
     RDKit          3D

 52 54  0  0  0  0  0  0  0  0999 V2000
   -7.4427   -0.0951   -0.1411 C   0  0  0  0  0  0  0  0  0  0  0  0
   -5.9679   -0.0146   -0.1296 C   0  0  0  0  0  0  0  0  0  0  0  0
   -5.3313    0.3670   -1.2770 N   0  0  0  0  0  0  0  0  0  0  0  0
   -3.9824    0.4524   -1.3028 C   0  0  0  0  0  0  0  0  0  0  0  0
   -3.2751    0.8574   -2.5589 C   0  0  0  0  0  0  0  0  0  0  0  0
   -3.2093    0.1677   -0.2058 C   0  0  0  0  0  0  0  0  0  0  0  0
   -1.7575    0.2604   -0.2642 C   0  0  0  0  0  0  0  0  0  0  0  0
   -0.9933   -0.7996    0.2413 C   0  0  0  0  0  0  0  0  0  0  0  0
    0.3854   -0.7757    0.2315 C   0  0  0  0  0  0  0  0  0  0  0  0
    1.0850    0.2957   -0.2778 C   0  0  0  0  0  0  0  0  0  0  0  0
    2.5715    0.2626   -0.2601 C   0  0  1  0  0  0  0  0  0  0  0  0
    3.1307    0.0165    1.1074 C   0  0  0  0  0  0  0  0  0  0  0  0
    4.2952   -0.9662    1.0218 C   0  0  0  0  0  0  0  0  0  0  0  0
    5.1799   -0.6208   -0.1324 C   0  0  2  0  0  0  0  0  0  0  0  0
    5.9299    0.6594    0.0084 C   0  0  0  0  0  0  0  0  0  0  0  0
    6.8475    0.7064    1.1672 C   0  0  0  0  0  0  0  0  0  0  0  0
    6.9958   -0.2663    1.9399 O   0  0  0  0  0  0  0  0  0  0  0  0
    7.5936    1.8416    1.4544 O   0  0  0  0  0  0  0  0  0  0  0  0
    4.4684   -0.6918   -1.4485 C   0  0  0  0  0  0  0  0  0  0  0  0
    2.9901   -0.8592   -1.1879 C   0  0  0  0  0  0  0  0  0  0  0  0
    0.3457    1.3421   -0.7767 C   0  0  0  0  0  0  0  0  0  0  0  0
   -1.0487    1.3239   -0.7695 C   0  0  0  0  0  0  0  0  0  0  0  0
   -3.8531   -0.2047    0.9087 N   0  0  0  0  0  0  0  0  0  0  0  0
   -5.2275   -0.3051    0.9784 C   0  0  0  0  0  0  0  0  0  0  0  0
   -5.8395   -0.7141    2.2215 C   0  0  0  0  0  0  0  0  0  0  0  0
   -7.2210   -0.8565    2.4186 N   0  0  0  0  0  0  0  0  0  0  0  0
   -5.1003   -0.9706    3.2270 O   0  0  0  0  0  0  0  0  0  0  0  0
   -7.8381   -1.0855    0.1511 H   0  0  0  0  0  0  0  0  0  0  0  0
   -7.7979    0.0157   -1.2209 H   0  0  0  0  0  0  0  0  0  0  0  0
   -7.8847    0.7421    0.4372 H   0  0  0  0  0  0  0  0  0  0  0  0
   -3.3857    1.9283   -2.7301 H   0  0  0  0  0  0  0  0  0  0  0  0
   -2.2833    0.4278   -2.6725 H   0  0  0  0  0  0  0  0  0  0  0  0
   -3.8845    0.3759   -3.3890 H   0  0  0  0  0  0  0  0  0  0  0  0
   -1.5401   -1.6474    0.6442 H   0  0  0  0  0  0  0  0  0  0  0  0
    0.9607   -1.6221    0.6351 H   0  0  0  0  0  0  0  0  0  0  0  0
    2.9980    1.1983   -0.7053 H   0  0  0  0  0  0  0  0  0  0  0  0
    2.3861   -0.3045    1.8471 H   0  0  0  0  0  0  0  0  0  0  0  0
    3.5697    0.9764    1.4712 H   0  0  0  0  0  0  0  0  0  0  0  0
    4.8055   -0.9595    1.9810 H   0  0  0  0  0  0  0  0  0  0  0  0
    3.8713   -1.9841    0.8641 H   0  0  0  0  0  0  0  0  0  0  0  0
    5.9781   -1.4290   -0.1930 H   0  0  0  0  0  0  0  0  0  0  0  0
    5.2283    1.5358    0.1019 H   0  0  0  0  0  0  0  0  0  0  0  0
    6.4831    0.8495   -0.9516 H   0  0  0  0  0  0  0  0  0  0  0  0
    8.4880    1.8290    1.9250 H   0  0  0  0  0  0  0  0  0  0  0  0
    4.8045   -1.5197   -2.1071 H   0  0  0  0  0  0  0  0  0  0  0  0
    4.5832    0.2847   -1.9736 H   0  0  0  0  0  0  0  0  0  0  0  0
    2.7199   -1.8627   -0.7990 H   0  0  0  0  0  0  0  0  0  0  0  0
    2.4965   -0.6675   -2.1790 H   0  0  0  0  0  0  0  0  0  0  0  0
    0.8749    2.1812   -1.1755 H   0  0  0  0  0  0  0  0  0  0  0  0
   -1.6179    2.1668   -1.1661 H   0  0  0  0  0  0  0  0  0  0  0  0
   -7.7052   -1.7886    2.3770 H   0  0  0  0  0  0  0  0  0  0  0  0
   -7.8797   -0.0537    2.6339 H   0  0  0  0  0  0  0  0  0  0  0  0
  1  2  1  0
  2  3  2  0
  3  4  1  0
  4  5  1  0
  4  6  2  0
  6  7  1  0
  7  8  2  0
  8  9  1  0
  9 10  2  0
 10 11  1  0
 11 12  1  0
 12 13  1  0
 13 14  1  0
 14 15  1  0
 15 16  1  0
 16 17  2  0
 16 18  1  0
 14 19  1  0
 19 20  1  0
 10 21  1  0
 21 22  2  0
  6 23  1  0
 23 24  2  0
 24 25  1  0
 25 26  1  0
 25 27  2  0
 24  2  1  0
 22  7  1  0
 20 11  1  0
  1 28  1  0
  1 29  1  0
  1 30  1  0
  5 31  1  0
  5 32  1  0
  5 33  1  0
  8 34  1  0
  9 35  1  0
 11 36  1  6
 12 37  1  0
 12 38  1  0
 13 39  1  0
 13 40  1  0
 14 41  1  6
 15 42  1  0
 15 43  1  0
 18 44  1  0
 19 45  1  0
 19 46  1  0
 20 47  1  0
 20 48  1  0
 21 49  1  0
 22 50  1  0
 26 51  1  0
 26 52  1  0
M  END
$$$$
