@<TRIPOS>MOLECULE
*****
 52 54 0 0 0
SMALL
GASTEIGER

@<TRIPOS>ATOM
      1 C          -7.4427   -0.0951   -0.1411 C.3     1  UNL1       -0.0201
      2 C          -5.9679   -0.0146   -0.1296 C.ar    1  UNL1        0.0689
      3 N          -5.3313    0.3670   -1.2770 N.ar    1  UNL1       -0.2527
      4 C          -3.9824    0.4524   -1.3028 C.ar    1  UNL1        0.0644
      5 C          -3.2751    0.8574   -2.5589 C.3     1  UNL1       -0.0203
      6 C          -3.2093    0.1677   -0.2058 C.ar    1  UNL1        0.0928
      7 C          -1.7575    0.2604   -0.2642 C.ar    1  UNL1        0.0021
      8 C          -0.9933   -0.7996    0.2413 C.ar    1  UNL1       -0.0522
      9 C           0.3854   -0.7757    0.2315 C.ar    1  UNL1       -0.0577
     10 C           1.0850    0.2957   -0.2778 C.ar    1  UNL1       -0.0442
     11 C           2.5715    0.2626   -0.2601 C.3     1  UNL1       -0.0158
     12 C           3.1307    0.0165    1.1074 C.3     1  UNL1       -0.0459
     13 C           4.2952   -0.9662    1.0218 C.3     1  UNL1       -0.0492
     14 C           5.1799   -0.6208   -0.1324 C.3     1  UNL1       -0.0310
     15 C           5.9299    0.6594    0.0084 C.3     1  UNL1        0.0476
     16 C           6.8475    0.7064    1.1672 C.2     1  UNL1        0.3050
     17 O           6.9958   -0.2663    1.9399 O.2     1  UNL1       -0.2510
     18 O           7.5936    1.8416    1.4544 O.3     1  UNL1       -0.4806
     19 C           4.4684   -0.6918   -1.4485 C.3     1  UNL1       -0.0492
     20 C           2.9901   -0.8592   -1.1879 C.3     1  UNL1       -0.0459
     21 C           0.3457    1.3421   -0.7767 C.ar    1  UNL1       -0.0577
     22 C          -1.0487    1.3239   -0.7695 C.ar    1  UNL1       -0.0522
     23 N          -3.8531   -0.2047    0.9087 N.ar    1  UNL1       -0.2385
     24 C          -5.2275   -0.3051    0.9784 C.ar    1  UNL1        0.1467
     25 C          -5.8395   -0.7141    2.2215 C.2     1  UNL1        0.2616
     26 N          -7.2210   -0.8565    2.4186 N.am    1  UNL1       -0.3240
     27 O          -5.1003   -0.9706    3.2270 O.2     1  UNL1       -0.2687
     28 H          -7.8381   -1.0855    0.1511 H       1  UNL1        0.0293
     29 H          -7.7979    0.0157   -1.2209 H       1  UNL1        0.0293
     30 H          -7.8847    0.7421    0.4372 H       1  UNL1        0.0293
     31 H          -3.3857    1.9283   -2.7301 H       1  UNL1        0.0293
     32 H          -2.2833    0.4278   -2.6725 H       1  UNL1        0.0293
     33 H          -3.8845    0.3759   -3.3890 H       1  UNL1        0.0293
     34 H          -1.5401   -1.6474    0.6442 H       1  UNL1        0.0624
     35 H           0.9607   -1.6221    0.6351 H       1  UNL1        0.0621
     36 H           2.9980    1.1983   -0.7053 H       1  UNL1        0.0349
     37 H           2.3861   -0.3045    1.8471 H       1  UNL1        0.0271
     38 H           3.5697    0.9764    1.4712 H       1  UNL1        0.0271
     39 H           4.8055   -0.9595    1.9810 H       1  UNL1        0.0268
     40 H           3.8713   -1.9841    0.8641 H       1  UNL1        0.0268
     41 H           5.9781   -1.4290   -0.1930 H       1  UNL1        0.0306
     42 H           5.2283    1.5358    0.1019 H       1  UNL1        0.0380
     43 H           6.4831    0.8495   -0.9516 H       1  UNL1        0.0380
     44 H           8.4880    1.8290    1.9250 H       1  UNL1        0.2951
     45 H           4.8045   -1.5197   -2.1071 H       1  UNL1        0.0268
     46 H           4.5832    0.2847   -1.9736 H       1  UNL1        0.0268
     47 H           2.7199   -1.8627   -0.7990 H       1  UNL1        0.0271
     48 H           2.4965   -0.6675   -2.1790 H       1  UNL1        0.0271
     49 H           0.8749    2.1812   -1.1755 H       1  UNL1        0.0621
     50 H          -1.6179    2.1668   -1.1661 H       1  UNL1        0.0624
     51 H          -7.7052   -1.7886    2.3770 H       1  UNL1        0.1453
     52 H          -7.8797   -0.0537    2.6339 H       1  UNL1        0.1453
@<TRIPOS>BOND
     1     1     2    1
     2     2     3   ar
     3     3     4   ar
     4     4     5    1
     5     4     6   ar
     6     6     7    1
     7     7     8   ar
     8     8     9   ar
     9     9    10   ar
    10    10    11    1
    11    11    12    1
    12    12    13    1
    13    13    14    1
    14    14    15    1
    15    15    16    1
    16    16    17    2
    17    16    18    1
    18    14    19    1
    19    19    20    1
    20    10    21   ar
    21    21    22   ar
    22     6    23   ar
    23    23    24   ar
    24    24    25    1
    25    25    26   am
    26    25    27    2
    27    24     2   ar
    28    22     7   ar
    29    20    11    1
    30     1    28    1
    31     1    29    1
    32     1    30    1
    33     5    31    1
    34     5    32    1
    35     5    33    1
    36     8    34    1
    37     9    35    1
    38    11    36    1
    39    12    37    1
    40    12    38    1
    41    13    39    1
    42    13    40    1
    43    14    41    1
    44    15    42    1
    45    15    43    1
    46    18    44    1
    47    19    45    1
    48    19    46    1
    49    20    47    1
    50    20    48    1
    51    21    49    1
    52    22    50    1
    53    26    51    1
    54    26    52    1
