
     RDKit          3D

 56 60  0  0  0  0  0  0  0  0999 V2000
   -2.5061    0.8188   -2.4615 C   0  0  0  0  0  0  0  0  0  0  0  0
   -1.7298    0.5996   -1.1813 C   0  0  2  0  0  0  0  0  0  0  0  0
   -0.3107    0.8312   -1.5130 C   0  0  0  0  0  0  0  0  0  0  0  0
    0.7241   -0.0497   -1.3111 C   0  0  0  0  0  0  0  0  0  0  0  0
    2.0370    0.2590   -1.5689 C   0  0  0  0  0  0  0  0  0  0  0  0
    3.1523   -0.6563   -1.3134 C   0  0  0  0  0  0  0  0  0  0  0  0
    4.2362   -0.7427   -2.0400 C   0  0  0  0  0  0  0  0  0  0  0  0
    4.3248    0.0872   -3.1235 F   0  0  0  0  0  0  0  0  0  0  0  0
    5.3829   -1.6105   -1.7668 C   0  0  0  0  0  0  0  0  0  0  0  0
    5.4576   -2.4764   -0.7085 C   0  0  0  0  0  0  0  0  0  0  0  0
    6.5970   -3.2619   -0.4956 C   0  0  0  0  0  0  0  0  0  0  0  0
    7.6605   -3.1610   -1.3672 C   0  0  0  0  0  0  0  0  0  0  0  0
    8.8686   -3.9513   -1.2065 C   0  0  0  0  0  0  0  0  0  0  0  0
    9.8174   -4.5805   -1.0774 N   0  0  0  0  0  0  0  0  0  0  0  0
    7.5347   -2.2781   -2.4229 C   0  0  0  0  0  0  0  0  0  0  0  0
    6.4398   -1.5443   -2.5990 N   0  0  0  0  0  0  0  0  0  0  0  0
    2.2825    1.5463   -2.0648 C   0  0  0  0  0  0  0  0  0  0  0  0
    1.2669    2.4024   -2.2609 N   0  0  0  0  0  0  0  0  0  0  0  0
    0.0043    2.1001   -2.0101 C   0  0  0  0  0  0  0  0  0  0  0  0
   -0.9260    3.0540   -2.2594 F   0  0  0  0  0  0  0  0  0  0  0  0
   -2.0750   -0.6896   -0.6995 N   0  0  0  0  0  0  0  0  0  0  0  0
   -1.6732   -1.1997    0.4145 C   0  0  0  0  0  0  0  0  0  0  0  0
   -1.9977   -2.4565    0.8877 N   0  0  0  0  0  0  0  0  0  0  0  0
   -0.7970   -0.0403    1.4583 S   0  0  0  0  0  0  0  0  0  0  0  0
   -1.7797    1.5115    1.1614 C   0  0  1  0  0  0  0  0  0  0  0  0
   -2.5091    1.9827    2.3368 C   0  0  0  0  0  0  0  0  0  0  0  0
   -2.1428    3.1284    2.8040 O   0  0  0  0  0  0  0  0  0  0  0  0
   -3.5655    1.2820    2.9740 N   0  0  0  0  0  0  0  0  0  0  0  0
   -4.2627    1.6762    4.1568 C   0  0  0  0  0  0  0  0  0  0  0  0
   -5.7090    1.4019    3.8075 C   0  0  0  0  0  0  0  0  0  0  0  0
   -5.6341    0.2539    2.8304 C   0  0  2  0  0  0  0  0  0  0  0  0
   -6.2173   -0.8861    3.3253 F   0  0  0  0  0  0  0  0  0  0  0  0
   -4.1462    0.0582    2.5143 C   0  0  0  0  0  0  0  0  0  0  0  0
   -1.0328    2.5261    0.3702 C   0  0  0  0  0  0  0  0  0  0  0  0
   -2.1309    1.7082   -0.2269 C   0  0  1  0  0  0  0  0  0  0  0  0
   -3.0008   -0.1315   -2.7399 H   0  0  0  0  0  0  0  0  0  0  0  0
   -3.3153    1.5705   -2.3540 H   0  0  0  0  0  0  0  0  0  0  0  0
   -1.8347    1.0633   -3.3310 H   0  0  0  0  0  0  0  0  0  0  0  0
    0.5038   -1.0533   -0.9402 H   0  0  0  0  0  0  0  0  0  0  0  0
    3.0507   -1.3029   -0.4653 H   0  0  0  0  0  0  0  0  0  0  0  0
    4.6471   -2.5672   -0.0248 H   0  0  0  0  0  0  0  0  0  0  0  0
    6.6333   -3.9423    0.3433 H   0  0  0  0  0  0  0  0  0  0  0  0
    8.4078   -2.2366   -3.0914 H   0  0  0  0  0  0  0  0  0  0  0  0
    3.3106    1.8076   -2.2555 H   0  0  0  0  0  0  0  0  0  0  0  0
   -2.5398   -3.1163    0.2704 H   0  0  0  0  0  0  0  0  0  0  0  0
   -1.7472   -2.8109    1.8310 H   0  0  0  0  0  0  0  0  0  0  0  0
   -4.0246    0.9613    4.9906 H   0  0  0  0  0  0  0  0  0  0  0  0
   -4.0982    2.7259    4.4722 H   0  0  0  0  0  0  0  0  0  0  0  0
   -6.3368    1.1770    4.6803 H   0  0  0  0  0  0  0  0  0  0  0  0
   -6.0812    2.3210    3.2692 H   0  0  0  0  0  0  0  0  0  0  0  0
   -6.1097    0.5342    1.8467 H   0  0  0  0  0  0  0  0  0  0  0  0
   -3.7836   -0.7634    3.1424 H   0  0  0  0  0  0  0  0  0  0  0  0
   -4.0249   -0.1146    1.4169 H   0  0  0  0  0  0  0  0  0  0  0  0
   -1.2589    3.6181    0.6042 H   0  0  0  0  0  0  0  0  0  0  0  0
    0.0249    2.3439    0.2995 H   0  0  0  0  0  0  0  0  0  0  0  0
   -3.0636    2.2733   -0.4475 H   0  0  0  0  0  0  0  0  0  0  0  0
  2  1  1  6
  2  3  1  0
  3  4  2  0
  4  5  1  0
  5  6  1  0
  6  7  2  0
  7  8  1  0
  7  9  1  0
  9 10  2  0
 10 11  1  0
 11 12  2  0
 12 13  1  0
 13 14  3  0
 12 15  1  0
 15 16  2  0
  5 17  2  0
 17 18  1  0
 18 19  2  0
 19 20  1  0
  2 21  1  0
 21 22  2  0
 22 23  1  0
 22 24  1  0
 24 25  1  0
 25 26  1  1
 26 27  2  0
 26 28  1  0
 28 29  1  0
 29 30  1  0
 30 31  1  0
 31 32  1  0
 31 33  1  0
 25 34  1  0
 34 35  1  0
 35  2  1  0
 19  3  1  0
 35 25  1  0
 16  9  1  0
 33 28  1  0
  1 36  1  0
  1 37  1  0
  1 38  1  0
  4 39  1  0
  6 40  1  0
 10 41  1  0
 11 42  1  0
 15 43  1  0
 17 44  1  0
 23 45  1  0
 23 46  1  0
 29 47  1  0
 29 48  1  0
 30 49  1  0
 30 50  1  0
 31 51  1  6
 33 52  1  0
 33 53  1  0
 34 54  1  0
 34 55  1  0
 35 56  1  1
M  END
$$$$
