@<TRIPOS>MOLECULE
*****
 56 60 0 0 0
SMALL
GASTEIGER

@<TRIPOS>ATOM
      1 C          -2.5061    0.8188   -2.4615 C.3     1  UNL1       -0.0351
      2 C          -1.7298    0.5996   -1.1813 C.3     1  UNL1        0.0950
      3 C          -0.3107    0.8312   -1.5130 C.ar    1  UNL1        0.0349
      4 C           0.7241   -0.0497   -1.3111 C.ar    1  UNL1       -0.0433
      5 C           2.0370    0.2590   -1.5689 C.ar    1  UNL1       -0.0036
      6 C           3.1523   -0.6563   -1.3134 C.2     1  UNL1       -0.0157
      7 C           4.2362   -0.7427   -2.0400 C.2     1  UNL1        0.1492
      8 F           4.3248    0.0872   -3.1235 F       1  UNL1       -0.2032
      9 C           5.3829   -1.6105   -1.7668 C.ar    1  UNL1        0.0990
     10 C           5.4576   -2.4764   -0.7085 C.ar    1  UNL1       -0.0322
     11 C           6.5970   -3.2619   -0.4956 C.ar    1  UNL1       -0.0408
     12 C           7.6605   -3.1610   -1.3672 C.ar    1  UNL1        0.0699
     13 C           8.8686   -3.9513   -1.2065 C.1     1  UNL1        0.1007
     14 N           9.8174   -4.5805   -1.0774 N.1     1  UNL1       -0.1908
     15 C           7.5347   -2.2781   -2.4229 C.ar    1  UNL1        0.0457
     16 N           6.4398   -1.5443   -2.5990 N.ar    1  UNL1       -0.2514
     17 C           2.2825    1.5463   -2.0648 C.ar    1  UNL1        0.0379
     18 N           1.2669    2.4024   -2.2609 N.ar    1  UNL1       -0.2267
     19 C           0.0043    2.1001   -2.0101 C.ar    1  UNL1        0.2187
     20 F          -0.9260    3.0540   -2.2594 F       1  UNL1       -0.1835
     21 N          -2.0750   -0.6896   -0.6995 N.2     1  UNL1       -0.2520
     22 C          -1.6732   -1.1997    0.4145 C.2     1  UNL1        0.1485
     23 N          -1.9977   -2.4565    0.8877 N.pl3   1  UNL1       -0.3380
     24 S          -0.7970   -0.0403    1.4583 S.3     1  UNL1       -0.0746
     25 C          -1.7797    1.5115    1.1614 C.3     1  UNL1        0.1054
     26 C          -2.5091    1.9827    2.3368 C.2     1  UNL1        0.2325
     27 O          -2.1428    3.1284    2.8040 O.2     1  UNL1       -0.2741
     28 N          -3.5655    1.2820    2.9740 N.am    1  UNL1       -0.2975
     29 C          -4.2627    1.6762    4.1568 C.3     1  UNL1        0.0175
     30 C          -5.7090    1.4019    3.8075 C.3     1  UNL1       -0.0044
     31 C          -5.6341    0.2539    2.8304 C.3     1  UNL1        0.1180
     32 F          -6.2173   -0.8861    3.3253 F       1  UNL1       -0.2438
     33 C          -4.1462    0.0582    2.5143 C.3     1  UNL1        0.0459
     34 C          -1.0328    2.5261    0.3702 C.3     1  UNL1       -0.0220
     35 C          -2.1309    1.7082   -0.2269 C.3     1  UNL1        0.0135
     36 H          -3.0008   -0.1315   -2.7399 H       1  UNL1        0.0256
     37 H          -3.3153    1.5705   -2.3540 H       1  UNL1        0.0256
     38 H          -1.8347    1.0633   -3.3310 H       1  UNL1        0.0256
     39 H           0.5038   -1.0533   -0.9402 H       1  UNL1        0.0629
     40 H           3.0507   -1.3029   -0.4653 H       1  UNL1        0.0653
     41 H           4.6471   -2.5672   -0.0248 H       1  UNL1        0.0640
     42 H           6.6333   -3.9423    0.3433 H       1  UNL1        0.0631
     43 H           8.4078   -2.2366   -3.0914 H       1  UNL1        0.0843
     44 H           3.3106    1.8076   -2.2555 H       1  UNL1        0.0836
     45 H          -2.5398   -3.1163    0.2704 H       1  UNL1        0.1442
     46 H          -1.7472   -2.8109    1.8310 H       1  UNL1        0.1442
     47 H          -4.0246    0.9613    4.9906 H       1  UNL1        0.0465
     48 H          -4.0982    2.7259    4.4722 H       1  UNL1        0.0465
     49 H          -6.3368    1.1770    4.6803 H       1  UNL1        0.0309
     50 H          -6.0812    2.3210    3.2692 H       1  UNL1        0.0309
     51 H          -6.1097    0.5342    1.8467 H       1  UNL1        0.0667
     52 H          -3.7836   -0.7634    3.1424 H       1  UNL1        0.0493
     53 H          -4.0249   -0.1146    1.4169 H       1  UNL1        0.0493
     54 H          -1.2589    3.6181    0.6042 H       1  UNL1        0.0287
     55 H           0.0249    2.3439    0.2995 H       1  UNL1        0.0287
     56 H          -3.0636    2.2733   -0.4475 H       1  UNL1        0.0346
@<TRIPOS>BOND
     1     2     1    1
     2     2     3    1
     3     3     4   ar
     4     4     5   ar
     5     5     6    1
     6     6     7    2
     7     7     8    1
     8     7     9    1
     9     9    10   ar
    10    10    11   ar
    11    11    12   ar
    12    12    13    1
    13    13    14    3
    14    12    15   ar
    15    15    16   ar
    16     5    17   ar
    17    17    18   ar
    18    18    19   ar
    19    19    20    1
    20     2    21    1
    21    21    22    2
    22    22    23    1
    23    22    24    1
    24    24    25    1
    25    25    26    1
    26    26    27    2
    27    26    28   am
    28    28    29    1
    29    29    30    1
    30    30    31    1
    31    31    32    1
    32    31    33    1
    33    25    34    1
    34    34    35    1
    35    35     2    1
    36    19     3   ar
    37    35    25    1
    38    16     9   ar
    39    33    28    1
    40     1    36    1
    41     1    37    1
    42     1    38    1
    43     4    39    1
    44     6    40    1
    45    10    41    1
    46    11    42    1
    47    15    43    1
    48    17    44    1
    49    23    45    1
    50    23    46    1
    51    29    47    1
    52    29    48    1
    53    30    49    1
    54    30    50    1
    55    31    51    1
    56    33    52    1
    57    33    53    1
    58    34    54    1
    59    34    55    1
    60    35    56    1
