@<TRIPOS>MOLECULE
*****
 78 82 0 0 0
SMALL
GASTEIGER

@<TRIPOS>ATOM
      1 C          -6.5778   -4.4727   -0.5692 C.2     1  UNL1       -0.1026
      2 C          -5.4023   -3.8125   -0.5449 C.2     1  UNL1       -0.0896
      3 C          -4.5015   -3.8475   -1.6987 C.3     1  UNL1       -0.0194
      4 C          -3.1402   -4.3987   -1.4763 C.3     1  UNL1        0.0152
      5 N          -2.3336   -3.7366   -0.5063 N.pl3   1  UNL1       -0.3130
      6 C          -2.0320   -2.3446   -0.4866 C.ar    1  UNL1        0.2211
      7 N          -2.6266   -1.5025   -1.3401 N.ar    1  UNL1       -0.1810
      8 C          -2.3822   -0.1755   -1.3754 C.ar    1  UNL1        0.2214
      9 N          -3.0479    0.6094   -2.3438 N.pl3   1  UNL1       -0.3077
     10 C          -3.0455    2.0314   -2.3547 C.3     1  UNL1        0.0547
     11 C          -3.9173    2.5453   -1.2204 C.ar    1  UNL1        0.0662
     12 C          -3.4170    2.7967    0.0083 C.ar    1  UNL1        0.0005
     13 S          -4.9367    3.3589    0.8700 S.2     1  UNL1       -0.0748
     14 C          -5.9932    3.1541   -0.5973 C.ar    1  UNL1        0.1151
     15 C          -7.4088    3.4767   -0.4843 C.ar    1  UNL1        0.0443
     16 C          -8.3533    3.4029   -1.4067 C.ar    1  UNL1       -0.0449
     17 C          -9.6217    3.7422   -1.1234 C.ar    1  UNL1       -0.0541
     18 C          -9.9414    4.1697    0.1339 C.ar    1  UNL1       -0.0237
     19 S          -8.2797    4.0680    0.9532 S.2     1  UNL1       -0.0946
     20 N          -5.1966    2.7552   -1.4099 N.ar    1  UNL1       -0.2419
     21 N          -1.4895    0.2983   -0.4970 N.ar    1  UNL1       -0.1809
     22 C          -0.8529   -0.4835    0.3859 C.ar    1  UNL1        0.2239
     23 N           0.1313    0.0149    1.3026 N.pl3   1  UNL1       -0.2952
     24 C           0.4918    1.4082    1.4067 C.3     1  UNL1        0.0153
     25 C           0.7743    1.6155    2.8997 C.3     1  UNL1       -0.0354
     26 C           1.2942    0.2623    3.3068 C.3     1  UNL1       -0.0316
     27 C           0.9340   -0.7147    2.2336 C.3     1  UNL1        0.0403
     28 C           2.2221   -1.2149    1.5892 C.3     1  UNL1        0.0361
     29 N           2.9675   -1.9291    2.5956 N.3     1  UNL1       -0.1882
     30 S           4.4518   -2.5485    1.9661 S.O2    1  UNL1        0.0585
     31 O           4.2061   -3.4479    0.7794 O.2     1  UNL1       -0.1530
     32 O           5.2216   -3.3001    2.9950 O.2     1  UNL1       -0.1530
     33 C           5.4222   -1.1978    1.4340 C.ar    1  UNL1        0.1053
     34 C           5.2358   -0.7624    0.1415 C.ar    1  UNL1       -0.0351
     35 C           5.9744    0.2839   -0.3290 C.ar    1  UNL1       -0.0567
     36 C           6.9184    0.9506    0.4214 C.ar    1  UNL1       -0.0473
     37 C           7.6596    2.0721   -0.1989 C.3     1  UNL1       -0.0279
     38 C           8.9207    1.6464   -0.8951 C.3     1  UNL1       -0.0519
     39 C           8.6894    0.6729   -2.0056 C.3     1  UNL1       -0.0650
     40 C           7.1004    0.5115    1.7116 C.ar    1  UNL1       -0.0567
     41 C           6.3561   -0.5589    2.2193 C.ar    1  UNL1       -0.0351
     42 N          -1.1489   -1.8123    0.3668 N.ar    1  UNL1       -0.1809
     43 H          -6.8628   -5.0421   -1.4561 H       1  UNL1        0.0532
     44 H          -7.2026   -4.4131    0.2999 H       1  UNL1        0.0532
     45 H          -5.1624   -3.2665    0.3528 H       1  UNL1        0.0567
     46 H          -4.3959   -2.8138   -2.1238 H       1  UNL1        0.0322
     47 H          -4.9834   -4.4987   -2.4804 H       1  UNL1        0.0322
     48 H          -2.5981   -4.2996   -2.4662 H       1  UNL1        0.0465
     49 H          -3.1912   -5.5005   -1.2213 H       1  UNL1        0.0465
     50 H          -1.9094   -4.3137    0.2811 H       1  UNL1        0.1489
     51 H          -3.5951    0.1313   -3.1298 H       1  UNL1        0.1493
     52 H          -2.0046    2.4455   -2.2206 H       1  UNL1        0.0527
     53 H          -3.3821    2.4054   -3.3309 H       1  UNL1        0.0527
     54 H          -2.4509    2.7348    0.4815 H       1  UNL1        0.0712
     55 H          -8.1005    3.0503   -2.4522 H       1  UNL1        0.0630
     56 H         -10.4733    3.6975   -1.8711 H       1  UNL1        0.0623
     57 H         -10.8183    4.4929    0.6355 H       1  UNL1        0.0693
     58 H          -0.2626    2.1116    1.0279 H       1  UNL1        0.0465
     59 H           1.4391    1.5679    0.8201 H       1  UNL1        0.0465
     60 H           1.5122    2.4239    2.9785 H       1  UNL1        0.0281
     61 H          -0.2015    1.8689    3.3592 H       1  UNL1        0.0281
     62 H           2.4142    0.3796    3.3709 H       1  UNL1        0.0284
     63 H           0.9141   -0.0440    4.3052 H       1  UNL1        0.0284
     64 H           0.3931   -1.5857    2.6733 H       1  UNL1        0.0514
     65 H           1.9037   -1.8948    0.7627 H       1  UNL1        0.0460
     66 H           2.7842   -0.3556    1.1615 H       1  UNL1        0.0460
     67 H           2.3798   -2.7714    2.8514 H       1  UNL1        0.1481
     68 H           4.5111   -1.2443   -0.4951 H       1  UNL1        0.0637
     69 H           5.8246    0.6307   -1.3594 H       1  UNL1        0.0621
     70 H           6.9956    2.5267   -0.9829 H       1  UNL1        0.0313
     71 H           7.8728    2.8011    0.5958 H       1  UNL1        0.0313
     72 H           9.3554    2.5882   -1.3376 H       1  UNL1        0.0266
     73 H           9.6195    1.2767   -0.1416 H       1  UNL1        0.0266
     74 H           8.0606   -0.1691   -1.6890 H       1  UNL1        0.0230
     75 H           8.2750    1.1432   -2.9190 H       1  UNL1        0.0230
     76 H           9.6864    0.2449   -2.2792 H       1  UNL1        0.0230
     77 H           7.8323    1.0127    2.3282 H       1  UNL1        0.0621
     78 H           6.4957   -0.9071    3.2292 H       1  UNL1        0.0637
@<TRIPOS>BOND
     1     1     2    2
     2     2     3    1
     3     3     4    1
     4     4     5    1
     5     5     6    1
     6     6     7   ar
     7     7     8   ar
     8     8     9    1
     9     9    10    1
    10    10    11    1
    11    11    12   ar
    12    12    13   ar
    13    13    14   ar
    14    14    15    1
    15    15    16   ar
    16    16    17   ar
    17    17    18   ar
    18    18    19   ar
    19    14    20   ar
    20     8    21   ar
    21    21    22   ar
    22    22    23    1
    23    23    24    1
    24    24    25    1
    25    25    26    1
    26    26    27    1
    27    27    28    1
    28    28    29    1
    29    29    30    1
    30    30    31    2
    31    30    32    2
    32    30    33    1
    33    33    34   ar
    34    34    35   ar
    35    35    36   ar
    36    36    37    1
    37    37    38    1
    38    38    39    1
    39    36    40   ar
    40    40    41   ar
    41    22    42   ar
    42    42     6   ar
    43    20    11   ar
    44    27    23    1
    45    41    33   ar
    46    19    15   ar
    47     1    43    1
    48     1    44    1
    49     2    45    1
    50     3    46    1
    51     3    47    1
    52     4    48    1
    53     4    49    1
    54     5    50    1
    55     9    51    1
    56    10    52    1
    57    10    53    1
    58    12    54    1
    59    16    55    1
    60    17    56    1
    61    18    57    1
    62    24    58    1
    63    24    59    1
    64    25    60    1
    65    25    61    1
    66    26    62    1
    67    26    63    1
    68    27    64    1
    69    28    65    1
    70    28    66    1
    71    29    67    1
    72    34    68    1
    73    35    69    1
    74    37    70    1
    75    37    71    1
    76    38    72    1
    77    38    73    1
    78    39    74    1
    79    39    75    1
    80    39    76    1
    81    40    77    1
    82    41    78    1
