
     RDKit          3D

 78 82  0  0  0  0  0  0  0  0999 V2000
   -6.5778   -4.4727   -0.5692 C   0  0  0  0  0  0  0  0  0  0  0  0
   -5.4023   -3.8125   -0.5449 C   0  0  0  0  0  0  0  0  0  0  0  0
   -4.5015   -3.8475   -1.6987 C   0  0  0  0  0  0  0  0  0  0  0  0
   -3.1402   -4.3987   -1.4763 C   0  0  0  0  0  0  0  0  0  0  0  0
   -2.3336   -3.7366   -0.5063 N   0  0  0  0  0  0  0  0  0  0  0  0
   -2.0320   -2.3446   -0.4866 C   0  0  0  0  0  0  0  0  0  0  0  0
   -2.6266   -1.5025   -1.3401 N   0  0  0  0  0  0  0  0  0  0  0  0
   -2.3822   -0.1755   -1.3754 C   0  0  0  0  0  0  0  0  0  0  0  0
   -3.0479    0.6094   -2.3438 N   0  0  0  0  0  0  0  0  0  0  0  0
   -3.0455    2.0314   -2.3547 C   0  0  0  0  0  0  0  0  0  0  0  0
   -3.9173    2.5453   -1.2204 C   0  0  0  0  0  0  0  0  0  0  0  0
   -3.4170    2.7967    0.0083 C   0  0  0  0  0  0  0  0  0  0  0  0
   -4.9367    3.3589    0.8700 S   0  0  0  0  0  0  0  0  0  0  0  0
   -5.9932    3.1541   -0.5973 C   0  0  0  0  0  0  0  0  0  0  0  0
   -7.4088    3.4767   -0.4843 C   0  0  0  0  0  0  0  0  0  0  0  0
   -8.3533    3.4029   -1.4067 C   0  0  0  0  0  0  0  0  0  0  0  0
   -9.6217    3.7422   -1.1234 C   0  0  0  0  0  0  0  0  0  0  0  0
   -9.9414    4.1697    0.1339 C   0  0  0  0  0  0  0  0  0  0  0  0
   -8.2797    4.0680    0.9532 S   0  0  0  0  0  0  0  0  0  0  0  0
   -5.1966    2.7552   -1.4099 N   0  0  0  0  0  0  0  0  0  0  0  0
   -1.4895    0.2983   -0.4970 N   0  0  0  0  0  0  0  0  0  0  0  0
   -0.8529   -0.4835    0.3859 C   0  0  0  0  0  0  0  0  0  0  0  0
    0.1313    0.0149    1.3026 N   0  0  0  0  0  0  0  0  0  0  0  0
    0.4918    1.4082    1.4067 C   0  0  0  0  0  0  0  0  0  0  0  0
    0.7743    1.6155    2.8997 C   0  0  0  0  0  0  0  0  0  0  0  0
    1.2942    0.2623    3.3068 C   0  0  0  0  0  0  0  0  0  0  0  0
    0.9340   -0.7147    2.2336 C   0  0  2  0  0  0  0  0  0  0  0  0
    2.2221   -1.2149    1.5892 C   0  0  0  0  0  0  0  0  0  0  0  0
    2.9675   -1.9291    2.5956 N   0  0  0  0  0  0  0  0  0  0  0  0
    4.4518   -2.5485    1.9661 S   0  0  0  0  0  6  0  0  0  0  0  0
    4.2061   -3.4479    0.7794 O   0  0  0  0  0  0  0  0  0  0  0  0
    5.2216   -3.3001    2.9950 O   0  0  0  0  0  0  0  0  0  0  0  0
    5.4222   -1.1978    1.4340 C   0  0  0  0  0  0  0  0  0  0  0  0
    5.2358   -0.7624    0.1415 C   0  0  0  0  0  0  0  0  0  0  0  0
    5.9744    0.2839   -0.3290 C   0  0  0  0  0  0  0  0  0  0  0  0
    6.9184    0.9506    0.4214 C   0  0  0  0  0  0  0  0  0  0  0  0
    7.6596    2.0721   -0.1989 C   0  0  0  0  0  0  0  0  0  0  0  0
    8.9207    1.6464   -0.8951 C   0  0  0  0  0  0  0  0  0  0  0  0
    8.6894    0.6729   -2.0056 C   0  0  0  0  0  0  0  0  0  0  0  0
    7.1004    0.5115    1.7116 C   0  0  0  0  0  0  0  0  0  0  0  0
    6.3561   -0.5589    2.2193 C   0  0  0  0  0  0  0  0  0  0  0  0
   -1.1489   -1.8123    0.3668 N   0  0  0  0  0  0  0  0  0  0  0  0
   -6.8628   -5.0421   -1.4561 H   0  0  0  0  0  0  0  0  0  0  0  0
   -7.2026   -4.4131    0.2999 H   0  0  0  0  0  0  0  0  0  0  0  0
   -5.1624   -3.2665    0.3528 H   0  0  0  0  0  0  0  0  0  0  0  0
   -4.3959   -2.8138   -2.1238 H   0  0  0  0  0  0  0  0  0  0  0  0
   -4.9834   -4.4987   -2.4804 H   0  0  0  0  0  0  0  0  0  0  0  0
   -2.5981   -4.2996   -2.4662 H   0  0  0  0  0  0  0  0  0  0  0  0
   -3.1912   -5.5005   -1.2213 H   0  0  0  0  0  0  0  0  0  0  0  0
   -1.9094   -4.3137    0.2811 H   0  0  0  0  0  0  0  0  0  0  0  0
   -3.5951    0.1313   -3.1298 H   0  0  0  0  0  0  0  0  0  0  0  0
   -2.0046    2.4455   -2.2206 H   0  0  0  0  0  0  0  0  0  0  0  0
   -3.3821    2.4054   -3.3309 H   0  0  0  0  0  0  0  0  0  0  0  0
   -2.4509    2.7348    0.4815 H   0  0  0  0  0  0  0  0  0  0  0  0
   -8.1005    3.0503   -2.4522 H   0  0  0  0  0  0  0  0  0  0  0  0
  -10.4733    3.6975   -1.8711 H   0  0  0  0  0  0  0  0  0  0  0  0
  -10.8183    4.4929    0.6355 H   0  0  0  0  0  0  0  0  0  0  0  0
   -0.2626    2.1116    1.0279 H   0  0  0  0  0  0  0  0  0  0  0  0
    1.4391    1.5679    0.8201 H   0  0  0  0  0  0  0  0  0  0  0  0
    1.5122    2.4239    2.9785 H   0  0  0  0  0  0  0  0  0  0  0  0
   -0.2015    1.8689    3.3592 H   0  0  0  0  0  0  0  0  0  0  0  0
    2.4142    0.3796    3.3709 H   0  0  0  0  0  0  0  0  0  0  0  0
    0.9141   -0.0440    4.3052 H   0  0  0  0  0  0  0  0  0  0  0  0
    0.3931   -1.5857    2.6733 H   0  0  0  0  0  0  0  0  0  0  0  0
    1.9037   -1.8948    0.7627 H   0  0  0  0  0  0  0  0  0  0  0  0
    2.7842   -0.3556    1.1615 H   0  0  0  0  0  0  0  0  0  0  0  0
    2.3798   -2.7714    2.8514 H   0  0  0  0  0  0  0  0  0  0  0  0
    4.5111   -1.2443   -0.4951 H   0  0  0  0  0  0  0  0  0  0  0  0
    5.8246    0.6307   -1.3594 H   0  0  0  0  0  0  0  0  0  0  0  0
    6.9956    2.5267   -0.9829 H   0  0  0  0  0  0  0  0  0  0  0  0
    7.8728    2.8011    0.5958 H   0  0  0  0  0  0  0  0  0  0  0  0
    9.3554    2.5882   -1.3376 H   0  0  0  0  0  0  0  0  0  0  0  0
    9.6195    1.2767   -0.1416 H   0  0  0  0  0  0  0  0  0  0  0  0
    8.0606   -0.1691   -1.6890 H   0  0  0  0  0  0  0  0  0  0  0  0
    8.2750    1.1432   -2.9190 H   0  0  0  0  0  0  0  0  0  0  0  0
    9.6864    0.2449   -2.2792 H   0  0  0  0  0  0  0  0  0  0  0  0
    7.8323    1.0127    2.3282 H   0  0  0  0  0  0  0  0  0  0  0  0
    6.4957   -0.9071    3.2292 H   0  0  0  0  0  0  0  0  0  0  0  0
  1  2  2  3
  2  3  1  0
  3  4  1  0
  4  5  1  0
  5  6  1  0
  6  7  2  0
  7  8  1  0
  8  9  1  0
  9 10  1  0
 10 11  1  0
 11 12  2  0
 12 13  1  0
 13 14  1  0
 14 15  1  0
 15 16  2  0
 16 17  1  0
 17 18  2  0
 18 19  1  0
 14 20  2  0
  8 21  2  0
 21 22  1  0
 22 23  1  0
 23 24  1  0
 24 25  1  0
 25 26  1  0
 26 27  1  0
 27 28  1  0
 28 29  1  0
 29 30  1  0
 30 31  2  0
 30 32  2  0
 30 33  1  0
 33 34  2  0
 34 35  1  0
 35 36  2  0
 36 37  1  0
 37 38  1  0
 38 39  1  0
 36 40  1  0
 40 41  2  0
 22 42  2  0
 42  6  1  0
 20 11  1  0
 27 23  1  0
 41 33  1  0
 19 15  1  0
  1 43  1  0
  1 44  1  0
  2 45  1  0
  3 46  1  0
  3 47  1  0
  4 48  1  0
  4 49  1  0
  5 50  1  0
  9 51  1  0
 10 52  1  0
 10 53  1  0
 12 54  1  0
 16 55  1  0
 17 56  1  0
 18 57  1  0
 24 58  1  0
 24 59  1  0
 25 60  1  0
 25 61  1  0
 26 62  1  0
 26 63  1  0
 27 64  1  1
 28 65  1  0
 28 66  1  0
 29 67  1  0
 34 68  1  0
 35 69  1  0
 37 70  1  0
 37 71  1  0
 38 72  1  0
 38 73  1  0
 39 74  1  0
 39 75  1  0
 39 76  1  0
 40 77  1  0
 41 78  1  0
M  END
$$$$
