
     RDKit          3D

 63 67  0  0  0  0  0  0  0  0999 V2000
   -0.5576    4.3506    0.1189 C   0  0  0  0  0  0  0  0  0  0  0  0
   -1.0453    3.0754    0.6510 C   0  0  0  0  0  0  0  0  0  0  0  0
   -1.4378    2.0226    1.0884 C   0  0  0  0  0  0  0  0  0  0  0  0
   -1.9328    0.7202    1.6046 C   0  0  0  0  0  0  0  0  0  0  0  0
   -1.7169   -0.3361    0.6394 N   0  0  0  0  0  0  0  0  0  0  0  0
   -2.5746   -0.7323   -0.3153 C   0  0  0  0  0  0  0  0  0  0  0  0
   -1.9355   -1.7253   -0.9572 N   0  0  0  0  0  0  0  0  0  0  0  0
   -0.7281   -1.9365   -0.4209 C   0  0  0  0  0  0  0  0  0  0  0  0
   -0.5751   -1.0454    0.6112 C   0  0  0  0  0  0  0  0  0  0  0  0
    0.6305   -1.1360    1.2720 C   0  0  0  0  0  0  0  0  0  0  0  0
    0.8062   -0.3338    2.2246 O   0  0  0  0  0  0  0  0  0  0  0  0
    1.5370   -2.0496    0.8809 N   0  0  0  0  0  0  0  0  0  0  0  0
    2.7616   -2.0472    1.6516 C   0  0  0  0  0  0  0  0  0  0  0  0
    3.7935   -1.1478    1.1082 C   0  0  0  0  0  0  0  0  0  0  0  0
    3.8517    0.1518    1.5207 N   0  0  0  0  0  0  0  0  0  0  0  0
    4.8003    0.9696    1.0181 C   0  0  0  0  0  0  0  0  0  0  0  0
    5.7330    0.5517    0.0903 C   0  0  0  0  0  0  0  0  0  0  0  0
    6.7046    1.3893   -0.4246 C   0  0  0  0  0  0  0  0  0  0  0  0
    6.7278    2.7112    0.0251 C   0  0  0  0  0  0  0  0  0  0  0  0
    5.7995    3.1443    0.9547 C   0  0  0  0  0  0  0  0  0  0  0  0
    4.8348    2.2890    1.4575 C   0  0  0  0  0  0  0  0  0  0  0  0
    5.6383   -0.7679   -0.2989 C   0  0  0  0  0  0  0  0  0  0  0  0
    6.6035   -1.2792   -1.2869 C   0  0  0  0  0  0  0  0  0  0  0  0
    4.6940   -1.5849    0.2005 N   0  0  0  0  0  0  0  0  0  0  0  0
    1.3367   -2.9064   -0.1448 C   0  0  0  0  0  0  0  0  0  0  0  0
    2.2491   -3.7292   -0.4367 O   0  0  0  0  0  0  0  0  0  0  0  0
    0.1713   -2.8536   -0.8202 N   0  0  0  0  0  0  0  0  0  0  0  0
   -0.0739   -3.7607   -1.9268 C   0  0  0  0  0  0  0  0  0  0  0  0
   -3.8754   -0.2893   -0.6612 N   0  0  0  0  0  0  0  0  0  0  0  0
   -4.5541   -0.9397   -1.7689 C   0  0  0  0  0  0  0  0  0  0  0  0
   -5.9349   -1.3844   -1.4153 C   0  0  0  0  0  0  0  0  0  0  0  0
   -6.7361   -0.2327   -0.8695 C   0  0  0  0  0  0  0  0  0  0  0  0
   -5.8995    1.0069   -0.9120 C   0  0  1  0  0  0  0  0  0  0  0  0
   -6.6359    2.0464   -0.1792 N   0  0  0  0  0  0  0  0  0  0  0  0
   -4.6571    0.7539   -0.0459 C   0  0  0  0  0  0  0  0  0  0  0  0
   -1.3785    5.1062   -0.0075 H   0  0  0  0  0  0  0  0  0  0  0  0
   -0.1540    4.2300   -0.9267 H   0  0  0  0  0  0  0  0  0  0  0  0
    0.2396    4.7551    0.7727 H   0  0  0  0  0  0  0  0  0  0  0  0
   -2.9657    0.7557    1.9449 H   0  0  0  0  0  0  0  0  0  0  0  0
   -1.3118    0.5506    2.5278 H   0  0  0  0  0  0  0  0  0  0  0  0
    2.5820   -1.8007    2.7186 H   0  0  0  0  0  0  0  0  0  0  0  0
    3.1627   -3.0973    1.5808 H   0  0  0  0  0  0  0  0  0  0  0  0
    7.4284    1.0258   -1.1585 H   0  0  0  0  0  0  0  0  0  0  0  0
    7.4886    3.3930   -0.3688 H   0  0  0  0  0  0  0  0  0  0  0  0
    5.8652    4.1870    1.2698 H   0  0  0  0  0  0  0  0  0  0  0  0
    4.1387    2.6923    2.1824 H   0  0  0  0  0  0  0  0  0  0  0  0
    6.4104   -2.3723   -1.4885 H   0  0  0  0  0  0  0  0  0  0  0  0
    6.4713   -0.7564   -2.2617 H   0  0  0  0  0  0  0  0  0  0  0  0
    7.6655   -1.1475   -0.9665 H   0  0  0  0  0  0  0  0  0  0  0  0
    0.3380   -3.3577   -2.8829 H   0  0  0  0  0  0  0  0  0  0  0  0
   -1.1511   -3.9294   -2.1117 H   0  0  0  0  0  0  0  0  0  0  0  0
    0.4952   -4.6862   -1.7322 H   0  0  0  0  0  0  0  0  0  0  0  0
   -3.9698   -1.8150   -2.1404 H   0  0  0  0  0  0  0  0  0  0  0  0
   -4.6043   -0.2383   -2.6209 H   0  0  0  0  0  0  0  0  0  0  0  0
   -5.9510   -2.2404   -0.7076 H   0  0  0  0  0  0  0  0  0  0  0  0
   -6.4753   -1.7580   -2.3164 H   0  0  0  0  0  0  0  0  0  0  0  0
   -6.9775   -0.4623    0.2100 H   0  0  0  0  0  0  0  0  0  0  0  0
   -7.7050   -0.1157   -1.4049 H   0  0  0  0  0  0  0  0  0  0  0  0
   -5.5902    1.3475   -1.8951 H   0  0  0  0  0  0  0  0  0  0  0  0
   -6.0357    2.9225   -0.1651 H   0  0  0  0  0  0  0  0  0  0  0  0
   -6.6509    1.7140    0.8264 H   0  0  0  0  0  0  0  0  0  0  0  0
   -4.0865    1.6921    0.0642 H   0  0  0  0  0  0  0  0  0  0  0  0
   -5.0811    0.4406    0.9338 H   0  0  0  0  0  0  0  0  0  0  0  0
  1  2  1  0
  2  3  3  0
  3  4  1  0
  4  5  1  0
  5  6  1  0
  6  7  2  0
  7  8  1  0
  8  9  2  0
  9 10  1  0
 10 11  2  0
 10 12  1  0
 12 13  1  0
 13 14  1  0
 14 15  2  0
 15 16  1  0
 16 17  2  0
 17 18  1  0
 18 19  2  0
 19 20  1  0
 20 21  2  0
 17 22  1  0
 22 23  1  0
 22 24  2  0
 12 25  1  0
 25 26  2  0
 25 27  1  0
 27 28  1  0
  6 29  1  0
 29 30  1  0
 30 31  1  0
 31 32  1  0
 32 33  1  0
 33 34  1  0
 33 35  1  0
  9  5  1  0
 24 14  1  0
 35 29  1  0
 27  8  1  0
 21 16  1  0
  1 36  1  0
  1 37  1  0
  1 38  1  0
  4 39  1  0
  4 40  1  0
 13 41  1  0
 13 42  1  0
 18 43  1  0
 19 44  1  0
 20 45  1  0
 21 46  1  0
 23 47  1  0
 23 48  1  0
 23 49  1  0
 28 50  1  0
 28 51  1  0
 28 52  1  0
 30 53  1  0
 30 54  1  0
 31 55  1  0
 31 56  1  0
 32 57  1  0
 32 58  1  0
 33 59  1  6
 34 60  1  0
 34 61  1  0
 35 62  1  0
 35 63  1  0
M  END
$$$$
