@<TRIPOS>MOLECULE
*****
 63 67 0 0 0
SMALL
GASTEIGER

@<TRIPOS>ATOM
      1 C          -0.5576    4.3506    0.1189 C.3     1  UNL1       -0.0025
      2 C          -1.0453    3.0754    0.6510 C.1     1  UNL1       -0.1038
      3 C          -1.4378    2.0226    1.0884 C.1     1  UNL1       -0.0806
      4 C          -1.9328    0.7202    1.6046 C.3     1  UNL1        0.0878
      5 N          -1.7169   -0.3361    0.6394 N.ar    1  UNL1       -0.2946
      6 C          -2.5746   -0.7323   -0.3153 C.ar    1  UNL1        0.2016
      7 N          -1.9355   -1.7253   -0.9572 N.ar    1  UNL1       -0.1959
      8 C          -0.7281   -1.9365   -0.4209 C.ar    1  UNL1        0.1698
      9 C          -0.5751   -1.0454    0.6112 C.ar    1  UNL1        0.1537
     10 C           0.6305   -1.1360    1.2720 C.ar    1  UNL1        0.2829
     11 O           0.8062   -0.3338    2.2246 O.2     1  UNL1       -0.2652
     12 N           1.5370   -2.0496    0.8809 N.ar    1  UNL1       -0.2516
     13 C           2.7616   -2.0472    1.6516 C.3     1  UNL1        0.0906
     14 C           3.7935   -1.1478    1.1082 C.ar    1  UNL1        0.1497
     15 N           3.8517    0.1518    1.5207 N.ar    1  UNL1       -0.2302
     16 C           4.8003    0.9696    1.0181 C.ar    1  UNL1        0.0748
     17 C           5.7330    0.5517    0.0903 C.ar    1  UNL1        0.0214
     18 C           6.7046    1.3893   -0.4246 C.ar    1  UNL1       -0.0509
     19 C           6.7278    2.7112    0.0251 C.ar    1  UNL1       -0.0610
     20 C           5.7995    3.1443    0.9547 C.ar    1  UNL1       -0.0597
     21 C           4.8348    2.2890    1.4575 C.ar    1  UNL1       -0.0356
     22 C           5.6383   -0.7679   -0.2989 C.ar    1  UNL1        0.0495
     23 C           6.6035   -1.2792   -1.2869 C.3     1  UNL1       -0.0216
     24 N           4.6940   -1.5849    0.2005 N.ar    1  UNL1       -0.2347
     25 C           1.3367   -2.9064   -0.1448 C.ar    1  UNL1        0.3337
     26 O           2.2491   -3.7292   -0.4367 O.2     1  UNL1       -0.2462
     27 N           0.1713   -2.8536   -0.8202 N.ar    1  UNL1       -0.2795
     28 C          -0.0739   -3.7607   -1.9268 C.3     1  UNL1        0.0181
     29 N          -3.8754   -0.2893   -0.6612 N.pl3   1  UNL1       -0.2994
     30 C          -4.5541   -0.9397   -1.7689 C.3     1  UNL1        0.0149
     31 C          -5.9349   -1.3844   -1.4153 C.3     1  UNL1       -0.0357
     32 C          -6.7361   -0.2327   -0.8695 C.3     1  UNL1       -0.0349
     33 C          -5.8995    1.0069   -0.9120 C.3     1  UNL1        0.0208
     34 N          -6.6359    2.0464   -0.1792 N.3     1  UNL1       -0.3259
     35 C          -4.6571    0.7539   -0.0459 C.3     1  UNL1        0.0300
     36 H          -1.3785    5.1062   -0.0075 H       1  UNL1        0.0362
     37 H          -0.1540    4.2300   -0.9267 H       1  UNL1        0.0362
     38 H           0.2396    4.7551    0.7727 H       1  UNL1        0.0362
     39 H          -2.9657    0.7557    1.9449 H       1  UNL1        0.0629
     40 H          -1.3118    0.5506    2.5278 H       1  UNL1        0.0629
     41 H           2.5820   -1.8007    2.7186 H       1  UNL1        0.0575
     42 H           3.1627   -3.0973    1.5808 H       1  UNL1        0.0575
     43 H           7.4284    1.0258   -1.1585 H       1  UNL1        0.0625
     44 H           7.4886    3.3930   -0.3688 H       1  UNL1        0.0618
     45 H           5.8652    4.1870    1.2698 H       1  UNL1        0.0618
     46 H           4.1387    2.6923    2.1824 H       1  UNL1        0.0639
     47 H           6.4104   -2.3723   -1.4885 H       1  UNL1        0.0293
     48 H           6.4713   -0.7564   -2.2617 H       1  UNL1        0.0293
     49 H           7.6655   -1.1475   -0.9665 H       1  UNL1        0.0293
     50 H           0.3380   -3.3577   -2.8829 H       1  UNL1        0.0458
     51 H          -1.1511   -3.9294   -2.1117 H       1  UNL1        0.0458
     52 H           0.4952   -4.6862   -1.7322 H       1  UNL1        0.0458
     53 H          -3.9698   -1.8150   -2.1404 H       1  UNL1        0.0464
     54 H          -4.6043   -0.2383   -2.6209 H       1  UNL1        0.0464
     55 H          -5.9510   -2.2404   -0.7076 H       1  UNL1        0.0281
     56 H          -6.4753   -1.7580   -2.3164 H       1  UNL1        0.0281
     57 H          -6.9775   -0.4623    0.2100 H       1  UNL1        0.0281
     58 H          -7.7050   -0.1157   -1.4049 H       1  UNL1        0.0281
     59 H          -5.5902    1.3475   -1.8951 H       1  UNL1        0.0474
     60 H          -6.0357    2.9225   -0.1651 H       1  UNL1        0.1185
     61 H          -6.6509    1.7140    0.8264 H       1  UNL1        0.1185
     62 H          -4.0865    1.6921    0.0642 H       1  UNL1        0.0480
     63 H          -5.0811    0.4406    0.9338 H       1  UNL1        0.0480
@<TRIPOS>BOND
     1     1     2    1
     2     2     3    3
     3     3     4    1
     4     4     5    1
     5     5     6   ar
     6     6     7   ar
     7     7     8   ar
     8     8     9   ar
     9     9    10   ar
    10    10    11    2
    11    10    12   ar
    12    12    13    1
    13    13    14    1
    14    14    15   ar
    15    15    16   ar
    16    16    17   ar
    17    17    18   ar
    18    18    19   ar
    19    19    20   ar
    20    20    21   ar
    21    17    22   ar
    22    22    23    1
    23    22    24   ar
    24    12    25   ar
    25    25    26    2
    26    25    27   ar
    27    27    28    1
    28     6    29    1
    29    29    30    1
    30    30    31    1
    31    31    32    1
    32    32    33    1
    33    33    34    1
    34    33    35    1
    35     9     5   ar
    36    24    14   ar
    37    35    29    1
    38    27     8   ar
    39    21    16   ar
    40     1    36    1
    41     1    37    1
    42     1    38    1
    43     4    39    1
    44     4    40    1
    45    13    41    1
    46    13    42    1
    47    18    43    1
    48    19    44    1
    49    20    45    1
    50    21    46    1
    51    23    47    1
    52    23    48    1
    53    23    49    1
    54    28    50    1
    55    28    51    1
    56    28    52    1
    57    30    53    1
    58    30    54    1
    59    31    55    1
    60    31    56    1
    61    32    57    1
    62    32    58    1
    63    33    59    1
    64    34    60    1
    65    34    61    1
    66    35    62    1
    67    35    63    1
