@<TRIPOS>MOLECULE
*****
 212 212 0 0 0
SMALL
GASTEIGER

@<TRIPOS>ATOM
      1 C          -0.3476    9.5645    0.7431 C.3     1  UNL1       -0.0468
      2 C          -1.1057    8.5332   -0.0477 C.2     1  UNL1       -0.0910
      3 C          -1.2911    7.3150    0.4012 C.2     1  UNL1       -0.0879
      4 C          -2.0072    6.2342   -0.2743 C.3     1  UNL1       -0.0298
      5 C          -2.5514    6.5540   -1.6444 C.3     1  UNL1       -0.0122
      6 C          -1.4270    6.8671   -2.5714 C.3     1  UNL1       -0.0597
      7 C          -3.6277    5.6722   -2.1129 C.3     1  UNL1        0.0850
      8 O          -4.0276    6.1682   -3.4006 O.3     1  UNL1       -0.3892
      9 C          -3.4382    4.2389   -2.3084 C.3     1  UNL1        0.1279
     10 C          -2.5455    3.4264   -1.5169 C.2     1  UNL1        0.2367
     11 O          -3.0839    2.8518   -0.4652 O.2     1  UNL1       -0.2737
     12 N          -1.2155    3.0036   -1.4829 N.am    1  UNL1       -0.3024
     13 C          -0.6433    2.1405   -0.4136 C.3     1  UNL1        0.0994
     14 C          -0.6849    0.6752   -0.8930 C.3     1  UNL1       -0.0288
     15 C           0.1188    0.5063   -2.1457 C.3     1  UNL1       -0.0631
     16 C           0.7897    2.4649   -0.2048 C.2     1  UNL1        0.2368
     17 O           1.1608    3.3063   -1.1458 O.2     1  UNL1       -0.2735
     18 N           1.9206    2.3061    0.5225 N.am    1  UNL1       -0.2830
     19 C           2.1236    1.6658    1.7675 C.3     1  UNL1        0.0047
     20 C           3.2212    2.9390    0.0642 C.3     1  UNL1        0.1489
     21 S           3.4882    4.3703    1.2040 S.3     1  UNL1       -0.1279
     22 C           4.9142    5.3460    0.8004 C.3     1  UNL1        0.0086
     23 C           4.8286    6.6197    1.6566 C.3     1  UNL1        0.0074
     24 N           4.8620    6.2551    3.0564 N.3     1  UNL1       -0.3076
     25 C           4.6639    7.4417    3.8923 C.3     1  UNL1       -0.0130
     26 C           6.1375    5.6320    3.4089 C.3     1  UNL1       -0.0130
     27 C           4.2623    1.9287    0.0995 C.2     1  UNL1        0.2468
     28 O           3.8030    0.7404    0.4029 O.2     1  UNL1       -0.2726
     29 N           5.6183    1.6644   -0.0704 N.am    1  UNL1       -0.2906
     30 C           6.6098    2.4818   -0.6689 C.3     1  UNL1        0.0040
     31 C           6.1866    0.3417    0.3093 C.3     1  UNL1        0.1045
     32 C           6.1353    0.0091    1.7301 C.3     1  UNL1        0.0027
     33 C           6.9088    0.9785    2.6119 C.3     1  UNL1        0.0627
     34 C           6.8527    0.6195    4.0685 C.3     1  UNL1       -0.0363
     35 C           8.3783    1.0506    2.2083 C.3     1  UNL1       -0.0363
     36 O           6.3697    2.2511    2.4156 O.3     1  UNL1       -0.3890
     37 C           5.8823   -0.7661   -0.5935 C.2     1  UNL1        0.2343
     38 O           5.0569   -0.4766   -1.5330 O.2     1  UNL1       -0.2738
     39 N           6.2555   -2.0876   -0.7158 N.am    1  UNL1       -0.3022
     40 C           5.7967   -2.8861   -1.9021 C.3     1  UNL1        0.1019
     41 C           7.0926   -2.8795   -2.7588 C.3     1  UNL1       -0.0197
     42 C           7.4871   -1.4870   -3.1061 C.3     1  UNL1       -0.0605
     43 C           8.1904   -3.5605   -1.9509 C.3     1  UNL1       -0.0605
     44 C           5.5418   -4.2774   -1.5069 C.2     1  UNL1        0.2365
     45 O           5.5607   -4.4016   -0.1803 O.2     1  UNL1       -0.2735
     46 N           5.2813   -5.5804   -1.8782 N.am    1  UNL1       -0.2914
     47 C           5.1297   -6.0847   -3.1917 C.3     1  UNL1        0.0040
     48 C           5.1053   -6.7017   -0.8871 C.3     1  UNL1        0.1021
     49 C           6.2824   -7.0255   -0.0804 C.3     1  UNL1       -0.0234
     50 C           6.0597   -8.1646    0.8884 C.3     1  UNL1       -0.0446
     51 C           7.3638   -8.3507    1.6618 C.3     1  UNL1       -0.0626
     52 C           5.7371   -9.4723    0.2494 C.3     1  UNL1       -0.0626
     53 C           3.7951   -6.6517   -0.1903 C.2     1  UNL1        0.2341
     54 O           3.3445   -7.8535    0.1680 O.2     1  UNL1       -0.2738
     55 N           2.8487   -5.7436    0.2402 N.am    1  UNL1       -0.3027
     56 C           1.5476   -6.1917    0.8061 C.3     1  UNL1        0.0966
     57 C           1.6655   -5.8408    2.2825 C.3     1  UNL1       -0.0381
     58 C           0.3589   -5.6277    0.1853 C.2     1  UNL1        0.2337
     59 O          -0.7100   -6.3576    0.5073 O.2     1  UNL1       -0.2738
     60 N          -0.0706   -4.6017   -0.6092 N.am    1  UNL1       -0.3027
     61 C          -1.4731   -4.5917   -1.1136 C.3     1  UNL1        0.0968
     62 C          -1.5996   -3.8645   -2.3831 C.3     1  UNL1       -0.0381
     63 C          -2.4456   -4.1422   -0.1024 C.2     1  UNL1        0.2360
     64 O          -1.7903   -3.9367    1.0371 O.2     1  UNL1       -0.2736
     65 N          -3.7070   -3.8287    0.2492 N.am    1  UNL1       -0.2914
     66 C          -3.9472   -3.4071    1.6774 C.3     1  UNL1        0.0040
     67 C          -4.9647   -3.7685   -0.4371 C.3     1  UNL1        0.1023
     68 C          -5.7195   -4.9864    0.0753 C.3     1  UNL1       -0.0234
     69 C          -6.9733   -5.4428   -0.3984 C.3     1  UNL1       -0.0446
     70 C          -7.2405   -6.7750    0.4588 C.3     1  UNL1       -0.0626
     71 C          -8.2914   -4.7692   -0.2618 C.3     1  UNL1       -0.0626
     72 C          -5.6578   -2.4889   -0.1592 C.2     1  UNL1        0.2365
     73 O          -6.8700   -2.6549    0.1244 O.2     1  UNL1       -0.2735
     74 N          -5.4892   -1.1135   -0.0923 N.am    1  UNL1       -0.2914
     75 C          -4.4314   -0.2834   -0.4519 C.3     1  UNL1        0.0040
     76 C          -6.6363   -0.2768    0.4155 C.3     1  UNL1        0.1023
     77 C          -6.1380    0.0038    1.8752 C.3     1  UNL1       -0.0234
     78 C          -7.1596    0.7787    2.6302 C.3     1  UNL1       -0.0446
     79 C          -8.4951    0.0560    2.7239 C.3     1  UNL1       -0.0626
     80 C          -6.7243    0.9800    4.0796 C.3     1  UNL1       -0.0626
     81 C          -6.8590    0.9477   -0.2843 C.2     1  UNL1        0.2365
     82 O          -6.2211    1.9436    0.3273 O.2     1  UNL1       -0.2735
     83 N          -7.4277    1.6729   -1.3241 N.am    1  UNL1       -0.2912
     84 C          -8.2423    1.1467   -2.3596 C.3     1  UNL1        0.0040
     85 C          -7.2198    3.1463   -1.4559 C.3     1  UNL1        0.1044
     86 C          -7.8589    3.9288   -0.3399 C.3     1  UNL1       -0.0195
     87 C          -7.5742    5.4191   -0.6082 C.3     1  UNL1       -0.0605
     88 C          -9.3865    3.8060   -0.4092 C.3     1  UNL1       -0.0605
     89 C          -5.8105    3.5388   -1.7182 C.2     1  UNL1        0.2368
     90 O          -5.2418    4.1086   -0.6676 O.2     1  UNL1       -0.2735
     91 N          -4.7742    3.5703   -2.6369 N.am    1  UNL1       -0.2890
     92 C          -4.7128    2.9895   -3.9357 C.3     1  UNL1        0.0041
     93 H           0.5741    9.1548    1.1857 H       1  UNL1        0.0272
     94 H          -1.0095    9.8804    1.6014 H       1  UNL1        0.0272
     95 H          -0.1726   10.4704    0.1479 H       1  UNL1        0.0272
     96 H          -1.4956    8.8509   -1.0035 H       1  UNL1        0.0566
     97 H          -0.8384    7.1337    1.4074 H       1  UNL1        0.0569
     98 H          -1.2838    5.3687   -0.2973 H       1  UNL1        0.0311
     99 H          -2.8936    5.9161    0.3415 H       1  UNL1        0.0311
    100 H          -3.0187    7.6078   -1.4622 H       1  UNL1        0.0327
    101 H          -0.4860    6.9260   -1.9862 H       1  UNL1        0.0233
    102 H          -1.2283    6.0252   -3.2928 H       1  UNL1        0.0233
    103 H          -1.5074    7.8340   -3.1162 H       1  UNL1        0.0233
    104 H          -4.5200    5.9345   -1.4133 H       1  UNL1        0.0619
    105 H          -4.2533    7.1264   -3.2830 H       1  UNL1        0.2099
    106 H          -2.9909    4.1576   -3.3738 H       1  UNL1        0.0623
    107 H          -0.4777    3.2206   -2.1384 H       1  UNL1        0.1495
    108 H          -1.3209    2.1803    0.4210 H       1  UNL1        0.0594
    109 H          -1.6822    0.2632   -0.9250 H       1  UNL1        0.0285
    110 H          -0.1377    0.1337   -0.0766 H       1  UNL1        0.0285
    111 H           0.5252    1.4829   -2.5075 H       1  UNL1        0.0230
    112 H          -0.4072   -0.0666   -2.9388 H       1  UNL1        0.0230
    113 H           1.0564   -0.1060   -1.9642 H       1  UNL1        0.0230
    114 H           2.0562    0.5587    1.7604 H       1  UNL1        0.0429
    115 H           1.5090    2.0790    2.6269 H       1  UNL1        0.0429
    116 H           3.1670    1.8460    2.1952 H       1  UNL1        0.0429
    117 H           3.0790    3.4825   -0.8830 H       1  UNL1        0.0715
    118 H           5.8166    4.7818    1.1763 H       1  UNL1        0.0389
    119 H           4.9778    5.5758   -0.2673 H       1  UNL1        0.0389
    120 H           5.6216    7.3248    1.4084 H       1  UNL1        0.0434
    121 H           3.7893    7.0212    1.4643 H       1  UNL1        0.0434
    122 H           3.5836    7.7294    3.8034 H       1  UNL1        0.0391
    123 H           5.3023    8.2327    3.4779 H       1  UNL1        0.0391
    124 H           4.8449    7.1873    4.9412 H       1  UNL1        0.0391
    125 H           6.8402    5.7591    2.5844 H       1  UNL1        0.0391
    126 H           5.9945    4.5821    3.7164 H       1  UNL1        0.0391
    127 H           6.5306    6.1428    4.3228 H       1  UNL1        0.0391
    128 H           7.0336    3.2684   -0.0149 H       1  UNL1        0.0429
    129 H           6.4223    2.8261   -1.7182 H       1  UNL1        0.0429
    130 H           7.5833    1.8710   -0.8548 H       1  UNL1        0.0429
    131 H           7.3359    0.5818    0.1551 H       1  UNL1        0.0597
    132 H           6.5572   -1.0099    1.9334 H       1  UNL1        0.0315
    133 H           5.1084   -0.0194    2.1623 H       1  UNL1        0.0315
    134 H           7.8561    0.8246    4.5467 H       1  UNL1        0.0257
    135 H           6.6627   -0.4462    4.2085 H       1  UNL1        0.0257
    136 H           6.1555    1.2792    4.6269 H       1  UNL1        0.0257
    137 H           8.7619    0.0791    1.8375 H       1  UNL1        0.0257
    138 H           9.0012    1.2740    3.1173 H       1  UNL1        0.0257
    139 H           8.5903    1.8820    1.5071 H       1  UNL1        0.0257
    140 H           7.0669    2.9437    2.3887 H       1  UNL1        0.2101
    141 H           6.8253   -2.7231   -0.1428 H       1  UNL1        0.1495
    142 H           5.0690   -2.3762   -2.4916 H       1  UNL1        0.0597
    143 H           6.8710   -3.4758   -3.6651 H       1  UNL1        0.0318
    144 H           7.7624   -0.9275   -2.1866 H       1  UNL1        0.0233
    145 H           8.4075   -1.5608   -3.7398 H       1  UNL1        0.0233
    146 H           6.7242   -0.9386   -3.6648 H       1  UNL1        0.0233
    147 H           7.7446   -4.3357   -1.2938 H       1  UNL1        0.0233
    148 H           8.8977   -4.0865   -2.6428 H       1  UNL1        0.0233
    149 H           8.7693   -2.8368   -1.3669 H       1  UNL1        0.0233
    150 H           6.0663   -6.1001   -3.8172 H       1  UNL1        0.0429
    151 H           4.8744   -7.1997   -3.1996 H       1  UNL1        0.0429
    152 H           4.2345   -5.7051   -3.7677 H       1  UNL1        0.0429
    153 H           4.9690   -7.6490   -1.5349 H       1  UNL1        0.0597
    154 H           6.6141   -6.1665    0.5262 H       1  UNL1        0.0290
    155 H           7.1658   -7.2646   -0.7402 H       1  UNL1        0.0290
    156 H           5.2824   -7.8959    1.6097 H       1  UNL1        0.0296
    157 H           7.9893   -9.1385    1.2146 H       1  UNL1        0.0232
    158 H           7.9343   -7.4083    1.6294 H       1  UNL1        0.0232
    159 H           7.1595   -8.5958    2.7190 H       1  UNL1        0.0232
    160 H           4.9544   -9.9865    0.8880 H       1  UNL1        0.0232
    161 H           6.6162  -10.1704    0.3423 H       1  UNL1        0.0232
    162 H           5.3415   -9.4459   -0.7623 H       1  UNL1        0.0232
    163 H           2.9093   -4.7442    0.2555 H       1  UNL1        0.1495
    164 H           1.4600   -7.2975    0.7869 H       1  UNL1        0.0592
    165 H           1.7577   -4.7548    2.3797 H       1  UNL1        0.0252
    166 H           2.6328   -6.2789    2.6257 H       1  UNL1        0.0252
    167 H           0.8305   -6.3168    2.8048 H       1  UNL1        0.0252
    168 H           0.4127   -3.7836   -0.9248 H       1  UNL1        0.1495
    169 H          -1.7573   -5.6872   -1.2828 H       1  UNL1        0.0592
    170 H          -0.6416   -3.5651   -2.8601 H       1  UNL1        0.0252
    171 H          -2.1200   -2.8945   -2.1587 H       1  UNL1        0.0252
    172 H          -2.2894   -4.3509   -3.1298 H       1  UNL1        0.0252
    173 H          -3.2965   -2.4833    1.7582 H       1  UNL1        0.0429
    174 H          -4.9738   -3.2349    1.9134 H       1  UNL1        0.0429
    175 H          -3.5329   -4.1214    2.3783 H       1  UNL1        0.0429
    176 H          -4.9824   -3.9227   -1.5266 H       1  UNL1        0.0597
    177 H          -4.9600   -5.8339   -0.1516 H       1  UNL1        0.0290
    178 H          -5.7711   -4.9271    1.2199 H       1  UNL1        0.0290
    179 H          -6.9242   -5.9623   -1.4336 H       1  UNL1        0.0296
    180 H          -8.1143   -7.2332    0.0051 H       1  UNL1        0.0232
    181 H          -7.3328   -6.4285    1.4916 H       1  UNL1        0.0232
    182 H          -6.3255   -7.3534    0.2739 H       1  UNL1        0.0232
    183 H          -9.1186   -5.5889   -0.4287 H       1  UNL1        0.0232
    184 H          -8.5734   -4.0716   -1.0821 H       1  UNL1        0.0232
    185 H          -8.5650   -4.4434    0.7553 H       1  UNL1        0.0232
    186 H          -3.8847   -0.4926   -1.4140 H       1  UNL1        0.0429
    187 H          -3.6590   -0.1440    0.3804 H       1  UNL1        0.0429
    188 H          -4.7285    0.7996   -0.6373 H       1  UNL1        0.0429
    189 H          -7.5316   -0.8315    0.6449 H       1  UNL1        0.0597
    190 H          -5.2187    0.6327    1.8267 H       1  UNL1        0.0290
    191 H          -5.9812   -0.9701    2.3639 H       1  UNL1        0.0290
    192 H          -7.3664    1.7598    2.1898 H       1  UNL1        0.0296
    193 H          -9.0857    0.1724    1.7627 H       1  UNL1        0.0232
    194 H          -9.0849    0.5958    3.4918 H       1  UNL1        0.0232
    195 H          -8.4046   -0.9845    3.0478 H       1  UNL1        0.0232
    196 H          -5.8234    1.5857    4.1642 H       1  UNL1        0.0232
    197 H          -6.6280   -0.0295    4.5349 H       1  UNL1        0.0232
    198 H          -7.5930    1.4773    4.5860 H       1  UNL1        0.0232
    199 H          -8.5673    1.9859   -3.0847 H       1  UNL1        0.0429
    200 H          -7.7188    0.4765   -3.0984 H       1  UNL1        0.0429
    201 H          -9.2452    0.7623   -2.0633 H       1  UNL1        0.0429
    202 H          -7.8657    3.5004   -2.3291 H       1  UNL1        0.0599
    203 H          -7.4835    3.7611    0.6587 H       1  UNL1        0.0318
    204 H          -8.4759    6.0334   -0.4295 H       1  UNL1        0.0233
    205 H          -6.7665    5.8091    0.0388 H       1  UNL1        0.0233
    206 H          -7.2050    5.5508   -1.6678 H       1  UNL1        0.0233
    207 H          -9.8629    4.1973    0.4992 H       1  UNL1        0.0233
    208 H          -9.6832    2.7420   -0.6509 H       1  UNL1        0.0233
    209 H          -9.8016    4.4048   -1.2531 H       1  UNL1        0.0233
    210 H          -4.6278    1.8680   -3.9502 H       1  UNL1        0.0429
    211 H          -5.4772    3.3567   -4.6815 H       1  UNL1        0.0429
    212 H          -3.7841    3.2938   -4.4974 H       1  UNL1        0.0429
@<TRIPOS>BOND
     1     1     2    1
     2     2     3    2
     3     3     4    1
     4     4     5    1
     5     5     6    1
     6     5     7    1
     7     7     8    1
     8     7     9    1
     9     9    10    1
    10    10    11    2
    11    10    12   am
    12    12    13    1
    13    13    14    1
    14    14    15    1
    15    13    16    1
    16    16    17    2
    17    16    18   am
    18    18    19    1
    19    18    20    1
    20    20    21    1
    21    21    22    1
    22    22    23    1
    23    23    24    1
    24    24    25    1
    25    24    26    1
    26    20    27    1
    27    27    28    2
    28    27    29   am
    29    29    30    1
    30    29    31    1
    31    31    32    1
    32    32    33    1
    33    33    34    1
    34    33    35    1
    35    33    36    1
    36    31    37    1
    37    37    38    2
    38    37    39   am
    39    39    40    1
    40    40    41    1
    41    41    42    1
    42    41    43    1
    43    40    44    1
    44    44    45    2
    45    44    46   am
    46    46    47    1
    47    46    48    1
    48    48    49    1
    49    49    50    1
    50    50    51    1
    51    50    52    1
    52    48    53    1
    53    53    54    2
    54    53    55   am
    55    55    56    1
    56    56    57    1
    57    56    58    1
    58    58    59    2
    59    58    60   am
    60    60    61    1
    61    61    62    1
    62    61    63    1
    63    63    64    2
    64    63    65   am
    65    65    66    1
    66    65    67    1
    67    67    68    1
    68    68    69    1
    69    69    70    1
    70    69    71    1
    71    67    72    1
    72    72    73    2
    73    72    74   am
    74    74    75    1
    75    74    76    1
    76    76    77    1
    77    77    78    1
    78    78    79    1
    79    78    80    1
    80    76    81    1
    81    81    82    2
    82    81    83   am
    83    83    84    1
    84    83    85    1
    85    85    86    1
    86    86    87    1
    87    86    88    1
    88    85    89    1
    89    89    90    2
    90    89    91   am
    91    91    92    1
    92    91     9    1
    93     1    93    1
    94     1    94    1
    95     1    95    1
    96     2    96    1
    97     3    97    1
    98     4    98    1
    99     4    99    1
   100     5   100    1
   101     6   101    1
   102     6   102    1
   103     6   103    1
   104     7   104    1
   105     8   105    1
   106     9   106    1
   107    12   107    1
   108    13   108    1
   109    14   109    1
   110    14   110    1
   111    15   111    1
   112    15   112    1
   113    15   113    1
   114    19   114    1
   115    19   115    1
   116    19   116    1
   117    20   117    1
   118    22   118    1
   119    22   119    1
   120    23   120    1
   121    23   121    1
   122    25   122    1
   123    25   123    1
   124    25   124    1
   125    26   125    1
   126    26   126    1
   127    26   127    1
   128    30   128    1
   129    30   129    1
   130    30   130    1
   131    31   131    1
   132    32   132    1
   133    32   133    1
   134    34   134    1
   135    34   135    1
   136    34   136    1
   137    35   137    1
   138    35   138    1
   139    35   139    1
   140    36   140    1
   141    39   141    1
   142    40   142    1
   143    41   143    1
   144    42   144    1
   145    42   145    1
   146    42   146    1
   147    43   147    1
   148    43   148    1
   149    43   149    1
   150    47   150    1
   151    47   151    1
   152    47   152    1
   153    48   153    1
   154    49   154    1
   155    49   155    1
   156    50   156    1
   157    51   157    1
   158    51   158    1
   159    51   159    1
   160    52   160    1
   161    52   161    1
   162    52   162    1
   163    55   163    1
   164    56   164    1
   165    57   165    1
   166    57   166    1
   167    57   167    1
   168    60   168    1
   169    61   169    1
   170    62   170    1
   171    62   171    1
   172    62   172    1
   173    66   173    1
   174    66   174    1
   175    66   175    1
   176    67   176    1
   177    68   177    1
   178    68   178    1
   179    69   179    1
   180    70   180    1
   181    70   181    1
   182    70   182    1
   183    71   183    1
   184    71   184    1
   185    71   185    1
   186    75   186    1
   187    75   187    1
   188    75   188    1
   189    76   189    1
   190    77   190    1
   191    77   191    1
   192    78   192    1
   193    79   193    1
   194    79   194    1
   195    79   195    1
   196    80   196    1
   197    80   197    1
   198    80   198    1
   199    84   199    1
   200    84   200    1
   201    84   201    1
   202    85   202    1
   203    86   203    1
   204    87   204    1
   205    87   205    1
   206    87   206    1
   207    88   207    1
   208    88   208    1
   209    88   209    1
   210    92   210    1
   211    92   211    1
   212    92   212    1
