@<TRIPOS>MOLECULE
*****
 27 29 0 0 0
SMALL
GASTEIGER

@<TRIPOS>ATOM
      1 O           2.1001   -1.4634    2.5618 O.2     1  UNL1       -0.2870
      2 C           1.5398   -0.8990    1.5986 C.ar    1  UNL1        0.1931
      3 C           0.1651   -0.8412    1.4515 C.ar    1  UNL1        0.0287
      4 C          -0.4040   -0.2168    0.3877 C.ar    1  UNL1        0.1392
      5 C          -1.8588   -0.1129    0.1607 C.ar    1  UNL1        0.0174
      6 C          -2.7858   -0.6482    1.0207 C.ar    1  UNL1       -0.0511
      7 C          -4.1511   -0.5440    0.7965 C.ar    1  UNL1       -0.0611
      8 C          -4.5821    0.1219   -0.3317 C.ar    1  UNL1       -0.0617
      9 C          -3.6904    0.6684   -1.2117 C.ar    1  UNL1       -0.0611
     10 C          -2.3464    0.5421   -0.9514 C.ar    1  UNL1       -0.0511
     11 O           0.3831    0.3314   -0.4990 O.2     1  UNL1       -0.4546
     12 C           1.7030    0.3178   -0.4278 C.ar    1  UNL1        0.1392
     13 C           2.4690    0.9170   -1.4005 C.ar    1  UNL1       -0.0186
     14 C           3.8419    0.9105   -1.3393 C.ar    1  UNL1       -0.0582
     15 C           4.4637    0.2878   -0.2763 C.ar    1  UNL1       -0.0609
     16 C           3.6823   -0.3176    0.7061 C.ar    1  UNL1       -0.0474
     17 C           2.3172   -0.3048    0.6347 C.ar    1  UNL1        0.0640
     18 H          -0.4494   -1.3007    2.1964 H       1  UNL1        0.0693
     19 H          -2.4397   -1.1704    1.9057 H       1  UNL1        0.0625
     20 H          -4.8742   -0.9790    1.4964 H       1  UNL1        0.0618
     21 H          -5.6463    0.2265   -0.5455 H       1  UNL1        0.0618
     22 H          -3.9757    1.1988   -2.1081 H       1  UNL1        0.0618
     23 H          -1.6226    0.9685   -1.6370 H       1  UNL1        0.0625
     24 H           2.0038    1.4089   -2.2393 H       1  UNL1        0.0654
     25 H           4.4405    1.3962   -2.1286 H       1  UNL1        0.0619
     26 H           5.5355    0.2944   -0.2479 H       1  UNL1        0.0618
     27 H           4.1814   -0.7922    1.5173 H       1  UNL1        0.0626
@<TRIPOS>BOND
     1     1     2    2
     2     2     3   ar
     3     3     4   ar
     4     4     5    1
     5     5     6   ar
     6     6     7   ar
     7     7     8   ar
     8     8     9   ar
     9     9    10   ar
    10     4    11   ar
    11    11    12   ar
    12    12    13   ar
    13    13    14   ar
    14    14    15   ar
    15    15    16   ar
    16    16    17   ar
    17    17     2   ar
    18    10     5   ar
    19    17    12   ar
    20     3    18    1
    21     6    19    1
    22     7    20    1
    23     8    21    1
    24     9    22    1
    25    10    23    1
    26    13    24    1
    27    14    25    1
    28    15    26    1
    29    16    27    1
