
     RDKit          3D

 27 29  0  0  0  0  0  0  0  0999 V2000
    2.1001   -1.4634    2.5618 O   0  0  0  0  0  0  0  0  0  0  0  0
    1.5398   -0.8990    1.5986 C   0  0  0  0  0  0  0  0  0  0  0  0
    0.1651   -0.8412    1.4515 C   0  0  0  0  0  0  0  0  0  0  0  0
   -0.4040   -0.2168    0.3877 C   0  0  0  0  0  0  0  0  0  0  0  0
   -1.8588   -0.1129    0.1607 C   0  0  0  0  0  0  0  0  0  0  0  0
   -2.7858   -0.6482    1.0207 C   0  0  0  0  0  0  0  0  0  0  0  0
   -4.1511   -0.5440    0.7965 C   0  0  0  0  0  0  0  0  0  0  0  0
   -4.5821    0.1219   -0.3317 C   0  0  0  0  0  0  0  0  0  0  0  0
   -3.6904    0.6684   -1.2117 C   0  0  0  0  0  0  0  0  0  0  0  0
   -2.3464    0.5421   -0.9514 C   0  0  0  0  0  0  0  0  0  0  0  0
    0.3831    0.3314   -0.4990 O   0  0  0  0  0  0  0  0  0  0  0  0
    1.7030    0.3178   -0.4278 C   0  0  0  0  0  0  0  0  0  0  0  0
    2.4690    0.9170   -1.4005 C   0  0  0  0  0  0  0  0  0  0  0  0
    3.8419    0.9105   -1.3393 C   0  0  0  0  0  0  0  0  0  0  0  0
    4.4637    0.2878   -0.2763 C   0  0  0  0  0  0  0  0  0  0  0  0
    3.6823   -0.3176    0.7061 C   0  0  0  0  0  0  0  0  0  0  0  0
    2.3172   -0.3048    0.6347 C   0  0  0  0  0  0  0  0  0  0  0  0
   -0.4494   -1.3007    2.1964 H   0  0  0  0  0  0  0  0  0  0  0  0
   -2.4397   -1.1704    1.9057 H   0  0  0  0  0  0  0  0  0  0  0  0
   -4.8742   -0.9790    1.4964 H   0  0  0  0  0  0  0  0  0  0  0  0
   -5.6463    0.2265   -0.5455 H   0  0  0  0  0  0  0  0  0  0  0  0
   -3.9757    1.1988   -2.1081 H   0  0  0  0  0  0  0  0  0  0  0  0
   -1.6226    0.9685   -1.6370 H   0  0  0  0  0  0  0  0  0  0  0  0
    2.0038    1.4089   -2.2393 H   0  0  0  0  0  0  0  0  0  0  0  0
    4.4405    1.3962   -2.1286 H   0  0  0  0  0  0  0  0  0  0  0  0
    5.5355    0.2944   -0.2479 H   0  0  0  0  0  0  0  0  0  0  0  0
    4.1814   -0.7922    1.5173 H   0  0  0  0  0  0  0  0  0  0  0  0
  1  2  2  0
  2  3  1  0
  3  4  2  0
  4  5  1  0
  5  6  2  0
  6  7  1  0
  7  8  2  0
  8  9  1  0
  9 10  2  0
  4 11  1  0
 11 12  1  0
 12 13  2  0
 13 14  1  0
 14 15  2  0
 15 16  1  0
 16 17  2  0
 17  2  1  0
 10  5  1  0
 17 12  1  0
  3 18  1  0
  6 19  1  0
  7 20  1  0
  8 21  1  0
  9 22  1  0
 10 23  1  0
 13 24  1  0
 14 25  1  0
 15 26  1  0
 16 27  1  0
M  END
$$$$
