@<TRIPOS>MOLECULE
*****
 54 58 0 0 0
SMALL
GASTEIGER

@<TRIPOS>ATOM
      1 C           4.5939    2.1941   -1.8501 C.3     1  UNL1       -0.0361
      2 C           4.1237    1.0385   -1.0549 C.ar    1  UNL1       -0.0041
      3 C           2.7551    0.7793   -1.0603 C.ar    1  UNL1       -0.0324
      4 C           2.2135   -0.2704   -0.3546 C.ar    1  UNL1        0.0545
      5 N           0.8132   -0.5117   -0.3773 N.am    1  UNL1       -0.2530
      6 C           0.2158   -1.3631   -1.3658 C.2     1  UNL1        0.2721
      7 O           0.7959   -1.9615   -2.3023 O.2     1  UNL1       -0.2679
      8 C          -1.2360   -1.4253   -1.0974 C.ar    1  UNL1        0.1531
      9 N          -2.4136   -1.9365   -1.4804 N.ar    1  UNL1       -0.1657
     10 N          -3.3835   -1.5228   -0.6892 N.ar    1  UNL1       -0.2650
     11 C          -4.8035   -1.8851   -0.8140 C.3     1  UNL1        0.0474
     12 C          -5.1345   -3.0235    0.1112 C.3     1  UNL1       -0.0429
     13 C          -5.6869   -0.6947   -0.6386 C.3     1  UNL1       -0.0429
     14 C          -2.8499   -0.7291    0.2292 C.ar    1  UNL1        0.0425
     15 C          -3.5824   -0.0367    1.3308 C.3     1  UNL1       -0.0223
     16 C          -1.4921   -0.6420    0.0043 C.ar    1  UNL1        0.0306
     17 C          -0.2243   -0.0364    0.4761 C.3     1  UNL1        0.0881
     18 C          -0.3647    1.4216    0.5642 C.ar    1  UNL1        0.0132
     19 C          -0.3212    2.0754    1.7977 C.ar    1  UNL1       -0.0510
     20 C          -0.4429    3.4360    1.9297 C.ar    1  UNL1       -0.0259
     21 C          -0.6181    4.2152    0.7959 C.ar    1  UNL1        0.1261
     22 F          -0.7417    5.5743    0.9053 F       1  UNL1       -0.2054
     23 C          -0.6618    3.5749   -0.4229 C.ar    1  UNL1        0.0091
     24 C          -0.5392    2.2024   -0.5576 C.ar    1  UNL1        0.1314
     25 F          -0.5923    1.5994   -1.7807 F       1  UNL1       -0.2050
     26 C           3.1051   -1.0619    0.3667 C.ar    1  UNL1        0.0344
     27 N           4.4188   -0.8203    0.3774 N.ar    1  UNL1       -0.2846
     28 C           5.4388   -1.4403    0.9894 C.ar    1  UNL1        0.1347
     29 C           5.2689   -2.6340    1.8564 C.3     1  UNL1       -0.0041
     30 N           6.5658   -0.7796    0.6597 N.ar    1  UNL1       -0.1340
     31 N           6.2696    0.2417   -0.1468 N.ar    1  UNL1       -0.1292
     32 C           4.9371    0.2095   -0.3168 C.ar    1  UNL1        0.1641
     33 H           4.4745    3.0986   -1.1862 H       1  UNL1        0.0279
     34 H           3.9504    2.2709   -2.7502 H       1  UNL1        0.0279
     35 H           5.6632    2.0459   -2.1166 H       1  UNL1        0.0279
     36 H           2.0801    1.4129   -1.6324 H       1  UNL1        0.0640
     37 H          -4.9612   -2.2702   -1.8641 H       1  UNL1        0.0539
     38 H          -4.4042   -3.0494    0.9472 H       1  UNL1        0.0250
     39 H          -6.1361   -2.9142    0.5798 H       1  UNL1        0.0250
     40 H          -5.0406   -4.0064   -0.4194 H       1  UNL1        0.0250
     41 H          -6.6155   -0.8680   -1.2524 H       1  UNL1        0.0250
     42 H          -6.0515   -0.5461    0.3970 H       1  UNL1        0.0250
     43 H          -5.2158    0.2032   -1.0733 H       1  UNL1        0.0250
     44 H          -4.1563    0.8291    0.9871 H       1  UNL1        0.0292
     45 H          -2.8422    0.3539    2.0776 H       1  UNL1        0.0292
     46 H          -4.1673   -0.8036    1.8613 H       1  UNL1        0.0292
     47 H          -0.0012   -0.4472    1.5056 H       1  UNL1        0.0607
     48 H          -0.1857    1.5013    2.7070 H       1  UNL1        0.0623
     49 H          -0.4117    3.9586    2.8727 H       1  UNL1        0.0646
     50 H          -0.7968    4.1610   -1.3115 H       1  UNL1        0.0675
     51 H           2.6866   -1.8962    0.9294 H       1  UNL1        0.0833
     52 H           4.3360   -3.1735    1.5917 H       1  UNL1        0.0308
     53 H           5.2471   -2.3046    2.9211 H       1  UNL1        0.0308
     54 H           6.1218   -3.3433    1.7630 H       1  UNL1        0.0308
@<TRIPOS>BOND
     1     1     2    1
     2     2     3   ar
     3     3     4   ar
     4     4     5    1
     5     5     6   am
     6     6     7    2
     7     6     8    1
     8     8     9   ar
     9     9    10   ar
    10    10    11    1
    11    11    12    1
    12    11    13    1
    13    10    14   ar
    14    14    15    1
    15    14    16   ar
    16    16    17    1
    17    17    18    1
    18    18    19   ar
    19    19    20   ar
    20    20    21   ar
    21    21    22    1
    22    21    23   ar
    23    23    24   ar
    24    24    25    1
    25     4    26   ar
    26    26    27   ar
    27    27    28   ar
    28    28    29    1
    29    28    30   ar
    30    30    31   ar
    31    31    32   ar
    32    32     2   ar
    33    17     5    1
    34    24    18   ar
    35    32    27   ar
    36    16     8   ar
    37     1    33    1
    38     1    34    1
    39     1    35    1
    40     3    36    1
    41    11    37    1
    42    12    38    1
    43    12    39    1
    44    12    40    1
    45    13    41    1
    46    13    42    1
    47    13    43    1
    48    15    44    1
    49    15    45    1
    50    15    46    1
    51    17    47    1
    52    19    48    1
    53    20    49    1
    54    23    50    1
    55    26    51    1
    56    29    52    1
    57    29    53    1
    58    29    54    1
