
     RDKit          3D

 54 58  0  0  0  0  0  0  0  0999 V2000
    4.5939    2.1941   -1.8501 C   0  0  0  0  0  0  0  0  0  0  0  0
    4.1237    1.0385   -1.0549 C   0  0  0  0  0  0  0  0  0  0  0  0
    2.7551    0.7793   -1.0603 C   0  0  0  0  0  0  0  0  0  0  0  0
    2.2135   -0.2704   -0.3546 C   0  0  0  0  0  0  0  0  0  0  0  0
    0.8132   -0.5117   -0.3773 N   0  0  0  0  0  0  0  0  0  0  0  0
    0.2158   -1.3631   -1.3658 C   0  0  0  0  0  0  0  0  0  0  0  0
    0.7959   -1.9615   -2.3023 O   0  0  0  0  0  0  0  0  0  0  0  0
   -1.2360   -1.4253   -1.0974 C   0  0  0  0  0  0  0  0  0  0  0  0
   -2.4136   -1.9365   -1.4804 N   0  0  0  0  0  0  0  0  0  0  0  0
   -3.3835   -1.5228   -0.6892 N   0  0  0  0  0  0  0  0  0  0  0  0
   -4.8035   -1.8851   -0.8140 C   0  0  0  0  0  0  0  0  0  0  0  0
   -5.1345   -3.0235    0.1112 C   0  0  0  0  0  0  0  0  0  0  0  0
   -5.6869   -0.6947   -0.6386 C   0  0  0  0  0  0  0  0  0  0  0  0
   -2.8499   -0.7291    0.2292 C   0  0  0  0  0  0  0  0  0  0  0  0
   -3.5824   -0.0367    1.3308 C   0  0  0  0  0  0  0  0  0  0  0  0
   -1.4921   -0.6420    0.0043 C   0  0  0  0  0  0  0  0  0  0  0  0
   -0.2243   -0.0364    0.4761 C   0  0  0  0  0  0  0  0  0  0  0  0
   -0.3647    1.4216    0.5642 C   0  0  0  0  0  0  0  0  0  0  0  0
   -0.3212    2.0754    1.7977 C   0  0  0  0  0  0  0  0  0  0  0  0
   -0.4429    3.4360    1.9297 C   0  0  0  0  0  0  0  0  0  0  0  0
   -0.6181    4.2152    0.7959 C   0  0  0  0  0  0  0  0  0  0  0  0
   -0.7417    5.5743    0.9053 F   0  0  0  0  0  0  0  0  0  0  0  0
   -0.6618    3.5749   -0.4229 C   0  0  0  0  0  0  0  0  0  0  0  0
   -0.5392    2.2024   -0.5576 C   0  0  0  0  0  0  0  0  0  0  0  0
   -0.5923    1.5994   -1.7807 F   0  0  0  0  0  0  0  0  0  0  0  0
    3.1051   -1.0619    0.3667 C   0  0  0  0  0  0  0  0  0  0  0  0
    4.4188   -0.8203    0.3774 N   0  0  0  0  0  0  0  0  0  0  0  0
    5.4388   -1.4403    0.9894 C   0  0  0  0  0  0  0  0  0  0  0  0
    5.2689   -2.6340    1.8564 C   0  0  0  0  0  0  0  0  0  0  0  0
    6.5658   -0.7796    0.6597 N   0  0  0  0  0  0  0  0  0  0  0  0
    6.2696    0.2417   -0.1468 N   0  0  0  0  0  0  0  0  0  0  0  0
    4.9371    0.2095   -0.3168 C   0  0  0  0  0  0  0  0  0  0  0  0
    4.4745    3.0986   -1.1862 H   0  0  0  0  0  0  0  0  0  0  0  0
    3.9504    2.2709   -2.7502 H   0  0  0  0  0  0  0  0  0  0  0  0
    5.6632    2.0459   -2.1166 H   0  0  0  0  0  0  0  0  0  0  0  0
    2.0801    1.4129   -1.6324 H   0  0  0  0  0  0  0  0  0  0  0  0
   -4.9612   -2.2702   -1.8641 H   0  0  0  0  0  0  0  0  0  0  0  0
   -4.4042   -3.0494    0.9472 H   0  0  0  0  0  0  0  0  0  0  0  0
   -6.1361   -2.9142    0.5798 H   0  0  0  0  0  0  0  0  0  0  0  0
   -5.0406   -4.0064   -0.4194 H   0  0  0  0  0  0  0  0  0  0  0  0
   -6.6155   -0.8680   -1.2524 H   0  0  0  0  0  0  0  0  0  0  0  0
   -6.0515   -0.5461    0.3970 H   0  0  0  0  0  0  0  0  0  0  0  0
   -5.2158    0.2032   -1.0733 H   0  0  0  0  0  0  0  0  0  0  0  0
   -4.1563    0.8291    0.9871 H   0  0  0  0  0  0  0  0  0  0  0  0
   -2.8422    0.3539    2.0776 H   0  0  0  0  0  0  0  0  0  0  0  0
   -4.1673   -0.8036    1.8613 H   0  0  0  0  0  0  0  0  0  0  0  0
   -0.0012   -0.4472    1.5056 H   0  0  0  0  0  0  0  0  0  0  0  0
   -0.1857    1.5013    2.7070 H   0  0  0  0  0  0  0  0  0  0  0  0
   -0.4117    3.9586    2.8727 H   0  0  0  0  0  0  0  0  0  0  0  0
   -0.7968    4.1610   -1.3115 H   0  0  0  0  0  0  0  0  0  0  0  0
    2.6866   -1.8962    0.9294 H   0  0  0  0  0  0  0  0  0  0  0  0
    4.3360   -3.1735    1.5917 H   0  0  0  0  0  0  0  0  0  0  0  0
    5.2471   -2.3046    2.9211 H   0  0  0  0  0  0  0  0  0  0  0  0
    6.1218   -3.3433    1.7630 H   0  0  0  0  0  0  0  0  0  0  0  0
  1  2  1  0
  2  3  2  0
  3  4  1  0
  4  5  1  0
  5  6  1  0
  6  7  2  0
  6  8  1  0
  8  9  2  0
  9 10  1  0
 10 11  1  0
 11 12  1  0
 11 13  1  0
 10 14  1  0
 14 15  1  0
 14 16  2  0
 16 17  1  0
 17 18  1  0
 18 19  2  0
 19 20  1  0
 20 21  2  0
 21 22  1  0
 21 23  1  0
 23 24  2  0
 24 25  1  0
  4 26  2  0
 26 27  1  0
 27 28  1  0
 28 29  1  0
 28 30  2  0
 30 31  1  0
 31 32  2  0
 32  2  1  0
 17  5  1  0
 24 18  1  0
 32 27  1  0
 16  8  1  0
  1 33  1  0
  1 34  1  0
  1 35  1  0
  3 36  1  0
 11 37  1  0
 12 38  1  0
 12 39  1  0
 12 40  1  0
 13 41  1  0
 13 42  1  0
 13 43  1  0
 15 44  1  0
 15 45  1  0
 15 46  1  0
 17 47  1  0
 19 48  1  0
 20 49  1  0
 23 50  1  0
 26 51  1  0
 29 52  1  0
 29 53  1  0
 29 54  1  0
M  END
$$$$
