@<TRIPOS>MOLECULE
*****
 28 27 0 0 0
SMALL
GASTEIGER

@<TRIPOS>ATOM
      1 N          -2.5289    0.6024   -0.9438 N.3     1  UNL1       -0.3199
      2 C          -1.6898   -0.4132   -0.3247 C.3     1  UNL1        0.0822
      3 C          -0.7015    0.2724    0.5646 C.3     1  UNL1       -0.0264
      4 C           0.1371    1.2104   -0.2635 C.3     1  UNL1       -0.0204
      5 C           0.8982    0.4990   -1.3450 C.3     1  UNL1        0.0646
      6 N           1.8052   -0.5045   -0.8260 N.pl3   1  UNL1       -0.2787
      7 C           2.8632   -0.1879    0.0598 C.cat   1  UNL1        0.3410
      8 N           3.7957   -1.0957    0.6170 N.pl3   1  UNL1       -0.2919
      9 N           3.0950    1.0133    0.4672 N.pl3   1  UNL1       -0.2919
     10 C          -2.5512   -1.2718    0.5372 C.2     1  UNL1        0.2273
     11 N          -3.9543   -1.0367    0.6548 N.am    1  UNL1       -0.3280
     12 O          -2.3086   -2.2769    1.2762 O.2     1  UNL1       -0.2743
     13 H          -2.4923    1.4690   -0.3709 H       1  UNL1        0.1189
     14 H          -3.4973    0.2103   -1.0080 H       1  UNL1        0.1189
     15 H          -1.2166   -1.0317   -1.0961 H       1  UNL1        0.0554
     16 H          -1.2648    0.8820    1.2968 H       1  UNL1        0.0286
     17 H          -0.0626   -0.4932    1.0418 H       1  UNL1        0.0286
     18 H          -0.5450    1.9419   -0.7512 H       1  UNL1        0.0296
     19 H           0.8298    1.7184    0.4243 H       1  UNL1        0.0296
     20 H           0.1987    0.0434   -2.0708 H       1  UNL1        0.0655
     21 H           1.4580    1.2708   -1.9424 H       1  UNL1        0.0655
     22 H           1.8052   -1.5404   -1.0214 H       1  UNL1        0.2578
     23 H           3.8234   -1.6116    1.5291 H       1  UNL1        0.2545
     24 H           4.7033   -1.5261    0.3294 H       1  UNL1        0.2545
     25 H           3.6856    1.6418    1.0469 H       1  UNL1        0.2545
     26 H           3.2064    2.0234    0.7446 H       1  UNL1        0.2545
     27 H          -4.8665   -0.8814    0.1602 H       1  UNL1        0.1450
     28 H          -4.6255   -0.9274    1.4328 H       1  UNL1        0.1450
@<TRIPOS>UNITY_ATOM_ATTR
9 1
charge 1
@<TRIPOS>BOND
     1     1     2    1
     2     2     3    1
     3     3     4    1
     4     4     5    1
     5     5     6    1
     6     6     7    1
     7     7     8    1
     8     7     9    2
     9     2    10    1
    10    10    11   am
    11    10    12    2
    12     1    13    1
    13     1    14    1
    14     2    15    1
    15     3    16    1
    16     3    17    1
    17     4    18    1
    18     4    19    1
    19     5    20    1
    20     5    21    1
    21     6    22    1
    22     8    23    1
    23     8    24    1
    24     9    25    1
    25     9    26    1
    26    11    27    1
    27    11    28    1
