@<TRIPOS>MOLECULE
*****
 44 46 0 0 0
SMALL
GASTEIGER

@<TRIPOS>ATOM
      1 C           0.4577   -2.1260   -1.5933 C.3     1  UNL1       -0.0363
      2 C           1.2059   -0.9854   -0.9446 C.ar    1  UNL1       -0.0069
      3 C           2.5340   -1.2130   -0.7171 C.ar    1  UNL1       -0.0277
      4 C           3.2035   -0.1768   -0.1259 C.ar    1  UNL1        0.0937
      5 N           2.5089    0.9180    0.1590 N.ar    1  UNL1       -0.1475
      6 N           1.2442    1.0907   -0.0761 N.ar    1  UNL1       -0.1336
      7 C           0.4715    0.1616   -0.6483 C.ar    1  UNL1        0.1442
      8 N          -0.9382    0.3304   -0.9222 N.pl3   1  UNL1       -0.3262
      9 C          -1.3924    1.6229   -0.4965 C.3     1  UNL1        0.0232
     10 C          -2.8422    1.8265   -0.6637 C.3     1  UNL1        0.0146
     11 N          -3.7457    0.9926    0.0741 N.3     1  UNL1       -0.2965
     12 C          -5.0738    1.5459   -0.1614 C.3     1  UNL1        0.0225
     13 C          -6.1696    0.7389    0.4415 C.3     1  UNL1        0.0604
     14 O          -6.1128   -0.5331   -0.1079 O.3     1  UNL1       -0.3772
     15 C          -4.9177   -1.1742    0.1544 C.3     1  UNL1        0.0604
     16 C          -3.6892   -0.3990   -0.2267 C.3     1  UNL1        0.0225
     17 C           4.6238   -0.2409    0.1937 C.ar    1  UNL1        0.0021
     18 C           5.4473   -1.3105   -0.0507 C.ar    1  UNL1       -0.0525
     19 C           6.7807   -1.3732    0.2477 C.ar    1  UNL1       -0.0611
     20 C           7.3808   -0.2907    0.8437 C.ar    1  UNL1       -0.0617
     21 C           6.5874    0.8349    1.1189 C.ar    1  UNL1       -0.0611
     22 C           5.2474    0.8358    0.7933 C.ar    1  UNL1       -0.0525
     23 H           1.0672   -3.0141   -1.7294 H       1  UNL1        0.0279
     24 H          -0.3790   -2.3365   -0.8592 H       1  UNL1        0.0279
     25 H          -0.0356   -1.7551   -2.5226 H       1  UNL1        0.0279
     26 H           3.0153   -2.1236   -0.9764 H       1  UNL1        0.0643
     27 H          -1.2622   -0.5366   -1.3749 H       1  UNL1        0.1476
     28 H          -0.7911    2.3646   -1.1213 H       1  UNL1        0.0474
     29 H          -1.0354    1.8161    0.5480 H       1  UNL1        0.0474
     30 H          -3.0404    2.9187   -0.4204 H       1  UNL1        0.0442
     31 H          -3.1326    1.7851   -1.7681 H       1  UNL1        0.0442
     32 H          -5.0739    2.5854    0.2186 H       1  UNL1        0.0449
     33 H          -5.2136    1.5967   -1.2585 H       1  UNL1        0.0449
     34 H          -6.2057    0.7707    1.5401 H       1  UNL1        0.0572
     35 H          -7.1286    1.1876    0.0825 H       1  UNL1        0.0572
     36 H          -4.9417   -2.1169   -0.4474 H       1  UNL1        0.0572
     37 H          -4.9198   -1.4858    1.2159 H       1  UNL1        0.0572
     38 H          -3.5333   -0.4899   -1.3154 H       1  UNL1        0.0449
     39 H          -2.8433   -0.8576    0.2937 H       1  UNL1        0.0449
     40 H           5.0063   -2.1896   -0.5237 H       1  UNL1        0.0624
     41 H           7.3835   -2.2359    0.0350 H       1  UNL1        0.0618
     42 H           8.4297   -0.3241    1.0854 H       1  UNL1        0.0618
     43 H           7.1400    1.6365    1.5876 H       1  UNL1        0.0618
     44 H           4.6828    1.7287    1.0270 H       1  UNL1        0.0624
@<TRIPOS>BOND
     1     1     2    1
     2     2     3   ar
     3     3     4   ar
     4     4     5   ar
     5     5     6   ar
     6     6     7   ar
     7     7     8    1
     8     8     9    1
     9     9    10    1
    10    10    11    1
    11    11    12    1
    12    12    13    1
    13    13    14    1
    14    14    15    1
    15    15    16    1
    16     4    17    1
    17    17    18   ar
    18    18    19   ar
    19    19    20   ar
    20    20    21   ar
    21    21    22   ar
    22     7     2   ar
    23    16    11    1
    24    22    17   ar
    25     1    23    1
    26     1    24    1
    27     1    25    1
    28     3    26    1
    29     8    27    1
    30     9    28    1
    31     9    29    1
    32    10    30    1
    33    10    31    1
    34    12    32    1
    35    12    33    1
    36    13    34    1
    37    13    35    1
    38    15    36    1
    39    15    37    1
    40    16    38    1
    41    16    39    1
    42    18    40    1
    43    19    41    1
    44    20    42    1
    45    21    43    1
    46    22    44    1
