
     RDKit          3D

 45 48  0  0  0  0  0  0  0  0999 V2000
    8.1711    3.6691   -0.4447 Cl  0  0  0  0  0  0  0  0  0  0  0  0
    6.8854    2.3230   -0.4385 C   0  0  0  0  0  0  0  0  0  0  0  0
    5.9580    2.1573   -1.6023 C   0  0  0  0  0  0  0  0  0  0  0  0
    5.0811    1.1322   -1.4429 C   0  0  0  0  0  0  0  0  0  0  0  0
    5.0779    0.3726   -0.3456 C   0  0  0  0  0  0  0  0  0  0  0  0
    6.3835    0.9622    0.7758 S   0  0  0  0  0  0  0  0  0  0  0  0
    4.2514   -0.7417    0.0187 C   0  0  0  0  0  0  0  0  0  0  0  0
    3.3279   -1.1144   -0.8409 C   0  0  0  0  0  0  0  0  0  0  0  0
    2.2701   -2.4522   -0.5030 S   0  0  0  0  0  0  0  0  0  0  0  0
    2.9184   -3.2819    0.5954 O   0  0  0  0  0  0  0  0  0  0  0  0
    2.0768   -3.2627   -1.7289 O   0  0  0  0  0  0  0  0  0  0  0  0
    0.7613   -1.9048    0.1550 N   0  0  0  0  0  0  0  0  0  0  0  0
    0.1315   -1.0741   -0.8206 C   0  0  0  0  0  0  0  0  0  0  0  0
    0.3545    0.3769   -0.4534 C   0  0  0  0  0  0  0  0  0  0  0  0
   -0.4679    0.5868    0.7358 N   0  0  0  0  0  0  0  0  0  0  0  0
   -1.5286    1.5640    0.8622 C   0  0  0  0  0  0  0  0  0  0  0  0
   -2.8447    1.0164    0.4467 C   0  0  0  0  0  0  0  0  0  0  0  0
   -3.5172    0.9719   -0.7613 C   0  0  0  0  0  0  0  0  0  0  0  0
   -4.7370    0.3332   -0.5935 C   0  0  0  0  0  0  0  0  0  0  0  0
   -4.7872   -0.0081    0.7454 C   0  0  0  0  0  0  0  0  0  0  0  0
   -3.6520    0.4036    1.3613 N   0  0  0  0  0  0  0  0  0  0  0  0
   -5.9164   -0.6672    1.1870 C   0  0  0  0  0  0  0  0  0  0  0  0
   -6.9105   -0.9386    0.2699 C   0  0  0  0  0  0  0  0  0  0  0  0
   -6.8071   -0.5822   -1.0220 N   0  0  0  0  0  0  0  0  0  0  0  0
   -5.7305    0.0620   -1.5102 C   0  0  0  0  0  0  0  0  0  0  0  0
   -0.1052   -0.3016    1.7956 C   0  0  0  0  0  0  0  0  0  0  0  0
   -0.6416   -0.1708    2.9315 O   0  0  0  0  0  0  0  0  0  0  0  0
    0.9108   -1.3430    1.4577 C   0  0  0  0  0  0  0  0  0  0  0  0
    6.0804    2.8451   -2.4147 H   0  0  0  0  0  0  0  0  0  0  0  0
    4.3769    0.9460   -2.2391 H   0  0  0  0  0  0  0  0  0  0  0  0
    4.3715   -1.2612    0.9552 H   0  0  0  0  0  0  0  0  0  0  0  0
    3.1722   -0.6245   -1.7883 H   0  0  0  0  0  0  0  0  0  0  0  0
   -0.9827   -1.2441   -0.7988 H   0  0  0  0  0  0  0  0  0  0  0  0
    0.4924   -1.3384   -1.8327 H   0  0  0  0  0  0  0  0  0  0  0  0
    0.1865    1.0889   -1.2527 H   0  0  0  0  0  0  0  0  0  0  0  0
    1.4153    0.4541   -0.1018 H   0  0  0  0  0  0  0  0  0  0  0  0
   -1.2863    2.3939    0.1769 H   0  0  0  0  0  0  0  0  0  0  0  0
   -1.5920    1.9972    1.8665 H   0  0  0  0  0  0  0  0  0  0  0  0
   -3.0642    1.4030   -1.6434 H   0  0  0  0  0  0  0  0  0  0  0  0
   -3.4757    0.2499    2.3776 H   0  0  0  0  0  0  0  0  0  0  0  0
   -6.0139   -0.9603    2.2235 H   0  0  0  0  0  0  0  0  0  0  0  0
   -7.7763   -1.4584    0.6693 H   0  0  0  0  0  0  0  0  0  0  0  0
   -5.6128    0.3623   -2.5353 H   0  0  0  0  0  0  0  0  0  0  0  0
    1.9088   -0.8429    1.4958 H   0  0  0  0  0  0  0  0  0  0  0  0
    0.8859   -2.0983    2.2718 H   0  0  0  0  0  0  0  0  0  0  0  0
  1  2  1  0
  2  3  2  0
  3  4  1  0
  4  5  2  0
  5  6  1  0
  5  7  1  0
  7  8  2  0
  8  9  1  0
  9 10  2  0
  9 11  2  0
  9 12  1  0
 12 13  1  0
 13 14  1  0
 14 15  1  0
 15 16  1  0
 16 17  1  0
 17 18  2  0
 18 19  1  0
 19 20  2  0
 20 21  1  0
 20 22  1  0
 22 23  2  0
 23 24  1  0
 24 25  2  0
 15 26  1  0
 26 27  2  0
 26 28  1  0
  6  2  1  0
 28 12  1  0
 21 17  1  0
 25 19  1  0
  3 29  1  0
  4 30  1  0
  7 31  1  0
  8 32  1  0
 13 33  1  0
 13 34  1  0
 14 35  1  0
 14 36  1  0
 16 37  1  0
 16 38  1  0
 18 39  1  0
 21 40  1  0
 22 41  1  0
 23 42  1  0
 25 43  1  0
 28 44  1  0
 28 45  1  0
M  END
$$$$
