@<TRIPOS>MOLECULE
*****
 29 30 0 0 0
SMALL
GASTEIGER

@<TRIPOS>ATOM
      1 O           6.0099    1.0561   -0.0810 O.3     1  UNL1       -0.5068
      2 C           4.6362    0.8476   -0.0526 C.ar    1  UNL1        0.1169
      3 C           3.8418    1.9859    0.0829 C.ar    1  UNL1       -0.0196
      4 C           2.4741    1.8445    0.1174 C.ar    1  UNL1       -0.0511
      5 C           1.8717    0.6060    0.0215 C.ar    1  UNL1       -0.0248
      6 C           0.4084    0.4985    0.0626 C.2     1  UNL1       -0.0540
      7 C          -0.2580   -0.6262   -0.0203 C.2     1  UNL1       -0.0538
      8 C          -1.6942   -0.6516    0.0276 C.ar    1  UNL1       -0.0181
      9 C          -2.3601   -1.8656   -0.0637 C.ar    1  UNL1       -0.0128
     10 C          -3.7322   -1.9750   -0.0260 C.ar    1  UNL1        0.1209
     11 O          -4.3734   -3.2017   -0.1194 O.3     1  UNL1       -0.5066
     12 C          -4.4753   -0.8122    0.1100 C.ar    1  UNL1        0.0213
     13 C          -3.8520    0.4148    0.2040 C.ar    1  UNL1        0.1209
     14 O          -4.6464    1.5376    0.3380 O.3     1  UNL1       -0.5066
     15 C          -2.4519    0.4756    0.1607 C.ar    1  UNL1       -0.0128
     16 C           2.6536   -0.5188   -0.1123 C.ar    1  UNL1       -0.0511
     17 C           4.0457   -0.3842   -0.1484 C.ar    1  UNL1       -0.0196
     18 H           6.4456    1.5704   -0.8441 H       1  UNL1        0.2921
     19 H           4.3084    2.9680    0.1594 H       1  UNL1        0.0654
     20 H           1.8669    2.7226    0.2217 H       1  UNL1        0.0625
     21 H          -0.1132    1.4392    0.1698 H       1  UNL1        0.0624
     22 H           0.3083   -1.5594   -0.1284 H       1  UNL1        0.0624
     23 H          -1.7523   -2.7609   -0.1696 H       1  UNL1        0.0660
     24 H          -4.3292   -3.8554    0.6767 H       1  UNL1        0.2921
     25 H          -5.5640   -0.9059    0.1393 H       1  UNL1        0.0691
     26 H          -4.1976    2.4379    0.2751 H       1  UNL1        0.2921
     27 H          -2.0473    1.4714    0.2406 H       1  UNL1        0.0660
     28 H           2.2835   -1.5072   -0.1928 H       1  UNL1        0.0625
     29 H           4.6930   -1.2523   -0.2531 H       1  UNL1        0.0654
@<TRIPOS>BOND
     1     1     2    1
     2     2     3   ar
     3     3     4   ar
     4     4     5   ar
     5     5     6    1
     6     6     7    2
     7     7     8    1
     8     8     9   ar
     9     9    10   ar
    10    10    11    1
    11    10    12   ar
    12    12    13   ar
    13    13    14    1
    14    13    15   ar
    15     5    16   ar
    16    16    17   ar
    17    17     2   ar
    18    15     8   ar
    19     1    18    1
    20     3    19    1
    21     4    20    1
    22     6    21    1
    23     7    22    1
    24     9    23    1
    25    11    24    1
    26    12    25    1
    27    14    26    1
    28    15    27    1
    29    16    28    1
    30    17    29    1
