@<TRIPOS>MOLECULE
*****
 34 35 0 0 0
SMALL
GASTEIGER

@<TRIPOS>ATOM
      1 N           5.6690    1.9721   -0.4937 N.3     1  UNL1       -0.2035
      2 S           5.4205    0.3123   -0.0951 S.O2    1  UNL1        0.0559
      3 O           6.1603   -0.5400   -1.0810 O.2     1  UNL1       -0.1533
      4 O           6.0740    0.0783    1.2575 O.2     1  UNL1       -0.1533
      5 C           3.7329   -0.0676   -0.0221 C.ar    1  UNL1        0.1050
      6 C           3.0695    0.0651    1.1833 C.ar    1  UNL1       -0.0346
      7 C           1.7223   -0.2148    1.3350 C.ar    1  UNL1       -0.0478
      8 C           1.0015   -0.6397    0.2659 C.ar    1  UNL1        0.0368
      9 C           1.6715   -0.7695   -0.9333 C.ar    1  UNL1       -0.0478
     10 C           3.0107   -0.4948   -1.0991 C.ar    1  UNL1       -0.0346
     11 C          -0.4366   -0.9732    0.2787 C.2     1  UNL1        0.2443
     12 O          -1.0279   -1.3698   -0.7843 O.2     1  UNL1       -0.2702
     13 N          -1.1956   -0.8569    1.4884 N.am    1  UNL1       -0.3071
     14 C          -2.5620   -1.2172    1.3060 C.3     1  UNL1        0.0399
     15 C          -3.3143   -0.4008    0.3492 C.ar    1  UNL1        0.0077
     16 C          -2.7216    0.7302   -0.1454 C.ar    1  UNL1       -0.0542
     17 C          -3.4135    1.5325   -1.0516 C.ar    1  UNL1       -0.0586
     18 C          -4.6994    1.1217   -1.4063 C.ar    1  UNL1       -0.0236
     19 C          -5.3296   -0.0093   -0.9305 C.ar    1  UNL1        0.1587
     20 F          -6.5781   -0.3292   -1.3318 F       1  UNL1       -0.2025
     21 C          -4.5932   -0.7668   -0.0335 C.ar    1  UNL1        0.1630
     22 F          -5.1655   -1.8900    0.4654 F       1  UNL1       -0.2021
     23 H           5.7042    2.1456   -1.5109 H       1  UNL1        0.1442
     24 H           4.9207    2.5831   -0.0506 H       1  UNL1        0.1442
     25 H           3.6316    0.4071    2.0629 H       1  UNL1        0.0637
     26 H           1.2154   -0.1086    2.2771 H       1  UNL1        0.0626
     27 H           1.1254   -1.1112   -1.8249 H       1  UNL1        0.0626
     28 H           3.5183   -0.6061   -2.0632 H       1  UNL1        0.0637
     29 H          -0.7675   -0.5407    2.3863 H       1  UNL1        0.1493
     30 H          -2.7402   -2.2750    1.0316 H       1  UNL1        0.0513
     31 H          -3.0645   -1.0740    2.2926 H       1  UNL1        0.0513
     32 H          -1.7460    1.1149    0.0780 H       1  UNL1        0.0622
     33 H          -3.0314    2.4532   -1.5046 H       1  UNL1        0.0619
     34 H          -5.2612    1.7390   -2.1183 H       1  UNL1        0.0647
@<TRIPOS>BOND
     1     1     2    1
     2     2     3    2
     3     2     4    2
     4     2     5    1
     5     5     6   ar
     6     6     7   ar
     7     7     8   ar
     8     8     9   ar
     9     9    10   ar
    10     8    11    1
    11    11    12    2
    12    11    13   am
    13    13    14    1
    14    14    15    1
    15    15    16   ar
    16    16    17   ar
    17    17    18   ar
    18    18    19   ar
    19    19    20    1
    20    19    21   ar
    21    21    22    1
    22    10     5   ar
    23    21    15   ar
    24     1    23    1
    25     1    24    1
    26     6    25    1
    27     7    26    1
    28     9    27    1
    29    10    28    1
    30    13    29    1
    31    14    30    1
    32    14    31    1
    33    16    32    1
    34    17    33    1
    35    18    34    1
