@<TRIPOS>MOLECULE
*****
 74 78 0 0 0
SMALL
GASTEIGER

@<TRIPOS>ATOM
      1 C           3.5341   -1.4099    0.9470 C.3     1  UNL1        0.0178
      2 C           2.2046   -0.9815    0.3598 C.3     1  UNL1        0.0646
      3 O           1.9393   -1.5278   -0.8713 O.3     1  UNL1       -0.2860
      4 P           0.4599   -1.0590   -1.5297 P.3     1  UNL1        0.4834
      5 O          -0.8432   -1.6417   -0.6629 O.3     1  UNL1       -0.3022
      6 O           0.3917   -1.6983   -2.9181 O.2     1  UNL1       -0.2269
      7 O           0.3289    0.5924   -1.7538 O.3     1  UNL1       -0.1861
      8 P          -1.1429    1.2369   -1.2582 P.3     1  UNL1        0.4835
      9 O          -1.6647    2.3014   -2.4900 O.3     1  UNL1       -0.3022
     10 O          -1.0224    1.9815    0.0511 O.2     1  UNL1       -0.2269
     11 O          -2.2315   -0.0511   -1.1624 O.3     1  UNL1       -0.2837
     12 C          -3.1528    0.1135   -0.1458 C.3     1  UNL1        0.0879
     13 C          -4.0897   -1.0515   -0.1059 C.3     1  UNL1        0.1134
     14 O          -5.0520   -0.9772    0.8830 O.3     1  UNL1       -0.3456
     15 C          -6.1746   -1.6427    0.4505 C.3     1  UNL1        0.1667
     16 N          -7.2379   -0.6660    0.2675 N.ar    1  UNL1       -0.2855
     17 C          -8.3504   -0.9365   -0.4401 C.ar    1  UNL1        0.1004
     18 N          -9.1878    0.1226   -0.4684 N.ar    1  UNL1       -0.2306
     19 C          -8.5915    1.0973    0.2421 C.ar    1  UNL1        0.1473
     20 C          -8.8661    2.4003    0.6144 C.ar    1  UNL1        0.1472
     21 N         -10.0997    2.9631    0.1745 N.pl3   1  UNL1       -0.3413
     22 N          -8.0053    3.1151    1.3638 N.ar    1  UNL1       -0.2188
     23 C          -6.8457    2.6109    1.7874 C.ar    1  UNL1        0.1205
     24 N          -6.5480    1.3316    1.4370 N.ar    1  UNL1       -0.2159
     25 C          -7.3908    0.6016    0.6913 C.ar    1  UNL1        0.1674
     26 C          -5.8713   -2.2777   -0.8904 C.3     1  UNL1        0.1285
     27 O          -5.3128   -3.5290   -0.6905 O.3     1  UNL1       -0.3847
     28 C          -4.7985   -1.3305   -1.4015 C.3     1  UNL1        0.1135
     29 O          -3.9759   -1.9425   -2.3393 O.3     1  UNL1       -0.3864
     30 C           4.6875   -1.0112    0.0534 C.3     1  UNL1        0.0198
     31 C           5.7574   -0.6580    1.0586 C.3     1  UNL1        0.1888
     32 N           6.9176   -0.0426    0.4986 N.ar    1  UNL1       -0.1978
     33 C           7.9767   -0.0681    1.3314 C.ar    1  UNL1        0.1716
     34 C           9.2094    0.4645    1.0136 C.ar    1  UNL1        0.0028
     35 C           9.3769    1.0620   -0.2318 C.ar    1  UNL1       -0.0382
     36 C           8.2612    1.0589   -1.0406 C.ar    1  UNL1        0.0992
     37 C           7.0514    0.5232   -0.6988 C.ar    1  UNL1        0.1838
     38 C           8.3615    1.6674   -2.3603 C.2     1  UNL1        0.2181
     39 O           7.3080    1.7233   -3.2583 O.2     1  UNL1       -0.4922
     40 N           9.3987    2.2265   -2.8824 N.2     1  UNL1       -0.2666
     41 C           4.9708    0.2416    1.9936 C.3     1  UNL1        0.1430
     42 O           5.6484    0.5494    3.1492 O.3     1  UNL1       -0.3826
     43 C           3.7274   -0.6104    2.2357 C.3     1  UNL1        0.0924
     44 O           4.0732   -1.4826    3.2763 O.3     1  UNL1       -0.3886
     45 H           3.5726   -2.5005    1.1240 H       1  UNL1        0.0351
     46 H           2.2462    0.1252    0.2100 H       1  UNL1        0.0569
     47 H           1.3701   -1.1671    1.0566 H       1  UNL1        0.0569
     48 H          -0.5631   -2.4441   -0.1527 H       1  UNL1        0.2220
     49 H          -0.9621    2.9537   -2.7186 H       1  UNL1        0.2220
     50 H          -2.7289    0.2329    0.8561 H       1  UNL1        0.0592
     51 H          -3.6940    1.0727   -0.3835 H       1  UNL1        0.0592
     52 H          -3.4634   -1.9537    0.1121 H       1  UNL1        0.0647
     53 H          -6.5471   -2.3891    1.1854 H       1  UNL1        0.0866
     54 H          -8.6928   -1.8186   -0.9769 H       1  UNL1        0.1030
     55 H         -10.8661    3.1381    0.8727 H       1  UNL1        0.1438
     56 H         -10.6077    3.3143   -0.6714 H       1  UNL1        0.1438
     57 H          -6.2753    3.2993    2.3697 H       1  UNL1        0.1048
     58 H          -6.7548   -2.2987   -1.5554 H       1  UNL1        0.0665
     59 H          -5.9846   -4.2436   -0.6021 H       1  UNL1        0.2101
     60 H          -5.2875   -0.4250   -1.7672 H       1  UNL1        0.0647
     61 H          -4.3397   -1.7165   -3.2323 H       1  UNL1        0.2100
     62 H           4.4293   -0.0522   -0.4847 H       1  UNL1        0.0335
     63 H           4.9945   -1.7895   -0.6577 H       1  UNL1        0.0335
     64 H           6.0034   -1.5658    1.6714 H       1  UNL1        0.1096
     65 H           7.9787   -0.5086    2.3410 H       1  UNL1        0.1376
     66 H          10.0696    0.4549    1.6643 H       1  UNL1        0.0677
     67 H          10.3396    1.4813   -0.4879 H       1  UNL1        0.0629
     68 H           6.1929    0.5219   -1.3241 H       1  UNL1        0.1384
     69 H           7.1472    2.5080   -3.9059 H       1  UNL1        0.2937
     70 H          10.2980    2.2852   -2.3595 H       1  UNL1        0.1899
     71 H           4.6926    1.1619    1.4021 H       1  UNL1        0.0686
     72 H           5.2015    1.3274    3.5655 H       1  UNL1        0.2102
     73 H           2.8532    0.0039    2.4758 H       1  UNL1        0.0625
     74 H           4.2484   -2.3968    2.9355 H       1  UNL1        0.2099
@<TRIPOS>UNITY_ATOM_ATTR
32 1
charge 1
@<TRIPOS>BOND
     1     1     2    1
     2     2     3    1
     3     3     4    1
     4     4     5    1
     5     4     6    2
     6     4     7    1
     7     7     8    1
     8     8     9    1
     9     8    10    2
    10     8    11    1
    11    11    12    1
    12    12    13    1
    13    13    14    1
    14    14    15    1
    15    15    16    1
    16    16    17   ar
    17    17    18   ar
    18    18    19   ar
    19    19    20   ar
    20    20    21    1
    21    20    22   ar
    22    22    23   ar
    23    23    24   ar
    24    24    25   ar
    25    15    26    1
    26    26    27    1
    27    26    28    1
    28    28    29    1
    29     1    30    1
    30    30    31    1
    31    31    32    1
    32    32    33   ar
    33    33    34   ar
    34    34    35   ar
    35    35    36   ar
    36    36    37   ar
    37    36    38    1
    38    38    39    1
    39    38    40    2
    40    31    41    1
    41    41    42    1
    42    41    43    1
    43    43    44    1
    44    43     1    1
    45    28    13    1
    46    37    32   ar
    47    25    16   ar
    48    25    19   ar
    49     1    45    1
    50     2    46    1
    51     2    47    1
    52     5    48    1
    53     9    49    1
    54    12    50    1
    55    12    51    1
    56    13    52    1
    57    15    53    1
    58    17    54    1
    59    21    55    1
    60    21    56    1
    61    23    57    1
    62    26    58    1
    63    27    59    1
    64    28    60    1
    65    29    61    1
    66    30    62    1
    67    30    63    1
    68    31    64    1
    69    33    65    1
    70    34    66    1
    71    35    67    1
    72    37    68    1
    73    39    69    1
    74    40    70    1
    75    41    71    1
    76    42    72    1
    77    43    73    1
    78    44    74    1
