@<TRIPOS>MOLECULE
*****
 70 71 0 0 0
SMALL
GASTEIGER

@<TRIPOS>ATOM
      1 C           2.5748   -0.0131    3.0870 C.3     1  UNL1       -0.0579
      2 C           2.7770    1.4147    2.6695 C.3     1  UNL1       -0.0108
      3 C           2.0241    2.2864    3.6462 C.3     1  UNL1       -0.0579
      4 C           4.2653    1.7137    2.9243 C.3     1  UNL1       -0.0579
      5 C           2.4730    1.7221    1.2503 C.3     1  UNL1        0.1047
      6 N           3.2720    0.9828    0.3080 N.am    1  UNL1       -0.2995
      7 C           2.9151   -0.3329   -0.1141 C.2     1  UNL1        0.2447
      8 O           1.8793   -0.8525    0.3450 O.2     1  UNL1       -0.2702
      9 C           3.7174   -1.0888   -1.0614 C.ar    1  UNL1        0.0382
     10 C           3.2819   -2.3507   -1.4721 C.ar    1  UNL1       -0.0478
     11 C           4.0148   -3.1014   -2.3650 C.ar    1  UNL1       -0.0389
     12 C           5.2036   -2.6652   -2.9020 C.ar    1  UNL1        0.0431
     13 N           5.9521   -3.4467   -3.8222 N.pl3   1  UNL1       -0.3568
     14 C           5.6431   -1.4243   -2.5054 C.ar    1  UNL1        0.0623
     15 CL          7.1493   -0.8278   -3.1610 Cl      1  UNL1       -0.0816
     16 C           4.9068   -0.6494   -1.5966 C.ar    1  UNL1       -0.0295
     17 C           1.0458    1.8068    0.9032 C.2     1  UNL1        0.2370
     18 O           0.2000    1.8968    1.8908 O.2     1  UNL1       -0.2735
     19 N           0.5201    1.8027   -0.4055 N.am    1  UNL1       -0.2884
     20 C           1.2585    1.9003   -1.6239 C.3     1  UNL1        0.0156
     21 C           0.5266    0.8503   -2.4770 C.3     1  UNL1       -0.0350
     22 C          -0.9353    1.2138   -2.1515 C.3     1  UNL1       -0.0243
     23 C          -0.8700    1.6918   -0.7206 C.3     1  UNL1        0.1023
     24 C          -1.6117    0.7381    0.1577 C.2     1  UNL1        0.2340
     25 O          -1.0287   -0.0440    0.9255 O.2     1  UNL1       -0.2738
     26 N          -3.0268    0.6973    0.1410 N.am    1  UNL1       -0.3070
     27 C          -3.8372   -0.1844    0.9516 C.3     1  UNL1        0.0531
     28 C          -4.6609   -1.0008    0.0166 C.2     1  UNL1       -0.0459
     29 C          -5.4426   -0.3672   -0.8279 C.2     1  UNL1        0.0495
     30 S          -6.4774   -1.1827   -1.9966 S.O2    1  UNL1       -0.0127
     31 C          -6.6116   -2.9040   -1.6247 C.3     1  UNL1        0.0589
     32 O          -7.7934   -0.5190   -2.1485 O.2     1  UNL1       -0.1702
     33 O          -5.7697   -1.0761   -3.3336 O.2     1  UNL1       -0.1702
     34 C          -4.7578    0.5471    1.8696 C.3     1  UNL1        0.0667
     35 C          -5.5401   -0.4351    2.6518 C.2     1  UNL1        0.3068
     36 O          -5.3536   -1.6616    2.4701 O.2     1  UNL1       -0.2509
     37 O          -6.4901   -0.0698    3.5966 O.3     1  UNL1       -0.4806
     38 H           1.5286   -0.3642    2.9999 H       1  UNL1        0.0236
     39 H           2.7965   -0.0405    4.1951 H       1  UNL1        0.0236
     40 H           3.3261   -0.6794    2.6421 H       1  UNL1        0.0236
     41 H           1.1437    1.7074    4.0114 H       1  UNL1        0.0236
     42 H           1.7421    3.2631    3.2314 H       1  UNL1        0.0236
     43 H           2.6500    2.4591    4.5456 H       1  UNL1        0.0236
     44 H           4.4951    2.7579    2.6129 H       1  UNL1        0.0236
     45 H           4.5156    1.5165    3.9717 H       1  UNL1        0.0236
     46 H           4.8103    0.9766    2.3077 H       1  UNL1        0.0236
     47 H           2.8058    2.8361    1.1271 H       1  UNL1        0.0600
     48 H           4.1485    1.3983   -0.0976 H       1  UNL1        0.1498
     49 H           2.3374   -2.7097   -1.0525 H       1  UNL1        0.0626
     50 H           3.6641   -4.0745   -2.6730 H       1  UNL1        0.0637
     51 H           6.2267   -3.1003   -4.7831 H       1  UNL1        0.1424
     52 H           6.2741   -4.4148   -3.5953 H       1  UNL1        0.1424
     53 H           5.2915    0.3226   -1.3116 H       1  UNL1        0.0640
     54 H           0.9486    2.9373   -2.0555 H       1  UNL1        0.0465
     55 H           2.3212    1.8270   -1.6243 H       1  UNL1        0.0465
     56 H           0.7480    0.9480   -3.5383 H       1  UNL1        0.0281
     57 H           0.7433   -0.1362   -2.0340 H       1  UNL1        0.0281
     58 H          -1.5611    0.2984   -2.2021 H       1  UNL1        0.0288
     59 H          -1.2449    2.0070   -2.8346 H       1  UNL1        0.0288
     60 H          -1.3358    2.7005   -0.6941 H       1  UNL1        0.0597
     61 H          -3.5241    1.3466   -0.4986 H       1  UNL1        0.1493
     62 H          -3.1945   -0.8435    1.6000 H       1  UNL1        0.0548
     63 H          -4.6503   -2.0829   -0.0044 H       1  UNL1        0.0603
     64 H          -5.4681    0.7301   -0.8228 H       1  UNL1        0.0816
     65 H          -5.7124   -3.4368   -1.9744 H       1  UNL1        0.0468
     66 H          -6.7576   -3.0340   -0.5537 H       1  UNL1        0.0468
     67 H          -7.5068   -3.2899   -2.1889 H       1  UNL1        0.0468
     68 H          -5.5172    1.1586    1.3006 H       1  UNL1        0.0399
     69 H          -4.2246    1.2065    2.5907 H       1  UNL1        0.0399
     70 H          -7.2136   -0.7027    3.9075 H       1  UNL1        0.2951
@<TRIPOS>BOND
     1     1     2    1
     2     2     3    1
     3     2     4    1
     4     2     5    1
     5     5     6    1
     6     6     7   am
     7     7     8    2
     8     7     9    1
     9     9    10   ar
    10    10    11   ar
    11    11    12   ar
    12    12    13    1
    13    12    14   ar
    14    14    15    1
    15    14    16   ar
    16     5    17    1
    17    17    18    2
    18    17    19   am
    19    19    20    1
    20    20    21    1
    21    21    22    1
    22    22    23    1
    23    23    24    1
    24    24    25    2
    25    24    26   am
    26    26    27    1
    27    27    28    1
    28    28    29    2
    29    29    30    1
    30    30    31    1
    31    30    32    2
    32    30    33    2
    33    27    34    1
    34    34    35    1
    35    35    36    2
    36    35    37    1
    37    16     9   ar
    38    23    19    1
    39     1    38    1
    40     1    39    1
    41     1    40    1
    42     3    41    1
    43     3    42    1
    44     3    43    1
    45     4    44    1
    46     4    45    1
    47     4    46    1
    48     5    47    1
    49     6    48    1
    50    10    49    1
    51    11    50    1
    52    13    51    1
    53    13    52    1
    54    16    53    1
    55    20    54    1
    56    20    55    1
    57    21    56    1
    58    21    57    1
    59    22    58    1
    60    22    59    1
    61    23    60    1
    62    26    61    1
    63    27    62    1
    64    28    63    1
    65    29    64    1
    66    31    65    1
    67    31    66    1
    68    31    67    1
    69    34    68    1
    70    34    69    1
    71    37    70    1
