
     RDKit          3D

 70 71  0  0  0  0  0  0  0  0999 V2000
    2.5748   -0.0131    3.0870 C   0  0  0  0  0  0  0  0  0  0  0  0
    2.7770    1.4147    2.6695 C   0  0  0  0  0  0  0  0  0  0  0  0
    2.0241    2.2864    3.6462 C   0  0  0  0  0  0  0  0  0  0  0  0
    4.2653    1.7137    2.9243 C   0  0  0  0  0  0  0  0  0  0  0  0
    2.4730    1.7221    1.2503 C   0  0  1  0  0  0  0  0  0  0  0  0
    3.2720    0.9828    0.3080 N   0  0  0  0  0  0  0  0  0  0  0  0
    2.9151   -0.3329   -0.1141 C   0  0  0  0  0  0  0  0  0  0  0  0
    1.8793   -0.8525    0.3450 O   0  0  0  0  0  0  0  0  0  0  0  0
    3.7174   -1.0888   -1.0614 C   0  0  0  0  0  0  0  0  0  0  0  0
    3.2819   -2.3507   -1.4721 C   0  0  0  0  0  0  0  0  0  0  0  0
    4.0148   -3.1014   -2.3650 C   0  0  0  0  0  0  0  0  0  0  0  0
    5.2036   -2.6652   -2.9020 C   0  0  0  0  0  0  0  0  0  0  0  0
    5.9521   -3.4467   -3.8222 N   0  0  0  0  0  0  0  0  0  0  0  0
    5.6431   -1.4243   -2.5054 C   0  0  0  0  0  0  0  0  0  0  0  0
    7.1493   -0.8278   -3.1610 Cl  0  0  0  0  0  0  0  0  0  0  0  0
    4.9068   -0.6494   -1.5966 C   0  0  0  0  0  0  0  0  0  0  0  0
    1.0458    1.8068    0.9032 C   0  0  0  0  0  0  0  0  0  0  0  0
    0.2000    1.8968    1.8908 O   0  0  0  0  0  0  0  0  0  0  0  0
    0.5201    1.8027   -0.4055 N   0  0  0  0  0  0  0  0  0  0  0  0
    1.2585    1.9003   -1.6239 C   0  0  0  0  0  0  0  0  0  0  0  0
    0.5266    0.8503   -2.4770 C   0  0  0  0  0  0  0  0  0  0  0  0
   -0.9353    1.2138   -2.1515 C   0  0  0  0  0  0  0  0  0  0  0  0
   -0.8700    1.6918   -0.7206 C   0  0  1  0  0  0  0  0  0  0  0  0
   -1.6117    0.7381    0.1577 C   0  0  0  0  0  0  0  0  0  0  0  0
   -1.0287   -0.0440    0.9255 O   0  0  0  0  0  0  0  0  0  0  0  0
   -3.0268    0.6973    0.1410 N   0  0  0  0  0  0  0  0  0  0  0  0
   -3.8372   -0.1844    0.9516 C   0  0  2  0  0  0  0  0  0  0  0  0
   -4.6609   -1.0008    0.0166 C   0  0  0  0  0  0  0  0  0  0  0  0
   -5.4426   -0.3672   -0.8279 C   0  0  0  0  0  0  0  0  0  0  0  0
   -6.4774   -1.1827   -1.9966 S   0  0  0  0  0  6  0  0  0  0  0  0
   -6.6116   -2.9040   -1.6247 C   0  0  0  0  0  0  0  0  0  0  0  0
   -7.7934   -0.5190   -2.1485 O   0  0  0  0  0  0  0  0  0  0  0  0
   -5.7697   -1.0761   -3.3336 O   0  0  0  0  0  0  0  0  0  0  0  0
   -4.7578    0.5471    1.8696 C   0  0  0  0  0  0  0  0  0  0  0  0
   -5.5401   -0.4351    2.6518 C   0  0  0  0  0  0  0  0  0  0  0  0
   -5.3536   -1.6616    2.4701 O   0  0  0  0  0  0  0  0  0  0  0  0
   -6.4901   -0.0698    3.5966 O   0  0  0  0  0  0  0  0  0  0  0  0
    1.5286   -0.3642    2.9999 H   0  0  0  0  0  0  0  0  0  0  0  0
    2.7965   -0.0405    4.1951 H   0  0  0  0  0  0  0  0  0  0  0  0
    3.3261   -0.6794    2.6421 H   0  0  0  0  0  0  0  0  0  0  0  0
    1.1437    1.7074    4.0114 H   0  0  0  0  0  0  0  0  0  0  0  0
    1.7421    3.2631    3.2314 H   0  0  0  0  0  0  0  0  0  0  0  0
    2.6500    2.4591    4.5456 H   0  0  0  0  0  0  0  0  0  0  0  0
    4.4951    2.7579    2.6129 H   0  0  0  0  0  0  0  0  0  0  0  0
    4.5156    1.5165    3.9717 H   0  0  0  0  0  0  0  0  0  0  0  0
    4.8103    0.9766    2.3077 H   0  0  0  0  0  0  0  0  0  0  0  0
    2.8058    2.8361    1.1271 H   0  0  0  0  0  0  0  0  0  0  0  0
    4.1485    1.3983   -0.0976 H   0  0  0  0  0  0  0  0  0  0  0  0
    2.3374   -2.7097   -1.0525 H   0  0  0  0  0  0  0  0  0  0  0  0
    3.6641   -4.0745   -2.6730 H   0  0  0  0  0  0  0  0  0  0  0  0
    6.2267   -3.1003   -4.7831 H   0  0  0  0  0  0  0  0  0  0  0  0
    6.2741   -4.4148   -3.5953 H   0  0  0  0  0  0  0  0  0  0  0  0
    5.2915    0.3226   -1.3116 H   0  0  0  0  0  0  0  0  0  0  0  0
    0.9486    2.9373   -2.0555 H   0  0  0  0  0  0  0  0  0  0  0  0
    2.3212    1.8270   -1.6243 H   0  0  0  0  0  0  0  0  0  0  0  0
    0.7480    0.9480   -3.5383 H   0  0  0  0  0  0  0  0  0  0  0  0
    0.7433   -0.1362   -2.0340 H   0  0  0  0  0  0  0  0  0  0  0  0
   -1.5611    0.2984   -2.2021 H   0  0  0  0  0  0  0  0  0  0  0  0
   -1.2449    2.0070   -2.8346 H   0  0  0  0  0  0  0  0  0  0  0  0
   -1.3358    2.7005   -0.6941 H   0  0  0  0  0  0  0  0  0  0  0  0
   -3.5241    1.3466   -0.4986 H   0  0  0  0  0  0  0  0  0  0  0  0
   -3.1945   -0.8435    1.6000 H   0  0  0  0  0  0  0  0  0  0  0  0
   -4.6503   -2.0829   -0.0044 H   0  0  0  0  0  0  0  0  0  0  0  0
   -5.4681    0.7301   -0.8228 H   0  0  0  0  0  0  0  0  0  0  0  0
   -5.7124   -3.4368   -1.9744 H   0  0  0  0  0  0  0  0  0  0  0  0
   -6.7576   -3.0340   -0.5537 H   0  0  0  0  0  0  0  0  0  0  0  0
   -7.5068   -3.2899   -2.1889 H   0  0  0  0  0  0  0  0  0  0  0  0
   -5.5172    1.1586    1.3006 H   0  0  0  0  0  0  0  0  0  0  0  0
   -4.2246    1.2065    2.5907 H   0  0  0  0  0  0  0  0  0  0  0  0
   -7.2136   -0.7027    3.9075 H   0  0  0  0  0  0  0  0  0  0  0  0
  1  2  1  0
  2  3  1  0
  2  4  1  0
  2  5  1  0
  5  6  1  0
  6  7  1  0
  7  8  2  0
  7  9  1  0
  9 10  2  0
 10 11  1  0
 11 12  2  0
 12 13  1  0
 12 14  1  0
 14 15  1  0
 14 16  2  0
  5 17  1  0
 17 18  2  0
 17 19  1  0
 19 20  1  0
 20 21  1  0
 21 22  1  0
 22 23  1  0
 23 24  1  0
 24 25  2  0
 24 26  1  0
 26 27  1  0
 27 28  1  0
 28 29  2  0
 29 30  1  0
 30 31  1  0
 30 32  2  0
 30 33  2  0
 27 34  1  0
 34 35  1  0
 35 36  2  0
 35 37  1  0
 16  9  1  0
 23 19  1  0
  1 38  1  0
  1 39  1  0
  1 40  1  0
  3 41  1  0
  3 42  1  0
  3 43  1  0
  4 44  1  0
  4 45  1  0
  4 46  1  0
  5 47  1  1
  6 48  1  0
 10 49  1  0
 11 50  1  0
 13 51  1  0
 13 52  1  0
 16 53  1  0
 20 54  1  0
 20 55  1  0
 21 56  1  0
 21 57  1  0
 22 58  1  0
 22 59  1  0
 23 60  1  6
 26 61  1  0
 27 62  1  1
 28 63  1  0
 29 64  1  0
 31 65  1  0
 31 66  1  0
 31 67  1  0
 34 68  1  0
 34 69  1  0
 37 70  1  0
M  END
$$$$
