
     RDKit          3D

 30 31  0  0  0  0  0  0  0  0999 V2000
    2.9262    0.6758   -0.7302 C   0  0  2  0  0  0  0  0  0  0  0  0
    2.6804   -0.7056   -1.2710 C   0  0  0  0  0  0  0  0  0  0  0  0
    4.2909    0.8748   -0.5146 O   0  0  0  0  0  0  0  0  0  0  0  0
    2.1671    0.7947    0.5828 C   0  0  2  0  0  0  0  0  0  0  0  0
    2.6400   -0.1697    1.4741 O   0  0  0  0  0  0  0  0  0  0  0  0
    0.7144    0.6259    0.3162 C   0  0  0  0  0  0  0  0  0  0  0  0
    0.0744   -0.3398    0.8875 N   0  0  0  0  0  0  0  0  0  0  0  0
   -1.3232   -0.5758    0.6880 C   0  0  0  0  0  0  0  0  0  0  0  0
   -2.0515    0.2534   -0.1516 C   0  0  0  0  0  0  0  0  0  0  0  0
   -1.3442    1.3070   -0.7723 N   0  0  0  0  0  0  0  0  0  0  0  0
    0.0668    1.5923   -0.6083 C   0  0  0  0  0  0  0  0  0  0  0  0
   -3.3519    0.0731   -0.3675 N   0  0  0  0  0  0  0  0  0  0  0  0
   -4.0193   -0.9219    0.2189 C   0  0  0  0  0  0  0  0  0  0  0  0
   -5.2923   -1.0901    0.0010 N   0  0  0  0  0  0  0  0  0  0  0  0
   -3.3383   -1.7290    1.0284 N   0  0  0  0  0  0  0  0  0  0  0  0
   -2.0144   -1.6042    1.2937 C   0  0  0  0  0  0  0  0  0  0  0  0
   -1.3312   -2.4650    2.1454 O   0  0  0  0  0  0  0  0  0  0  0  0
    2.6058    1.4880   -1.4079 H   0  0  0  0  0  0  0  0  0  0  0  0
    1.8098   -0.7315   -1.9607 H   0  0  0  0  0  0  0  0  0  0  0  0
    3.5830   -1.0054   -1.8759 H   0  0  0  0  0  0  0  0  0  0  0  0
    2.4983   -1.4387   -0.4676 H   0  0  0  0  0  0  0  0  0  0  0  0
    4.7819    0.4799   -1.2787 H   0  0  0  0  0  0  0  0  0  0  0  0
    2.4211    1.7801    1.0139 H   0  0  0  0  0  0  0  0  0  0  0  0
    1.9281   -0.5557    2.0405 H   0  0  0  0  0  0  0  0  0  0  0  0
   -1.7865    1.9805   -1.4126 H   0  0  0  0  0  0  0  0  0  0  0  0
    0.5770    1.5100   -1.5983 H   0  0  0  0  0  0  0  0  0  0  0  0
    0.2386    2.6023   -0.2037 H   0  0  0  0  0  0  0  0  0  0  0  0
   -3.8558    0.7385   -1.0193 H   0  0  0  0  0  0  0  0  0  0  0  0
   -5.7631   -0.4284   -0.6388 H   0  0  0  0  0  0  0  0  0  0  0  0
   -0.5319   -3.0155    1.8742 H   0  0  0  0  0  0  0  0  0  0  0  0
  1  2  1  0
  1  3  1  0
  1  4  1  0
  4  5  1  0
  4  6  1  0
  6  7  2  0
  7  8  1  0
  8  9  2  0
  9 10  1  0
 10 11  1  0
  9 12  1  0
 12 13  1  0
 13 14  2  3
 13 15  1  0
 15 16  2  0
 16 17  1  0
 11  6  1  0
 16  8  1  0
  1 18  1  6
  2 19  1  0
  2 20  1  0
  2 21  1  0
  3 22  1  0
  4 23  1  1
  5 24  1  0
 10 25  1  0
 11 26  1  0
 11 27  1  0
 12 28  1  0
 14 29  1  0
 17 30  1  0
M  END
$$$$
