@<TRIPOS>MOLECULE
*****
 30 31 0 0 0
SMALL
GASTEIGER

@<TRIPOS>ATOM
      1 C           2.9262    0.6758   -0.7302 C.3     1  UNL1        0.0836
      2 C           2.6804   -0.7056   -1.2710 C.3     1  UNL1       -0.0361
      3 O           4.2909    0.8748   -0.5146 O.3     1  UNL1       -0.3891
      4 C           2.1671    0.7947    0.5828 C.3     1  UNL1        0.1201
      5 O           2.6400   -0.1697    1.4741 O.3     1  UNL1       -0.3834
      6 C           0.7144    0.6259    0.3162 C.2     1  UNL1        0.0676
      7 N           0.0744   -0.3398    0.8875 N.2     1  UNL1       -0.2436
      8 C          -1.3232   -0.5758    0.6880 C.ar    1  UNL1        0.1629
      9 C          -2.0515    0.2534   -0.1516 C.ar    1  UNL1        0.1304
     10 N          -1.3442    1.3070   -0.7723 N.pl3   1  UNL1       -0.3233
     11 C           0.0668    1.5923   -0.6083 C.3     1  UNL1        0.0515
     12 N          -3.3519    0.0731   -0.3675 N.ar    1  UNL1       -0.3111
     13 C          -4.0193   -0.9219    0.2189 C.ar    1  UNL1        0.2251
     14 N          -5.2923   -1.0901    0.0010 N.2     1  UNL1       -0.2664
     15 N          -3.3383   -1.7290    1.0284 N.ar    1  UNL1       -0.1758
     16 C          -2.0144   -1.6042    1.2937 C.ar    1  UNL1        0.2450
     17 O          -1.3312   -2.4650    2.1454 O.3     1  UNL1       -0.4908
     18 H           2.6058    1.4880   -1.4079 H       1  UNL1        0.0620
     19 H           1.8098   -0.7315   -1.9607 H       1  UNL1        0.0255
     20 H           3.5830   -1.0054   -1.8759 H       1  UNL1        0.0255
     21 H           2.4983   -1.4387   -0.4676 H       1  UNL1        0.0255
     22 H           4.7819    0.4799   -1.2787 H       1  UNL1        0.2099
     23 H           2.4211    1.7801    1.0139 H       1  UNL1        0.0682
     24 H           1.9281   -0.5557    2.0405 H       1  UNL1        0.2104
     25 H          -1.7865    1.9805   -1.4126 H       1  UNL1        0.1478
     26 H           0.5770    1.5100   -1.5983 H       1  UNL1        0.0524
     27 H           0.2386    2.6023   -0.2037 H       1  UNL1        0.0524
     28 H          -3.8558    0.7385   -1.0193 H       1  UNL1        0.1700
     29 H          -5.7631   -0.4284   -0.6388 H       1  UNL1        0.1898
     30 H          -0.5319   -3.0155    1.8742 H       1  UNL1        0.2938
@<TRIPOS>BOND
     1     1     2    1
     2     1     3    1
     3     1     4    1
     4     4     5    1
     5     4     6    1
     6     6     7    2
     7     7     8    1
     8     8     9   ar
     9     9    10    1
    10    10    11    1
    11     9    12   ar
    12    12    13   ar
    13    13    14    2
    14    13    15   ar
    15    15    16   ar
    16    16    17    1
    17    11     6    1
    18    16     8   ar
    19     1    18    1
    20     2    19    1
    21     2    20    1
    22     2    21    1
    23     3    22    1
    24     4    23    1
    25     5    24    1
    26    10    25    1
    27    11    26    1
    28    11    27    1
    29    12    28    1
    30    14    29    1
    31    17    30    1
