@<TRIPOS>MOLECULE
*****
 31 32 0 0 0
SMALL
GASTEIGER

@<TRIPOS>ATOM
      1 C           3.8655   -0.9182    0.8879 C.3     1  UNL1       -0.0482
      2 C           3.3352   -0.5732   -0.4668 C.3     1  UNL1        0.0785
      3 C           3.9135    0.6934   -1.0245 C.2     1  UNL1        0.3119
      4 O           3.7126    1.8703   -0.3336 O.3     1  UNL1       -0.4802
      5 O           4.5745    0.6757   -2.1126 O.2     1  UNL1       -0.2503
      6 C           1.8656   -0.3768   -0.3917 C.ar    1  UNL1       -0.0312
      7 C           1.2757    0.5914    0.3936 C.ar    1  UNL1       -0.0219
      8 C          -0.0818    0.8111    0.4955 C.ar    1  UNL1        0.1313
      9 F          -0.6040    1.7769    1.2830 F       1  UNL1       -0.2048
     10 C          -0.9251    0.0075   -0.2393 C.ar    1  UNL1        0.0173
     11 C          -0.3749   -0.9827   -1.0457 C.ar    1  UNL1       -0.0510
     12 C           0.9935   -1.1702   -1.1196 C.ar    1  UNL1       -0.0570
     13 C          -2.3670    0.2082   -0.1589 C.ar    1  UNL1       -0.0151
     14 C          -3.0439   -1.0052   -0.0245 C.ar    1  UNL1       -0.0539
     15 C          -4.4233   -1.0594    0.0707 C.ar    1  UNL1       -0.0612
     16 C          -5.1134    0.1479    0.0271 C.ar    1  UNL1       -0.0617
     17 C          -4.4441    1.3538   -0.1062 C.ar    1  UNL1       -0.0612
     18 C          -3.0705    1.3922   -0.1998 C.ar    1  UNL1       -0.0539
     19 H           4.8426   -0.4198    1.0865 H       1  UNL1        0.0241
     20 H           3.1115   -0.6896    1.6742 H       1  UNL1        0.0241
     21 H           4.0516   -2.0168    0.9883 H       1  UNL1        0.0241
     22 H           3.5308   -1.4194   -1.1727 H       1  UNL1        0.0459
     23 H           4.2827    2.7022   -0.5228 H       1  UNL1        0.2951
     24 H           1.8896    1.2502    0.9913 H       1  UNL1        0.0649
     25 H          -1.0211   -1.6159   -1.6237 H       1  UNL1        0.0625
     26 H           1.3739   -1.9558   -1.7629 H       1  UNL1        0.0621
     27 H          -2.5786   -1.9944    0.0178 H       1  UNL1        0.0624
     28 H          -4.9745   -1.9776    0.1749 H       1  UNL1        0.0618
     29 H          -6.1906    0.1221    0.1002 H       1  UNL1        0.0618
     30 H          -4.9584    2.3077   -0.1427 H       1  UNL1        0.0618
     31 H          -2.4475    2.2644   -0.3054 H       1  UNL1        0.0624
@<TRIPOS>BOND
     1     1     2    1
     2     2     3    1
     3     3     4    1
     4     3     5    2
     5     2     6    1
     6     6     7   ar
     7     7     8   ar
     8     8     9    1
     9     8    10   ar
    10    10    11   ar
    11    11    12   ar
    12    10    13    1
    13    13    14   ar
    14    14    15   ar
    15    15    16   ar
    16    16    17   ar
    17    17    18   ar
    18    12     6   ar
    19    18    13   ar
    20     1    19    1
    21     1    20    1
    22     1    21    1
    23     2    22    1
    24     4    23    1
    25     7    24    1
    26    11    25    1
    27    12    26    1
    28    14    27    1
    29    15    28    1
    30    16    29    1
    31    17    30    1
    32    18    31    1
