@<TRIPOS>MOLECULE
*****
 45 48 0 0 0
SMALL
GASTEIGER

@<TRIPOS>ATOM
      1 C          -0.2408   -4.2117   -0.3187 C.3     1  UNL1       -0.0369
      2 C          -0.2765   -2.7483   -0.1313 C.ar    1  UNL1       -0.0132
      3 C           0.9223   -2.0165   -0.1051 C.ar    1  UNL1       -0.0348
      4 C           0.9658   -0.6607    0.0643 C.ar    1  UNL1        0.0345
      5 N           2.1392    0.1148    0.0975 N.am    1  UNL1       -0.2802
      6 C           3.4708   -0.3198   -0.0314 C.2     1  UNL1        0.2680
      7 O           3.7007   -1.5377   -0.1985 O.2     1  UNL1       -0.2681
      8 C           4.6074    0.6125    0.0238 C.ar    1  UNL1        0.1439
      9 N           4.3663    1.9105    0.2016 N.ar    1  UNL1       -0.2474
     10 C           5.3468    2.8290    0.2636 C.ar    1  UNL1        0.0468
     11 C           6.6478    2.3901    0.1360 C.ar    1  UNL1        0.0605
     12 CL          7.9178    3.5920    0.2180 Cl      1  UNL1       -0.0819
     13 C           6.9493    1.0625   -0.0488 C.ar    1  UNL1       -0.0213
     14 C           5.8968    0.1773   -0.1027 C.ar    1  UNL1        0.0728
     15 CL          6.2415   -1.5202   -0.3368 Cl      1  UNL1       -0.0811
     16 C          -0.2801   -0.0257    0.2139 C.ar    1  UNL1       -0.0320
     17 C          -1.4774   -0.6835    0.1970 C.ar    1  UNL1        0.0230
     18 C          -2.7771    0.0249    0.3589 C.3     1  UNL1        0.1603
     19 C          -3.4337   -0.4368    1.6433 C.3     1  UNL1        0.2686
     20 F          -2.5268   -0.1069    2.6628 F       1  UNL1       -0.2062
     21 F          -4.5685    0.2799    1.9342 F       1  UNL1       -0.2062
     22 N          -2.5051    1.4475    0.5241 N.2     1  UNL1       -0.2194
     23 C          -3.3952    2.3560    0.2945 C.2     1  UNL1        0.2764
     24 N          -3.1273    3.7397    0.4570 N.pl3   1  UNL1       -0.3134
     25 O          -4.6563    1.9038   -0.1289 O.2     1  UNL1       -0.4622
     26 C          -4.6657    0.8680   -1.0916 C.3     1  UNL1        0.1091
     27 C          -5.0505   -0.5116   -0.8035 C.3     1  UNL1       -0.0064
     28 C          -3.6211   -0.1613   -0.8585 C.3     1  UNL1        0.0344
     29 C          -1.4467   -2.0549    0.0215 C.ar    1  UNL1        0.1320
     30 F          -2.6086   -2.7327    0.0000 F       1  UNL1       -0.2048
     31 H          -0.4994   -4.4053   -1.3940 H       1  UNL1        0.0278
     32 H           0.7118   -4.6699   -0.0260 H       1  UNL1        0.0278
     33 H          -1.0918   -4.6544    0.2648 H       1  UNL1        0.0278
     34 H           1.8454   -2.5885   -0.2288 H       1  UNL1        0.0640
     35 H           2.0506    1.1799    0.2374 H       1  UNL1        0.1552
     36 H           5.1446    3.8858    0.4087 H       1  UNL1        0.0844
     37 H           7.9737    0.7333   -0.1472 H       1  UNL1        0.0648
     38 H          -0.2947    1.0613    0.3525 H       1  UNL1        0.0640
     39 H          -3.6295   -1.5141    1.6758 H       1  UNL1        0.1047
     40 H          -3.8687    4.4314    0.6773 H       1  UNL1        0.1466
     41 H          -2.1543    4.0683    0.3510 H       1  UNL1        0.1466
     42 H          -4.8400    1.2618   -2.1270 H       1  UNL1        0.0737
     43 H          -5.4449   -0.8621    0.1730 H       1  UNL1        0.0306
     44 H          -5.4055   -1.1191   -1.6909 H       1  UNL1        0.0306
     45 H          -3.0122   -0.3888   -1.7839 H       1  UNL1        0.0366
@<TRIPOS>BOND
     1     1     2    1
     2     2     3   ar
     3     3     4   ar
     4     4     5    1
     5     5     6   am
     6     6     7    2
     7     6     8    1
     8     8     9   ar
     9     9    10   ar
    10    10    11   ar
    11    11    12    1
    12    11    13   ar
    13    13    14   ar
    14    14    15    1
    15     4    16   ar
    16    16    17   ar
    17    17    18    1
    18    18    19    1
    19    19    20    1
    20    19    21    1
    21    18    22    1
    22    22    23    2
    23    23    24    1
    24    23    25    1
    25    25    26    1
    26    26    27    1
    27    27    28    1
    28    17    29   ar
    29    29    30    1
    30    29     2   ar
    31    14     8   ar
    32    28    18    1
    33    28    26    1
    34     1    31    1
    35     1    32    1
    36     1    33    1
    37     3    34    1
    38     5    35    1
    39    10    36    1
    40    13    37    1
    41    16    38    1
    42    19    39    1
    43    24    40    1
    44    24    41    1
    45    26    42    1
    46    27    43    1
    47    27    44    1
    48    28    45    1
