
     RDKit          3D

 45 48  0  0  0  0  0  0  0  0999 V2000
   -0.2408   -4.2117   -0.3187 C   0  0  0  0  0  0  0  0  0  0  0  0
   -0.2765   -2.7483   -0.1313 C   0  0  0  0  0  0  0  0  0  0  0  0
    0.9223   -2.0165   -0.1051 C   0  0  0  0  0  0  0  0  0  0  0  0
    0.9658   -0.6607    0.0643 C   0  0  0  0  0  0  0  0  0  0  0  0
    2.1392    0.1148    0.0975 N   0  0  0  0  0  0  0  0  0  0  0  0
    3.4708   -0.3198   -0.0314 C   0  0  0  0  0  0  0  0  0  0  0  0
    3.7007   -1.5377   -0.1985 O   0  0  0  0  0  0  0  0  0  0  0  0
    4.6074    0.6125    0.0238 C   0  0  0  0  0  0  0  0  0  0  0  0
    4.3663    1.9105    0.2016 N   0  0  0  0  0  0  0  0  0  0  0  0
    5.3468    2.8290    0.2636 C   0  0  0  0  0  0  0  0  0  0  0  0
    6.6478    2.3901    0.1360 C   0  0  0  0  0  0  0  0  0  0  0  0
    7.9178    3.5920    0.2180 Cl  0  0  0  0  0  0  0  0  0  0  0  0
    6.9493    1.0625   -0.0488 C   0  0  0  0  0  0  0  0  0  0  0  0
    5.8968    0.1773   -0.1027 C   0  0  0  0  0  0  0  0  0  0  0  0
    6.2415   -1.5202   -0.3368 Cl  0  0  0  0  0  0  0  0  0  0  0  0
   -0.2801   -0.0257    0.2139 C   0  0  0  0  0  0  0  0  0  0  0  0
   -1.4774   -0.6835    0.1970 C   0  0  0  0  0  0  0  0  0  0  0  0
   -2.7771    0.0249    0.3589 C   0  0  1  0  0  0  0  0  0  0  0  0
   -3.4337   -0.4368    1.6433 C   0  0  0  0  0  0  0  0  0  0  0  0
   -2.5268   -0.1069    2.6628 F   0  0  0  0  0  0  0  0  0  0  0  0
   -4.5685    0.2799    1.9342 F   0  0  0  0  0  0  0  0  0  0  0  0
   -2.5051    1.4475    0.5241 N   0  0  0  0  0  0  0  0  0  0  0  0
   -3.3952    2.3560    0.2945 C   0  0  0  0  0  0  0  0  0  0  0  0
   -3.1273    3.7397    0.4570 N   0  0  0  0  0  0  0  0  0  0  0  0
   -4.6563    1.9038   -0.1289 O   0  0  0  0  0  0  0  0  0  0  0  0
   -4.6657    0.8680   -1.0916 C   0  0  2  0  0  0  0  0  0  0  0  0
   -5.0505   -0.5116   -0.8035 C   0  0  0  0  0  0  0  0  0  0  0  0
   -3.6211   -0.1613   -0.8585 C   0  0  2  0  0  0  0  0  0  0  0  0
   -1.4467   -2.0549    0.0215 C   0  0  0  0  0  0  0  0  0  0  0  0
   -2.6086   -2.7327    0.0000 F   0  0  0  0  0  0  0  0  0  0  0  0
   -0.4994   -4.4053   -1.3940 H   0  0  0  0  0  0  0  0  0  0  0  0
    0.7118   -4.6699   -0.0260 H   0  0  0  0  0  0  0  0  0  0  0  0
   -1.0918   -4.6544    0.2648 H   0  0  0  0  0  0  0  0  0  0  0  0
    1.8454   -2.5885   -0.2288 H   0  0  0  0  0  0  0  0  0  0  0  0
    2.0506    1.1799    0.2374 H   0  0  0  0  0  0  0  0  0  0  0  0
    5.1446    3.8858    0.4087 H   0  0  0  0  0  0  0  0  0  0  0  0
    7.9737    0.7333   -0.1472 H   0  0  0  0  0  0  0  0  0  0  0  0
   -0.2947    1.0613    0.3525 H   0  0  0  0  0  0  0  0  0  0  0  0
   -3.6295   -1.5141    1.6758 H   0  0  0  0  0  0  0  0  0  0  0  0
   -3.8687    4.4314    0.6773 H   0  0  0  0  0  0  0  0  0  0  0  0
   -2.1543    4.0683    0.3510 H   0  0  0  0  0  0  0  0  0  0  0  0
   -4.8400    1.2618   -2.1270 H   0  0  0  0  0  0  0  0  0  0  0  0
   -5.4449   -0.8621    0.1730 H   0  0  0  0  0  0  0  0  0  0  0  0
   -5.4055   -1.1191   -1.6909 H   0  0  0  0  0  0  0  0  0  0  0  0
   -3.0122   -0.3888   -1.7839 H   0  0  0  0  0  0  0  0  0  0  0  0
  1  2  1  0
  2  3  2  0
  3  4  1  0
  4  5  1  0
  5  6  1  0
  6  7  2  0
  6  8  1  0
  8  9  2  0
  9 10  1  0
 10 11  2  0
 11 12  1  0
 11 13  1  0
 13 14  2  0
 14 15  1  0
  4 16  2  0
 16 17  1  0
 17 18  1  0
 18 19  1  1
 19 20  1  0
 19 21  1  0
 18 22  1  0
 22 23  2  0
 23 24  1  0
 23 25  1  0
 25 26  1  0
 26 27  1  0
 27 28  1  0
 17 29  2  0
 29 30  1  0
 29  2  1  0
 14  8  1  0
 28 18  1  0
 28 26  1  0
  1 31  1  0
  1 32  1  0
  1 33  1  0
  3 34  1  0
  5 35  1  0
 10 36  1  0
 13 37  1  0
 16 38  1  0
 19 39  1  0
 24 40  1  0
 24 41  1  0
 26 42  1  6
 27 43  1  0
 27 44  1  0
 28 45  1  6
M  END
$$$$
