@<TRIPOS>MOLECULE
*****
 42 45 0 0 0
SMALL
GASTEIGER

@<TRIPOS>ATOM
      1 C           0.2797    4.2521    1.7583 C.3     1  UNL1       -0.0444
      2 C          -0.2256    3.1326    0.8455 C.3     1  UNL1        0.0303
      3 C          -1.4239    2.5298    1.5033 C.3     1  UNL1       -0.0444
      4 N           0.8450    2.1803    0.6258 N.ar    1  UNL1       -0.3270
      5 C           2.1650    2.3809    0.9187 C.ar    1  UNL1        0.0973
      6 N           2.8453    1.2720    0.5719 N.ar    1  UNL1       -0.2351
      7 C           1.9478    0.3956    0.0689 C.ar    1  UNL1        0.0967
      8 C           2.2749   -0.9331   -0.4247 C.ar    1  UNL1        0.0026
      9 C           2.8346   -1.8959    0.3982 C.ar    1  UNL1       -0.0498
     10 C           3.1470   -3.1627   -0.0722 C.ar    1  UNL1       -0.0258
     11 C           2.9059   -3.5014   -1.3871 C.ar    1  UNL1        0.1234
     12 F           3.1871   -4.7198   -1.9102 F       1  UNL1       -0.2055
     13 C           2.3485   -2.5602   -2.2292 C.ar    1  UNL1       -0.0258
     14 C           2.0450   -1.3052   -1.7410 C.ar    1  UNL1       -0.0498
     15 C           0.6975    0.9575    0.1002 C.ar    1  UNL1        0.0781
     16 C          -0.5136    0.3417   -0.3462 C.ar    1  UNL1        0.0173
     17 C          -1.2276    0.9516   -1.3800 C.ar    1  UNL1       -0.0477
     18 C          -2.3837    0.3285   -1.7783 C.ar    1  UNL1       -0.0181
     19 C          -2.8630   -0.8389   -1.2234 C.ar    1  UNL1        0.1385
     20 N          -3.9678   -1.6019   -1.4713 N.ar    1  UNL1       -0.2348
     21 C          -3.9665   -2.6529   -0.6379 C.ar    1  UNL1        0.0643
     22 C          -2.8353   -2.5297    0.1371 C.ar    1  UNL1        0.1438
     23 C          -2.3694   -3.3826    1.1713 C.1     1  UNL1        0.1192
     24 N          -1.9885   -4.0743    2.0414 N.1     1  UNL1       -0.1893
     25 N          -2.1622   -1.4093   -0.2312 N.ar    1  UNL1       -0.2906
     26 C          -1.0240   -0.8310    0.1888 C.ar    1  UNL1        0.0216
     27 H          -0.5025    5.0513    1.7569 H       1  UNL1        0.0249
     28 H           1.1889    4.6916    1.3006 H       1  UNL1        0.0249
     29 H           0.5396    3.8860    2.7510 H       1  UNL1        0.0249
     30 H          -0.4957    3.6510   -0.1204 H       1  UNL1        0.0523
     31 H          -1.7658    3.1271    2.3992 H       1  UNL1        0.0249
     32 H          -1.2620    1.5089    1.8835 H       1  UNL1        0.0249
     33 H          -2.3118    2.5372    0.8137 H       1  UNL1        0.0249
     34 H           2.6315    3.2496    1.3499 H       1  UNL1        0.1029
     35 H           3.0205   -1.6207    1.4301 H       1  UNL1        0.0625
     36 H           3.5833   -3.9209    0.5598 H       1  UNL1        0.0646
     37 H           2.1570   -2.8309   -3.2751 H       1  UNL1        0.0646
     38 H           1.6058   -0.5475   -2.3841 H       1  UNL1        0.0625
     39 H          -0.8590    1.8692   -1.8222 H       1  UNL1        0.0626
     40 H          -2.9431    0.7938   -2.5782 H       1  UNL1        0.0654
     41 H          -4.7007   -3.4616   -0.5637 H       1  UNL1        0.0859
     42 H          -0.4585   -1.3077    1.0023 H       1  UNL1        0.0820
@<TRIPOS>BOND
     1     1     2    1
     2     2     3    1
     3     2     4    1
     4     4     5   ar
     5     5     6   ar
     6     6     7   ar
     7     7     8    1
     8     8     9   ar
     9     9    10   ar
    10    10    11   ar
    11    11    12    1
    12    11    13   ar
    13    13    14   ar
    14     7    15   ar
    15    15    16    1
    16    16    17   ar
    17    17    18   ar
    18    18    19   ar
    19    19    20   ar
    20    20    21   ar
    21    21    22   ar
    22    22    23    1
    23    23    24    3
    24    22    25   ar
    25    25    26   ar
    26    15     4   ar
    27    26    16   ar
    28    14     8   ar
    29    25    19   ar
    30     1    27    1
    31     1    28    1
    32     1    29    1
    33     2    30    1
    34     3    31    1
    35     3    32    1
    36     3    33    1
    37     5    34    1
    38     9    35    1
    39    10    36    1
    40    13    37    1
    41    14    38    1
    42    17    39    1
    43    18    40    1
    44    21    41    1
    45    26    42    1
