
     RDKit          3D

 42 45  0  0  0  0  0  0  0  0999 V2000
    0.2797    4.2521    1.7583 C   0  0  0  0  0  0  0  0  0  0  0  0
   -0.2256    3.1326    0.8455 C   0  0  0  0  0  0  0  0  0  0  0  0
   -1.4239    2.5298    1.5033 C   0  0  0  0  0  0  0  0  0  0  0  0
    0.8450    2.1803    0.6258 N   0  0  0  0  0  0  0  0  0  0  0  0
    2.1650    2.3809    0.9187 C   0  0  0  0  0  0  0  0  0  0  0  0
    2.8453    1.2720    0.5719 N   0  0  0  0  0  0  0  0  0  0  0  0
    1.9478    0.3956    0.0689 C   0  0  0  0  0  0  0  0  0  0  0  0
    2.2749   -0.9331   -0.4247 C   0  0  0  0  0  0  0  0  0  0  0  0
    2.8346   -1.8959    0.3982 C   0  0  0  0  0  0  0  0  0  0  0  0
    3.1470   -3.1627   -0.0722 C   0  0  0  0  0  0  0  0  0  0  0  0
    2.9059   -3.5014   -1.3871 C   0  0  0  0  0  0  0  0  0  0  0  0
    3.1871   -4.7198   -1.9102 F   0  0  0  0  0  0  0  0  0  0  0  0
    2.3485   -2.5602   -2.2292 C   0  0  0  0  0  0  0  0  0  0  0  0
    2.0450   -1.3052   -1.7410 C   0  0  0  0  0  0  0  0  0  0  0  0
    0.6975    0.9575    0.1002 C   0  0  0  0  0  0  0  0  0  0  0  0
   -0.5136    0.3417   -0.3462 C   0  0  0  0  0  0  0  0  0  0  0  0
   -1.2276    0.9516   -1.3800 C   0  0  0  0  0  0  0  0  0  0  0  0
   -2.3837    0.3285   -1.7783 C   0  0  0  0  0  0  0  0  0  0  0  0
   -2.8630   -0.8389   -1.2234 C   0  0  0  0  0  0  0  0  0  0  0  0
   -3.9678   -1.6019   -1.4713 N   0  0  0  0  0  0  0  0  0  0  0  0
   -3.9665   -2.6529   -0.6379 C   0  0  0  0  0  0  0  0  0  0  0  0
   -2.8353   -2.5297    0.1371 C   0  0  0  0  0  0  0  0  0  0  0  0
   -2.3694   -3.3826    1.1713 C   0  0  0  0  0  0  0  0  0  0  0  0
   -1.9885   -4.0743    2.0414 N   0  0  0  0  0  0  0  0  0  0  0  0
   -2.1622   -1.4093   -0.2312 N   0  0  0  0  0  0  0  0  0  0  0  0
   -1.0240   -0.8310    0.1888 C   0  0  0  0  0  0  0  0  0  0  0  0
   -0.5025    5.0513    1.7569 H   0  0  0  0  0  0  0  0  0  0  0  0
    1.1889    4.6916    1.3006 H   0  0  0  0  0  0  0  0  0  0  0  0
    0.5396    3.8860    2.7510 H   0  0  0  0  0  0  0  0  0  0  0  0
   -0.4957    3.6510   -0.1204 H   0  0  0  0  0  0  0  0  0  0  0  0
   -1.7658    3.1271    2.3992 H   0  0  0  0  0  0  0  0  0  0  0  0
   -1.2620    1.5089    1.8835 H   0  0  0  0  0  0  0  0  0  0  0  0
   -2.3118    2.5372    0.8137 H   0  0  0  0  0  0  0  0  0  0  0  0
    2.6315    3.2496    1.3499 H   0  0  0  0  0  0  0  0  0  0  0  0
    3.0205   -1.6207    1.4301 H   0  0  0  0  0  0  0  0  0  0  0  0
    3.5833   -3.9209    0.5598 H   0  0  0  0  0  0  0  0  0  0  0  0
    2.1570   -2.8309   -3.2751 H   0  0  0  0  0  0  0  0  0  0  0  0
    1.6058   -0.5475   -2.3841 H   0  0  0  0  0  0  0  0  0  0  0  0
   -0.8590    1.8692   -1.8222 H   0  0  0  0  0  0  0  0  0  0  0  0
   -2.9431    0.7938   -2.5782 H   0  0  0  0  0  0  0  0  0  0  0  0
   -4.7007   -3.4616   -0.5637 H   0  0  0  0  0  0  0  0  0  0  0  0
   -0.4585   -1.3077    1.0023 H   0  0  0  0  0  0  0  0  0  0  0  0
  1  2  1  0
  2  3  1  0
  2  4  1  0
  4  5  1  0
  5  6  2  0
  6  7  1  0
  7  8  1  0
  8  9  2  0
  9 10  1  0
 10 11  2  0
 11 12  1  0
 11 13  1  0
 13 14  2  0
  7 15  2  0
 15 16  1  0
 16 17  1  0
 17 18  2  0
 18 19  1  0
 19 20  2  0
 20 21  1  0
 21 22  2  0
 22 23  1  0
 23 24  3  0
 22 25  1  0
 25 26  1  0
 15  4  1  0
 26 16  2  0
 14  8  1  0
 25 19  1  0
  1 27  1  0
  1 28  1  0
  1 29  1  0
  2 30  1  0
  3 31  1  0
  3 32  1  0
  3 33  1  0
  5 34  1  0
  9 35  1  0
 10 36  1  0
 13 37  1  0
 14 38  1  0
 17 39  1  0
 18 40  1  0
 21 41  1  0
 26 42  1  0
M  END
$$$$
