
     RDKit          3D

 41 41  0  0  0  0  0  0  0  0999 V2000
    5.3972   -1.0126    0.3566 C   0  0  0  0  0  0  0  0  0  0  0  0
    4.8467    0.0627   -0.5547 C   0  0  0  0  0  0  0  0  0  0  0  0
    5.1366    1.4653   -0.0895 C   0  0  0  0  0  0  0  0  0  0  0  0
    3.5102   -0.0744   -0.9574 N   0  0  0  0  0  0  0  0  0  0  0  0
    2.4899   -0.3676   -0.0548 C   0  0  0  0  0  0  0  0  0  0  0  0
    2.1150    0.6563    0.9812 C   0  0  0  0  0  0  0  0  0  0  0  0
    1.7709    1.8898    0.4890 O   0  0  0  0  0  0  0  0  0  0  0  0
    0.7485    0.1045    1.5503 C   0  0  0  0  0  0  0  0  0  0  0  0
   -0.0838    0.1525    0.4172 O   0  0  0  0  0  0  0  0  0  0  0  0
   -1.3944   -0.2053    0.3586 C   0  0  0  0  0  0  0  0  0  0  0  0
   -1.9070   -0.0182   -0.9014 C   0  0  0  0  0  0  0  0  0  0  0  0
   -3.2405   -0.3286   -1.1485 C   0  0  0  0  0  0  0  0  0  0  0  0
   -3.9832   -0.8213   -0.0699 C   0  0  0  0  0  0  0  0  0  0  0  0
   -5.4304   -1.1172   -0.3645 C   0  0  0  0  0  0  0  0  0  0  0  0
   -6.1659    0.0060    0.3210 C   0  0  0  0  0  0  0  0  0  0  0  0
   -6.8631    0.9929   -0.4747 N   0  0  0  0  0  0  0  0  0  0  0  0
   -6.2002    0.1147    1.5722 O   0  0  0  0  0  0  0  0  0  0  0  0
   -3.4610   -1.0088    1.1942 C   0  0  0  0  0  0  0  0  0  0  0  0
   -2.1118   -0.6892    1.4220 C   0  0  0  0  0  0  0  0  0  0  0  0
    6.3989   -1.3777   -0.0180 H   0  0  0  0  0  0  0  0  0  0  0  0
    5.5911   -0.6541    1.3836 H   0  0  0  0  0  0  0  0  0  0  0  0
    4.7366   -1.8863    0.4482 H   0  0  0  0  0  0  0  0  0  0  0  0
    5.4620   -0.0496   -1.5480 H   0  0  0  0  0  0  0  0  0  0  0  0
    4.8853    2.1364   -0.9644 H   0  0  0  0  0  0  0  0  0  0  0  0
    6.2025    1.5678    0.2093 H   0  0  0  0  0  0  0  0  0  0  0  0
    4.4802    1.7911    0.7123 H   0  0  0  0  0  0  0  0  0  0  0  0
    3.3388   -0.0042   -1.9509 H   0  0  0  0  0  0  0  0  0  0  0  0
    2.8108   -1.2824    0.5716 H   0  0  0  0  0  0  0  0  0  0  0  0
    1.5888   -0.7890   -0.5962 H   0  0  0  0  0  0  0  0  0  0  0  0
    2.7969    0.7023    1.8389 H   0  0  0  0  0  0  0  0  0  0  0  0
    0.8209    2.1080    0.6200 H   0  0  0  0  0  0  0  0  0  0  0  0
    0.4674    0.8099    2.3541 H   0  0  0  0  0  0  0  0  0  0  0  0
    0.9429   -0.9185    1.8643 H   0  0  0  0  0  0  0  0  0  0  0  0
   -1.3714    0.3636   -1.7786 H   0  0  0  0  0  0  0  0  0  0  0  0
   -3.7032   -0.2055   -2.1182 H   0  0  0  0  0  0  0  0  0  0  0  0
   -5.6655   -2.0919    0.0624 H   0  0  0  0  0  0  0  0  0  0  0  0
   -5.6140   -1.0742   -1.4554 H   0  0  0  0  0  0  0  0  0  0  0  0
   -7.5387    1.5233   -1.0580 H   0  0  0  0  0  0  0  0  0  0  0  0
   -6.0926    1.7338   -0.3871 H   0  0  0  0  0  0  0  0  0  0  0  0
   -4.0656   -1.3915    2.0042 H   0  0  0  0  0  0  0  0  0  0  0  0
   -1.6456   -0.8127    2.3963 H   0  0  0  0  0  0  0  0  0  0  0  0
  1  2  1  0
  2  3  1  0
  2  4  1  0
  4  5  1  0
  5  6  1  0
  6  7  1  0
  6  8  1  0
  8  9  1  0
  9 10  1  0
 10 11  2  0
 11 12  1  0
 12 13  2  0
 13 14  1  0
 14 15  1  0
 15 16  1  0
 15 17  2  0
 13 18  1  0
 18 19  2  0
 19 10  1  0
  1 20  1  0
  1 21  1  0
  1 22  1  0
  2 23  1  0
  3 24  1  0
  3 25  1  0
  3 26  1  0
  4 27  1  0
  5 28  1  0
  5 29  1  0
  6 30  1  0
  7 31  1  0
  8 32  1  0
  8 33  1  0
 11 34  1  0
 12 35  1  0
 14 36  1  0
 14 37  1  0
 16 38  1  0
 16 39  1  0
 18 40  1  0
 19 41  1  0
M  END
$$$$
