@<TRIPOS>MOLECULE
*****
 41 41 0 0 0
SMALL
GASTEIGER

@<TRIPOS>ATOM
      1 C           5.3972   -1.0126    0.3566 C.3     1  UNL1       -0.0499
      2 C           4.8467    0.0627   -0.5547 C.3     1  UNL1        0.0021
      3 C           5.1366    1.4653   -0.0895 C.3     1  UNL1       -0.0499
      4 N           3.5102   -0.0744   -0.9574 N.3     1  UNL1       -0.3112
      5 C           2.4899   -0.3676   -0.0548 C.3     1  UNL1        0.0254
      6 C           2.1150    0.6563    0.9812 C.3     1  UNL1        0.1015
      7 O           1.7709    1.8898    0.4890 O.3     1  UNL1       -0.3872
      8 C           0.7485    0.1045    1.5503 C.3     1  UNL1        0.1166
      9 O          -0.0838    0.1525    0.4172 O.3     1  UNL1       -0.4894
     10 C          -1.3944   -0.2053    0.3586 C.ar    1  UNL1        0.1206
     11 C          -1.9070   -0.0182   -0.9014 C.ar    1  UNL1       -0.0197
     12 C          -3.2405   -0.3286   -1.1485 C.ar    1  UNL1       -0.0547
     13 C          -3.9832   -0.8213   -0.0699 C.ar    1  UNL1       -0.0384
     14 C          -5.4304   -1.1172   -0.3645 C.3     1  UNL1        0.0489
     15 C          -6.1659    0.0060    0.3210 C.2     1  UNL1        0.2148
     16 N          -6.8631    0.9929   -0.4747 N.am    1  UNL1       -0.3291
     17 O          -6.2002    0.1147    1.5722 O.2     1  UNL1       -0.2757
     18 C          -3.4610   -1.0088    1.1942 C.ar    1  UNL1       -0.0547
     19 C          -2.1118   -0.6892    1.4220 C.ar    1  UNL1       -0.0197
     20 H           6.3989   -1.3777   -0.0180 H       1  UNL1        0.0245
     21 H           5.5911   -0.6541    1.3836 H       1  UNL1        0.0245
     22 H           4.7366   -1.8863    0.4482 H       1  UNL1        0.0245
     23 H           5.4620   -0.0496   -1.5480 H       1  UNL1        0.0455
     24 H           4.8853    2.1364   -0.9644 H       1  UNL1        0.0245
     25 H           6.2025    1.5678    0.2093 H       1  UNL1        0.0245
     26 H           4.4802    1.7911    0.7123 H       1  UNL1        0.0245
     27 H           3.3388   -0.0042   -1.9509 H       1  UNL1        0.1223
     28 H           2.8108   -1.2824    0.5716 H       1  UNL1        0.0450
     29 H           1.5888   -0.7890   -0.5962 H       1  UNL1        0.0450
     30 H           2.7969    0.7023    1.8389 H       1  UNL1        0.0640
     31 H           0.8209    2.1080    0.6200 H       1  UNL1        0.2100
     32 H           0.4674    0.8099    2.3541 H       1  UNL1        0.0723
     33 H           0.9429   -0.9185    1.8643 H       1  UNL1        0.0723
     34 H          -1.3714    0.3636   -1.7786 H       1  UNL1        0.0654
     35 H          -3.7032   -0.2055   -2.1182 H       1  UNL1        0.0622
     36 H          -5.6655   -2.0919    0.0624 H       1  UNL1        0.0407
     37 H          -5.6140   -1.0742   -1.4554 H       1  UNL1        0.0407
     38 H          -7.5387    1.5233   -1.0580 H       1  UNL1        0.1449
     39 H          -6.0926    1.7338   -0.3871 H       1  UNL1        0.1449
     40 H          -4.0656   -1.3915    2.0042 H       1  UNL1        0.0622
     41 H          -1.6456   -0.8127    2.3963 H       1  UNL1        0.0654
@<TRIPOS>BOND
     1     1     2    1
     2     2     3    1
     3     2     4    1
     4     4     5    1
     5     5     6    1
     6     6     7    1
     7     6     8    1
     8     8     9    1
     9     9    10    1
    10    10    11   ar
    11    11    12   ar
    12    12    13   ar
    13    13    14    1
    14    14    15    1
    15    15    16   am
    16    15    17    2
    17    13    18   ar
    18    18    19   ar
    19    19    10   ar
    20     1    20    1
    21     1    21    1
    22     1    22    1
    23     2    23    1
    24     3    24    1
    25     3    25    1
    26     3    26    1
    27     4    27    1
    28     5    28    1
    29     5    29    1
    30     6    30    1
    31     7    31    1
    32     8    32    1
    33     8    33    1
    34    11    34    1
    35    12    35    1
    36    14    36    1
    37    14    37    1
    38    16    38    1
    39    16    39    1
    40    18    40    1
    41    19    41    1
