
     RDKit          3D

134136  0  0  0  0  0  0  0  0999 V2000
    1.9200   -6.3864    0.1759 C   0  0  0  0  0  0  0  0  0  0  0  0
    2.8806   -5.2865    0.6389 C   0  0  0  0  0  0  0  0  0  0  0  0
    2.4406   -3.9435    0.2019 C   0  0  1  0  0  0  0  0  0  0  0  0
    1.1937   -3.5036    0.6460 O   0  0  0  0  0  0  0  0  0  0  0  0
    0.1679   -2.9101   -0.0330 C   0  0  0  0  0  0  0  0  0  0  0  0
    0.1061   -2.5884   -1.2451 O   0  0  0  0  0  0  0  0  0  0  0  0
   -1.0971   -2.5579    0.6701 C   0  0  2  0  0  0  0  0  0  0  0  0
   -2.0730   -3.6311    0.8185 C   0  0  0  0  0  0  0  0  0  0  0  0
   -1.6214   -1.1915    0.1649 C   0  0  1  0  0  0  0  0  0  0  0  0
   -2.9217   -1.0065    0.6316 O   0  0  0  0  0  0  0  0  0  0  0  0
   -3.9382   -1.2482   -0.2645 C   0  0  1  0  0  0  0  0  0  0  0  0
   -5.0352   -1.9580    0.4416 C   0  0  0  0  0  0  0  0  0  0  0  0
   -6.2226   -2.1169   -0.4704 C   0  0  1  0  0  0  0  0  0  0  0  0
   -6.4279   -3.6422   -0.6025 C   0  0  0  0  0  0  0  0  0  0  0  0
   -7.3906   -1.5699    0.0722 O   0  0  0  0  0  0  0  0  0  0  0  0
   -7.7819   -2.1298    1.2599 C   0  0  0  0  0  0  0  0  0  0  0  0
   -6.0286   -1.6207   -1.8584 C   0  0  1  0  0  0  0  0  0  0  0  0
   -7.3100   -1.2545   -2.3382 O   0  0  0  0  0  0  0  0  0  0  0  0
   -5.1345   -0.4413   -1.9834 C   0  0  2  0  0  0  0  0  0  0  0  0
   -4.0178   -0.8459   -2.9399 C   0  0  0  0  0  0  0  0  0  0  0  0
   -4.5370   -0.0692   -0.7748 O   0  0  0  0  0  0  0  0  0  0  0  0
   -0.7425   -0.1259    0.7693 C   0  0  2  0  0  0  0  0  0  0  0  0
   -1.0056   -0.2399    2.2659 C   0  0  0  0  0  0  0  0  0  0  0  0
   -0.5828    1.1974    0.2519 C   0  0  1  0  0  0  0  0  0  0  0  0
   -1.5546    2.1358    0.1601 O   0  0  0  0  0  0  0  0  0  0  0  0
   -1.7294    2.9229   -0.9281 C   0  0  2  0  0  0  0  0  0  0  0  0
   -1.2739    4.1785   -0.5259 O   0  0  0  0  0  0  0  0  0  0  0  0
   -2.1472    5.0819   -0.0338 C   0  0  2  0  0  0  0  0  0  0  0  0
   -2.8582    4.6408    1.2088 C   0  0  0  0  0  0  0  0  0  0  0  0
   -3.1586    5.5228   -1.0867 C   0  0  0  0  0  0  0  0  0  0  0  0
   -3.1974    4.4650   -2.1767 C   0  0  1  0  0  0  0  0  0  0  0  0
   -3.0709    3.1058   -1.5104 C   0  0  1  0  0  0  0  0  0  0  0  0
   -3.3811    2.1973   -2.5201 O   0  0  0  0  0  0  0  0  0  0  0  0
   -4.3011    4.5455   -3.0576 N   0  0  0  0  0  0  0  0  0  0  0  0
   -4.3964    5.7654   -3.7761 C   0  0  0  0  0  0  0  0  0  0  0  0
   -5.5062    3.9084   -2.6810 C   0  0  0  0  0  0  0  0  0  0  0  0
    0.7219    1.9298    0.8007 C   0  0  2  0  0  0  0  0  0  0  0  0
    0.5226    2.4647    2.1571 C   0  0  0  0  0  0  0  0  0  0  0  0
    0.9835    2.9046   -0.1582 O   0  0  0  0  0  0  0  0  0  0  0  0
    1.8830    0.9950    0.7670 C   0  0  0  0  0  0  0  0  0  0  0  0
    3.2452    1.5321    1.0380 C   0  0  1  0  0  0  0  0  0  0  0  0
    3.5222    2.2170    2.3089 C   0  0  0  0  0  0  0  0  0  0  0  0
    4.1894    0.3320    0.9725 C   0  0  0  0  0  0  0  0  0  0  0  0
    5.0005    0.1939    2.0033 N   0  0  0  0  0  0  0  0  0  0  0  0
    5.9107   -0.7887    2.1444 O   0  0  0  0  0  0  0  0  0  0  0  0
    6.9996   -0.6138    3.0247 C   0  0  0  0  0  0  0  0  0  0  0  0
    7.7231    0.4947    2.5980 O   0  0  0  0  0  0  0  0  0  0  0  0
    8.1545    0.2073    1.2790 C   0  0  0  0  0  0  0  0  0  0  0  0
    8.9458    1.4259    0.8565 C   0  0  0  0  0  0  0  0  0  0  0  0
    9.4379    1.3162   -0.4177 O   0  0  0  0  0  0  0  0  0  0  0  0
   10.2916    0.2694   -0.6445 C   0  0  0  0  0  0  0  0  0  0  0  0
    4.2895   -0.6269   -0.1415 C   0  0  2  0  0  0  0  0  0  0  0  0
    4.5901    0.1399   -1.4407 C   0  0  0  0  0  0  0  0  0  0  0  0
    3.3077   -1.6892   -0.2857 C   0  0  1  0  0  0  0  0  0  0  0  0
    3.5281   -2.2664   -1.5955 O   0  0  0  0  0  0  0  0  0  0  0  0
    3.5144   -2.9039    0.6480 C   0  0  1  0  0  0  0  0  0  0  0  0
    3.3492   -2.6494    2.0824 C   0  0  0  0  0  0  0  0  0  0  0  0
    4.7978   -3.3398    0.3561 O   0  0  0  0  0  0  0  0  0  0  0  0
    1.6732   -6.1255   -0.8685 H   0  0  0  0  0  0  0  0  0  0  0  0
    2.3994   -7.3775    0.1538 H   0  0  0  0  0  0  0  0  0  0  0  0
    1.0471   -6.4295    0.8338 H   0  0  0  0  0  0  0  0  0  0  0  0
    2.9575   -5.4144    1.7249 H   0  0  0  0  0  0  0  0  0  0  0  0
    3.9096   -5.4922    0.2339 H   0  0  0  0  0  0  0  0  0  0  0  0
    2.3995   -3.8307   -0.9329 H   0  0  0  0  0  0  0  0  0  0  0  0
   -0.7488   -2.3086    1.7412 H   0  0  0  0  0  0  0  0  0  0  0  0
   -1.5819   -4.6494    0.8650 H   0  0  0  0  0  0  0  0  0  0  0  0
   -2.6343   -3.5767    1.7829 H   0  0  0  0  0  0  0  0  0  0  0  0
   -2.7667   -3.7516   -0.0671 H   0  0  0  0  0  0  0  0  0  0  0  0
   -1.5986   -1.2433   -0.9009 H   0  0  0  0  0  0  0  0  0  0  0  0
   -3.5659   -1.7647   -1.1359 H   0  0  0  0  0  0  0  0  0  0  0  0
   -5.4035   -1.2390    1.2611 H   0  0  0  0  0  0  0  0  0  0  0  0
   -4.7611   -2.9183    0.9307 H   0  0  0  0  0  0  0  0  0  0  0  0
   -7.1140   -3.8505   -1.4269 H   0  0  0  0  0  0  0  0  0  0  0  0
   -6.6455   -4.1206    0.3517 H   0  0  0  0  0  0  0  0  0  0  0  0
   -5.3929   -4.0067   -0.8783 H   0  0  0  0  0  0  0  0  0  0  0  0
   -7.0561   -2.0547    2.0901 H   0  0  0  0  0  0  0  0  0  0  0  0
   -8.6619   -1.5127    1.6120 H   0  0  0  0  0  0  0  0  0  0  0  0
   -8.2322   -3.1588    1.1599 H   0  0  0  0  0  0  0  0  0  0  0  0
   -5.7210   -2.4458   -2.5593 H   0  0  0  0  0  0  0  0  0  0  0  0
   -7.7241   -1.9303   -2.8970 H   0  0  0  0  0  0  0  0  0  0  0  0
   -5.6638    0.4060   -2.4445 H   0  0  0  0  0  0  0  0  0  0  0  0
   -4.1839   -0.3990   -3.9493 H   0  0  0  0  0  0  0  0  0  0  0  0
   -3.0216   -0.5043   -2.6317 H   0  0  0  0  0  0  0  0  0  0  0  0
   -3.9674   -1.9399   -3.1061 H   0  0  0  0  0  0  0  0  0  0  0  0
    0.3028   -0.6212    0.6864 H   0  0  0  0  0  0  0  0  0  0  0  0
   -0.2087   -0.6363    2.8629 H   0  0  0  0  0  0  0  0  0  0  0  0
   -1.8857   -0.9073    2.3768 H   0  0  0  0  0  0  0  0  0  0  0  0
   -1.4487    0.7402    2.6292 H   0  0  0  0  0  0  0  0  0  0  0  0
   -0.1984    1.1338   -0.7973 H   0  0  0  0  0  0  0  0  0  0  0  0
   -1.0310    2.6803   -1.7748 H   0  0  0  0  0  0  0  0  0  0  0  0
   -1.5455    5.9924    0.2318 H   0  0  0  0  0  0  0  0  0  0  0  0
   -3.9653    4.8244    1.1104 H   0  0  0  0  0  0  0  0  0  0  0  0
   -2.5128    5.3084    2.0545 H   0  0  0  0  0  0  0  0  0  0  0  0
   -2.6412    3.6139    1.5116 H   0  0  0  0  0  0  0  0  0  0  0  0
   -4.1423    5.5497   -0.6086 H   0  0  0  0  0  0  0  0  0  0  0  0
   -2.9017    6.5230   -1.4447 H   0  0  0  0  0  0  0  0  0  0  0  0
   -2.2677    4.5960   -2.7684 H   0  0  0  0  0  0  0  0  0  0  0  0
   -3.9000    3.0539   -0.7497 H   0  0  0  0  0  0  0  0  0  0  0  0
   -3.0650    2.5360   -3.3953 H   0  0  0  0  0  0  0  0  0  0  0  0
   -3.3617    6.2186   -3.7839 H   0  0  0  0  0  0  0  0  0  0  0  0
   -5.1475    6.4871   -3.4236 H   0  0  0  0  0  0  0  0  0  0  0  0
   -4.5823    5.5312   -4.8510 H   0  0  0  0  0  0  0  0  0  0  0  0
   -6.3395    4.6345   -2.9150 H   0  0  0  0  0  0  0  0  0  0  0  0
   -5.7249    3.0282   -3.3423 H   0  0  0  0  0  0  0  0  0  0  0  0
   -5.6411    3.6451   -1.6341 H   0  0  0  0  0  0  0  0  0  0  0  0
    1.2417    3.2851    2.4274 H   0  0  0  0  0  0  0  0  0  0  0  0
   -0.5262    2.8300    2.2771 H   0  0  0  0  0  0  0  0  0  0  0  0
    0.6508    1.6973    2.9382 H   0  0  0  0  0  0  0  0  0  0  0  0
    1.3658    2.4429   -0.9606 H   0  0  0  0  0  0  0  0  0  0  0  0
    1.7638    0.1306    1.4435 H   0  0  0  0  0  0  0  0  0  0  0  0
    1.9405    0.7001   -0.3346 H   0  0  0  0  0  0  0  0  0  0  0  0
    3.5373    2.2113    0.1876 H   0  0  0  0  0  0  0  0  0  0  0  0
    4.6090    1.9905    2.5850 H   0  0  0  0  0  0  0  0  0  0  0  0
    2.9803    1.8303    3.1946 H   0  0  0  0  0  0  0  0  0  0  0  0
    3.5536    3.3310    2.2462 H   0  0  0  0  0  0  0  0  0  0  0  0
    6.6079   -0.3800    4.0409 H   0  0  0  0  0  0  0  0  0  0  0  0
    7.6594   -1.5125    3.0405 H   0  0  0  0  0  0  0  0  0  0  0  0
    8.7795   -0.7072    1.2884 H   0  0  0  0  0  0  0  0  0  0  0  0
    7.2884    0.0255    0.6267 H   0  0  0  0  0  0  0  0  0  0  0  0
    8.3169    2.3425    0.8884 H   0  0  0  0  0  0  0  0  0  0  0  0
    9.7489    1.6156    1.6125 H   0  0  0  0  0  0  0  0  0  0  0  0
    9.7740   -0.6801   -0.4484 H   0  0  0  0  0  0  0  0  0  0  0  0
   11.1856    0.3066    0.0143 H   0  0  0  0  0  0  0  0  0  0  0  0
   10.6671    0.3457   -1.6897 H   0  0  0  0  0  0  0  0  0  0  0  0
    5.2931   -1.1539    0.0426 H   0  0  0  0  0  0  0  0  0  0  0  0
    5.1444   -0.5884   -2.0950 H   0  0  0  0  0  0  0  0  0  0  0  0
    5.3139    0.9255   -1.1516 H   0  0  0  0  0  0  0  0  0  0  0  0
    3.6936    0.5224   -1.9242 H   0  0  0  0  0  0  0  0  0  0  0  0
    2.2890   -1.3827   -0.3015 H   0  0  0  0  0  0  0  0  0  0  0  0
    3.2406   -1.5759   -2.2338 H   0  0  0  0  0  0  0  0  0  0  0  0
    2.5416   -3.3432    2.4870 H   0  0  0  0  0  0  0  0  0  0  0  0
    4.2560   -2.8902    2.6986 H   0  0  0  0  0  0  0  0  0  0  0  0
    2.9652   -1.6523    2.2805 H   0  0  0  0  0  0  0  0  0  0  0  0
    5.2117   -3.9032    1.0458 H   0  0  0  0  0  0  0  0  0  0  0  0
  1  2  1  0
  2  3  1  0
  3  4  1  0
  4  5  1  0
  5  6  2  0
  5  7  1  0
  7  8  1  0
  7  9  1  0
  9 10  1  0
 10 11  1  0
 11 12  1  0
 12 13  1  0
 13 14  1  0
 13 15  1  1
 15 16  1  0
 13 17  1  0
 17 18  1  0
 17 19  1  0
 19 20  1  0
 19 21  1  0
  9 22  1  0
 22 23  1  0
 22 24  1  0
 24 25  1  0
 25 26  1  0
 26 27  1  0
 27 28  1  0
 28 29  1  0
 28 30  1  0
 30 31  1  0
 31 32  1  0
 32 33  1  0
 31 34  1  0
 34 35  1  0
 34 36  1  0
 24 37  1  0
 37 38  1  0
 37 39  1  6
 37 40  1  0
 40 41  1  0
 41 42  1  0
 41 43  1  0
 43 44  2  3
 44 45  1  0
 45 46  1  0
 46 47  1  0
 47 48  1  0
 48 49  1  0
 49 50  1  0
 50 51  1  0
 43 52  1  0
 52 53  1  0
 52 54  1  0
 54 55  1  0
 54 56  1  0
 56 57  1  0
 56 58  1  1
 56  3  1  0
 21 11  1  0
 32 26  1  0
  1 59  1  0
  1 60  1  0
  1 61  1  0
  2 62  1  0
  2 63  1  0
  3 64  1  6
  7 65  1  1
  8 66  1  0
  8 67  1  0
  8 68  1  0
  9 69  1  6
 11 70  1  6
 12 71  1  0
 12 72  1  0
 14 73  1  0
 14 74  1  0
 14 75  1  0
 16 76  1  0
 16 77  1  0
 16 78  1  0
 17 79  1  6
 18 80  1  0
 19 81  1  6
 20 82  1  0
 20 83  1  0
 20 84  1  0
 22 85  1  1
 23 86  1  0
 23 87  1  0
 23 88  1  0
 24 89  1  6
 26 90  1  6
 28 91  1  1
 29 92  1  0
 29 93  1  0
 29 94  1  0
 30 95  1  0
 30 96  1  0
 31 97  1  6
 32 98  1  1
 33 99  1  0
 35100  1  0
 35101  1  0
 35102  1  0
 36103  1  0
 36104  1  0
 36105  1  0
 38106  1  0
 38107  1  0
 38108  1  0
 39109  1  0
 40110  1  0
 40111  1  0
 41112  1  6
 42113  1  0
 42114  1  0
 42115  1  0
 46116  1  0
 46117  1  0
 48118  1  0
 48119  1  0
 49120  1  0
 49121  1  0
 51122  1  0
 51123  1  0
 51124  1  0
 52125  1  1
 53126  1  0
 53127  1  0
 53128  1  0
 54129  1  6
 55130  1  0
 57131  1  0
 57132  1  0
 57133  1  0
 58134  1  0
M  END
$$$$
