@<TRIPOS>MOLECULE
*****
 57 60 0 0 0
SMALL
GASTEIGER

@<TRIPOS>ATOM
      1 C           0.2205    2.8783    0.1672 C.3     1  UNL1       -0.0421
      2 C           0.5133    1.7908   -0.8313 C.3     1  UNL1        0.0515
      3 C           1.8054    1.1658   -0.5529 C.ar    1  UNL1       -0.0271
      4 C           2.6679    1.6750    0.3888 C.ar    1  UNL1       -0.0562
      5 C           3.8916    1.1147    0.6812 C.ar    1  UNL1       -0.0537
      6 C           4.3156   -0.0146    0.0215 C.ar    1  UNL1       -0.0179
      7 C           5.6028   -0.6373    0.3042 C.ar    1  UNL1       -0.0177
      8 C           6.1809   -0.6151    1.5501 C.ar    1  UNL1       -0.0513
      9 C           7.4178   -1.2237    1.7780 C.ar    1  UNL1       -0.0259
     10 C           8.0745   -1.8552    0.7529 C.ar    1  UNL1        0.1234
     11 F           9.2861   -2.4479    0.9874 F       1  UNL1       -0.2055
     12 C           7.5064   -1.8850   -0.5009 C.ar    1  UNL1       -0.0259
     13 C           6.2724   -1.2737   -0.7131 C.ar    1  UNL1       -0.0513
     14 C           3.4550   -0.5465   -0.9376 C.ar    1  UNL1       -0.0537
     15 C           2.2408    0.0204   -1.2188 C.ar    1  UNL1       -0.0562
     16 N          -0.5348    0.8338   -0.9390 N.am    1  UNL1       -0.2605
     17 C          -1.2879    0.6486   -2.1553 C.3     1  UNL1        0.0224
     18 C          -2.7404    0.6662   -1.7709 C.3     1  UNL1        0.0075
     19 C          -3.1510   -0.3564   -0.7667 C.3     1  UNL1        0.1435
     20 C          -3.6105   -1.6531   -1.4466 C.3     1  UNL1        0.0148
     21 C          -4.0251   -2.6742   -0.4212 C.3     1  UNL1        0.0482
     22 O          -4.4474   -3.8579   -0.9812 O.3     1  UNL1       -0.3949
     23 C          -4.2055    0.2286    0.0717 C.ar    1  UNL1       -0.0039
     24 C          -5.5271    0.1181   -0.2654 C.ar    1  UNL1       -0.0521
     25 C          -6.5343    0.6704    0.5258 C.ar    1  UNL1       -0.0261
     26 C          -6.2038    1.3401    1.6672 C.ar    1  UNL1        0.1234
     27 F          -7.1906    1.8879    2.4546 F       1  UNL1       -0.2055
     28 C          -4.8741    1.4659    2.0303 C.ar    1  UNL1       -0.0261
     29 C          -3.8756    0.9033    1.2213 C.ar    1  UNL1       -0.0521
     30 O          -2.0814   -0.7691    0.0992 O.3     1  UNL1       -0.4388
     31 C          -0.9042    0.0042    0.1599 C.2     1  UNL1        0.4042
     32 O          -0.1389    0.0059    1.1540 O.2     1  UNL1       -0.2262
     33 H          -0.7814    3.3349    0.0025 H       1  UNL1        0.0251
     34 H           0.3436    2.5417    1.2118 H       1  UNL1        0.0251
     35 H           0.9387    3.7014   -0.0109 H       1  UNL1        0.0251
     36 H           0.6118    2.3131   -1.8299 H       1  UNL1        0.0549
     37 H           2.3315    2.5801    0.9171 H       1  UNL1        0.0621
     38 H           4.5433    1.5409    1.4264 H       1  UNL1        0.0624
     39 H           5.6674   -0.1171    2.3686 H       1  UNL1        0.0624
     40 H           7.8284   -1.1781    2.7746 H       1  UNL1        0.0646
     41 H           8.0462   -2.3907   -1.2946 H       1  UNL1        0.0646
     42 H           5.8392   -1.3007   -1.6867 H       1  UNL1        0.0624
     43 H           3.7898   -1.4342   -1.4551 H       1  UNL1        0.0624
     44 H           1.6009   -0.4047   -1.9563 H       1  UNL1        0.0621
     45 H          -1.1214    1.4811   -2.8555 H       1  UNL1        0.0467
     46 H          -1.0712   -0.3368   -2.5975 H       1  UNL1        0.0467
     47 H          -3.3787    0.5622   -2.6692 H       1  UNL1        0.0322
     48 H          -2.9474    1.6823   -1.3648 H       1  UNL1        0.0322
     49 H          -2.7794   -2.0928   -2.0234 H       1  UNL1        0.0329
     50 H          -4.4682   -1.4842   -2.1242 H       1  UNL1        0.0329
     51 H          -4.8455   -2.2587    0.2336 H       1  UNL1        0.0558
     52 H          -3.1847   -2.9193    0.2789 H       1  UNL1        0.0558
     53 H          -4.1381   -4.6446   -0.4604 H       1  UNL1        0.2094
     54 H          -5.8598   -0.3924   -1.1458 H       1  UNL1        0.0622
     55 H          -7.5627    0.5643    0.2306 H       1  UNL1        0.0646
     56 H          -4.6600    2.0033    2.9399 H       1  UNL1        0.0646
     57 H          -2.8610    1.0405    1.5659 H       1  UNL1        0.0622
@<TRIPOS>BOND
     1     1     2    1
     2     2     3    1
     3     3     4   ar
     4     4     5   ar
     5     5     6   ar
     6     6     7    1
     7     7     8   ar
     8     8     9   ar
     9     9    10   ar
    10    10    11    1
    11    10    12   ar
    12    12    13   ar
    13     6    14   ar
    14    14    15   ar
    15     2    16    1
    16    16    17    1
    17    17    18    1
    18    18    19    1
    19    19    20    1
    20    20    21    1
    21    21    22    1
    22    19    23    1
    23    23    24   ar
    24    24    25   ar
    25    25    26   ar
    26    26    27    1
    27    26    28   ar
    28    28    29   ar
    29    19    30    1
    30    30    31    1
    31    31    32    2
    32    15     3   ar
    33    31    16   am
    34    13     7   ar
    35    29    23   ar
    36     1    33    1
    37     1    34    1
    38     1    35    1
    39     2    36    1
    40     4    37    1
    41     5    38    1
    42     8    39    1
    43     9    40    1
    44    12    41    1
    45    13    42    1
    46    14    43    1
    47    15    44    1
    48    17    45    1
    49    17    46    1
    50    18    47    1
    51    18    48    1
    52    20    49    1
    53    20    50    1
    54    21    51    1
    55    21    52    1
    56    22    53    1
    57    24    54    1
    58    25    55    1
    59    28    56    1
    60    29    57    1
