
     RDKit          3D

 57 60  0  0  0  0  0  0  0  0999 V2000
    0.2205    2.8783    0.1672 C   0  0  0  0  0  0  0  0  0  0  0  0
    0.5133    1.7908   -0.8313 C   0  0  1  0  0  0  0  0  0  0  0  0
    1.8054    1.1658   -0.5529 C   0  0  0  0  0  0  0  0  0  0  0  0
    2.6679    1.6750    0.3888 C   0  0  0  0  0  0  0  0  0  0  0  0
    3.8916    1.1147    0.6812 C   0  0  0  0  0  0  0  0  0  0  0  0
    4.3156   -0.0146    0.0215 C   0  0  0  0  0  0  0  0  0  0  0  0
    5.6028   -0.6373    0.3042 C   0  0  0  0  0  0  0  0  0  0  0  0
    6.1809   -0.6151    1.5501 C   0  0  0  0  0  0  0  0  0  0  0  0
    7.4178   -1.2237    1.7780 C   0  0  0  0  0  0  0  0  0  0  0  0
    8.0745   -1.8552    0.7529 C   0  0  0  0  0  0  0  0  0  0  0  0
    9.2861   -2.4479    0.9874 F   0  0  0  0  0  0  0  0  0  0  0  0
    7.5064   -1.8850   -0.5009 C   0  0  0  0  0  0  0  0  0  0  0  0
    6.2724   -1.2737   -0.7131 C   0  0  0  0  0  0  0  0  0  0  0  0
    3.4550   -0.5465   -0.9376 C   0  0  0  0  0  0  0  0  0  0  0  0
    2.2408    0.0204   -1.2188 C   0  0  0  0  0  0  0  0  0  0  0  0
   -0.5348    0.8338   -0.9390 N   0  0  0  0  0  0  0  0  0  0  0  0
   -1.2879    0.6486   -2.1553 C   0  0  0  0  0  0  0  0  0  0  0  0
   -2.7404    0.6662   -1.7709 C   0  0  0  0  0  0  0  0  0  0  0  0
   -3.1510   -0.3564   -0.7667 C   0  0  2  0  0  0  0  0  0  0  0  0
   -3.6105   -1.6531   -1.4466 C   0  0  0  0  0  0  0  0  0  0  0  0
   -4.0251   -2.6742   -0.4212 C   0  0  0  0  0  0  0  0  0  0  0  0
   -4.4474   -3.8579   -0.9812 O   0  0  0  0  0  0  0  0  0  0  0  0
   -4.2055    0.2286    0.0717 C   0  0  0  0  0  0  0  0  0  0  0  0
   -5.5271    0.1181   -0.2654 C   0  0  0  0  0  0  0  0  0  0  0  0
   -6.5343    0.6704    0.5258 C   0  0  0  0  0  0  0  0  0  0  0  0
   -6.2038    1.3401    1.6672 C   0  0  0  0  0  0  0  0  0  0  0  0
   -7.1906    1.8879    2.4546 F   0  0  0  0  0  0  0  0  0  0  0  0
   -4.8741    1.4659    2.0303 C   0  0  0  0  0  0  0  0  0  0  0  0
   -3.8756    0.9033    1.2213 C   0  0  0  0  0  0  0  0  0  0  0  0
   -2.0814   -0.7691    0.0992 O   0  0  0  0  0  0  0  0  0  0  0  0
   -0.9042    0.0042    0.1599 C   0  0  0  0  0  0  0  0  0  0  0  0
   -0.1389    0.0059    1.1540 O   0  0  0  0  0  0  0  0  0  0  0  0
   -0.7814    3.3349    0.0025 H   0  0  0  0  0  0  0  0  0  0  0  0
    0.3436    2.5417    1.2118 H   0  0  0  0  0  0  0  0  0  0  0  0
    0.9387    3.7014   -0.0109 H   0  0  0  0  0  0  0  0  0  0  0  0
    0.6118    2.3131   -1.8299 H   0  0  0  0  0  0  0  0  0  0  0  0
    2.3315    2.5801    0.9171 H   0  0  0  0  0  0  0  0  0  0  0  0
    4.5433    1.5409    1.4264 H   0  0  0  0  0  0  0  0  0  0  0  0
    5.6674   -0.1171    2.3686 H   0  0  0  0  0  0  0  0  0  0  0  0
    7.8284   -1.1781    2.7746 H   0  0  0  0  0  0  0  0  0  0  0  0
    8.0462   -2.3907   -1.2946 H   0  0  0  0  0  0  0  0  0  0  0  0
    5.8392   -1.3007   -1.6867 H   0  0  0  0  0  0  0  0  0  0  0  0
    3.7898   -1.4342   -1.4551 H   0  0  0  0  0  0  0  0  0  0  0  0
    1.6009   -0.4047   -1.9563 H   0  0  0  0  0  0  0  0  0  0  0  0
   -1.1214    1.4811   -2.8555 H   0  0  0  0  0  0  0  0  0  0  0  0
   -1.0712   -0.3368   -2.5975 H   0  0  0  0  0  0  0  0  0  0  0  0
   -3.3787    0.5622   -2.6692 H   0  0  0  0  0  0  0  0  0  0  0  0
   -2.9474    1.6823   -1.3648 H   0  0  0  0  0  0  0  0  0  0  0  0
   -2.7794   -2.0928   -2.0234 H   0  0  0  0  0  0  0  0  0  0  0  0
   -4.4682   -1.4842   -2.1242 H   0  0  0  0  0  0  0  0  0  0  0  0
   -4.8455   -2.2587    0.2336 H   0  0  0  0  0  0  0  0  0  0  0  0
   -3.1847   -2.9193    0.2789 H   0  0  0  0  0  0  0  0  0  0  0  0
   -4.1381   -4.6446   -0.4604 H   0  0  0  0  0  0  0  0  0  0  0  0
   -5.8598   -0.3924   -1.1458 H   0  0  0  0  0  0  0  0  0  0  0  0
   -7.5627    0.5643    0.2306 H   0  0  0  0  0  0  0  0  0  0  0  0
   -4.6600    2.0033    2.9399 H   0  0  0  0  0  0  0  0  0  0  0  0
   -2.8610    1.0405    1.5659 H   0  0  0  0  0  0  0  0  0  0  0  0
  1  2  1  0
  2  3  1  0
  3  4  2  0
  4  5  1  0
  5  6  2  0
  6  7  1  0
  7  8  2  0
  8  9  1  0
  9 10  2  0
 10 11  1  0
 10 12  1  0
 12 13  2  0
  6 14  1  0
 14 15  2  0
  2 16  1  0
 16 17  1  0
 17 18  1  0
 18 19  1  0
 19 20  1  6
 20 21  1  0
 21 22  1  0
 19 23  1  0
 23 24  2  0
 24 25  1  0
 25 26  2  0
 26 27  1  0
 26 28  1  0
 28 29  2  0
 19 30  1  0
 30 31  1  0
 31 32  2  0
 15  3  1  0
 31 16  1  0
 13  7  1  0
 29 23  1  0
  1 33  1  0
  1 34  1  0
  1 35  1  0
  2 36  1  6
  4 37  1  0
  5 38  1  0
  8 39  1  0
  9 40  1  0
 12 41  1  0
 13 42  1  0
 14 43  1  0
 15 44  1  0
 17 45  1  0
 17 46  1  0
 18 47  1  0
 18 48  1  0
 20 49  1  0
 20 50  1  0
 21 51  1  0
 21 52  1  0
 22 53  1  0
 24 54  1  0
 25 55  1  0
 28 56  1  0
 29 57  1  0
M  END
$$$$
