@<TRIPOS>MOLECULE
*****
 68 71 0 0 0
SMALL
GASTEIGER

@<TRIPOS>ATOM
      1 C          -7.7026    2.3453    2.3766 C.3     1  UNL1       -0.0607
      2 C          -7.8952    1.4848    1.1530 C.3     1  UNL1       -0.0194
      3 C          -9.1619    0.6911    1.2444 C.3     1  UNL1       -0.0607
      4 C          -6.6813    0.6296    0.9218 C.3     1  UNL1        0.1276
      5 N          -6.4152   -0.2405    2.0302 N.3     1  UNL1       -0.1759
      6 S          -4.8740    0.0300    2.7455 S.O2    1  UNL1        0.0591
      7 O          -4.7991    1.4456    3.1940 O.2     1  UNL1       -0.1530
      8 O          -4.7084   -0.8501    3.9590 O.2     1  UNL1       -0.1530
      9 C          -3.5733   -0.2655    1.5972 C.ar    1  UNL1        0.1053
     10 C          -3.0603    0.7596    0.8365 C.ar    1  UNL1       -0.0348
     11 C          -2.0363    0.5039   -0.0708 C.ar    1  UNL1       -0.0522
     12 C          -1.5060   -0.7682   -0.2379 C.ar    1  UNL1       -0.0178
     13 C          -0.4314   -0.9905   -1.2052 C.ar    1  UNL1       -0.0179
     14 C           0.5242   -1.9613   -1.0065 C.ar    1  UNL1       -0.0537
     15 C           1.5500   -2.1722   -1.9318 C.ar    1  UNL1       -0.0548
     16 C           1.6588   -1.4292   -3.0770 C.ar    1  UNL1       -0.0104
     17 C           2.7186   -1.5722   -4.1086 C.3     1  UNL1        0.1146
     18 O           3.7481   -0.7100   -4.0438 O.3     1  UNL1       -0.4874
     19 C           4.7102   -0.4234   -3.1744 C.ar    1  UNL1        0.1210
     20 C           4.9437   -1.0176   -1.9614 C.ar    1  UNL1       -0.0193
     21 C           5.9725   -0.6509   -1.1181 C.ar    1  UNL1       -0.0475
     22 C           6.8489    0.3553   -1.4450 C.ar    1  UNL1        0.0225
     23 C           7.9060    0.7528   -0.5535 C.2     1  UNL1        0.1931
     24 O           8.9557    1.2598   -1.0132 O.2     1  UNL1       -0.2867
     25 C           7.7884    0.5803    0.8824 C.ar    1  UNL1        0.0224
     26 C           6.5584    0.5775    1.4849 C.ar    1  UNL1       -0.0482
     27 C           6.4744    0.3837    2.8446 C.ar    1  UNL1       -0.0258
     28 C           7.5833    0.1901    3.6437 C.ar    1  UNL1        0.1234
     29 F           7.4890   -0.0001    4.9855 F       1  UNL1       -0.2055
     30 C           8.8047    0.2011    2.9961 C.ar    1  UNL1       -0.0258
     31 C           8.9173    0.3911    1.6454 C.ar    1  UNL1       -0.0482
     32 C           6.6395    0.9756   -2.6668 C.ar    1  UNL1       -0.0475
     33 C           5.6198    0.6087   -3.4977 C.ar    1  UNL1       -0.0193
     34 C           0.6782   -0.4412   -3.2699 C.ar    1  UNL1       -0.0548
     35 C          -0.3305   -0.2370   -2.3566 C.ar    1  UNL1       -0.0537
     36 C          -2.0404   -1.7730    0.5381 C.ar    1  UNL1       -0.0522
     37 C          -3.0591   -1.5350    1.4450 C.ar    1  UNL1       -0.0348
     38 C          -6.7947   -0.1544   -0.3410 C.2     1  UNL1        0.3238
     39 O          -7.0250    0.4580   -1.4050 O.2     1  UNL1       -0.2492
     40 O          -6.6556   -1.5254   -0.3797 O.3     1  UNL1       -0.4795
     41 H          -7.5215    1.7469    3.2912 H       1  UNL1        0.0233
     42 H          -8.5832    3.0077    2.5585 H       1  UNL1        0.0233
     43 H          -6.8363    3.0274    2.2598 H       1  UNL1        0.0233
     44 H          -8.0241    2.2055    0.2973 H       1  UNL1        0.0316
     45 H          -9.6363    0.6342    0.2412 H       1  UNL1        0.0233
     46 H          -9.8700    1.2438    1.8954 H       1  UNL1        0.0233
     47 H          -9.0090   -0.3129    1.6905 H       1  UNL1        0.0233
     48 H          -5.8070    1.3166    0.7892 H       1  UNL1        0.0595
     49 H          -6.5868   -1.2495    1.8132 H       1  UNL1        0.1489
     50 H          -3.4679    1.7556    0.9632 H       1  UNL1        0.0637
     51 H          -1.6362    1.3083   -0.6659 H       1  UNL1        0.0624
     52 H           0.4718   -2.5660   -0.1161 H       1  UNL1        0.0624
     53 H           2.2917   -2.9560   -1.7605 H       1  UNL1        0.0622
     54 H           3.0121   -2.6640   -4.1292 H       1  UNL1        0.0748
     55 H           2.1638   -1.4789   -5.1062 H       1  UNL1        0.0748
     56 H           4.3234   -1.8124   -1.6277 H       1  UNL1        0.0654
     57 H           6.0721   -1.2115   -0.1872 H       1  UNL1        0.0626
     58 H           5.6363    0.7490    0.8994 H       1  UNL1        0.0625
     59 H           5.4873    0.3824    3.3187 H       1  UNL1        0.0646
     60 H           9.6764    0.0500    3.6194 H       1  UNL1        0.0646
     61 H           9.9134    0.3931    1.1625 H       1  UNL1        0.0625
     62 H           7.3143    1.7702   -2.9503 H       1  UNL1        0.0626
     63 H           5.4665    1.1041   -4.4543 H       1  UNL1        0.0654
     64 H           0.7537    0.1593   -4.1819 H       1  UNL1        0.0622
     65 H          -1.0821    0.5239   -2.5091 H       1  UNL1        0.0624
     66 H          -1.6422   -2.7748    0.4252 H       1  UNL1        0.0624
     67 H          -3.4616   -2.3554    2.0466 H       1  UNL1        0.0637
     68 H          -6.7580   -2.0728   -1.2430 H       1  UNL1        0.2951
@<TRIPOS>BOND
     1     1     2    1
     2     2     3    1
     3     2     4    1
     4     4     5    1
     5     5     6    1
     6     6     7    2
     7     6     8    2
     8     6     9    1
     9     9    10   ar
    10    10    11   ar
    11    11    12   ar
    12    12    13    1
    13    13    14   ar
    14    14    15   ar
    15    15    16   ar
    16    16    17    1
    17    17    18    1
    18    18    19    1
    19    19    20   ar
    20    20    21   ar
    21    21    22   ar
    22    22    23    1
    23    23    24    2
    24    23    25    1
    25    25    26   ar
    26    26    27   ar
    27    27    28   ar
    28    28    29    1
    29    28    30   ar
    30    30    31   ar
    31    22    32   ar
    32    32    33   ar
    33    16    34   ar
    34    34    35   ar
    35    12    36   ar
    36    36    37   ar
    37     4    38    1
    38    38    39    2
    39    38    40    1
    40    37     9   ar
    41    35    13   ar
    42    33    19   ar
    43    31    25   ar
    44     1    41    1
    45     1    42    1
    46     1    43    1
    47     2    44    1
    48     3    45    1
    49     3    46    1
    50     3    47    1
    51     4    48    1
    52     5    49    1
    53    10    50    1
    54    11    51    1
    55    14    52    1
    56    15    53    1
    57    17    54    1
    58    17    55    1
    59    20    56    1
    60    21    57    1
    61    26    58    1
    62    27    59    1
    63    30    60    1
    64    31    61    1
    65    32    62    1
    66    33    63    1
    67    34    64    1
    68    35    65    1
    69    36    66    1
    70    37    67    1
    71    40    68    1
