
     RDKit          3D

 68 71  0  0  0  0  0  0  0  0999 V2000
   -7.7026    2.3453    2.3766 C   0  0  0  0  0  0  0  0  0  0  0  0
   -7.8952    1.4848    1.1530 C   0  0  0  0  0  0  0  0  0  0  0  0
   -9.1619    0.6911    1.2444 C   0  0  0  0  0  0  0  0  0  0  0  0
   -6.6813    0.6296    0.9218 C   0  0  1  0  0  0  0  0  0  0  0  0
   -6.4152   -0.2405    2.0302 N   0  0  0  0  0  0  0  0  0  0  0  0
   -4.8740    0.0300    2.7455 S   0  0  0  0  0  6  0  0  0  0  0  0
   -4.7991    1.4456    3.1940 O   0  0  0  0  0  0  0  0  0  0  0  0
   -4.7084   -0.8501    3.9590 O   0  0  0  0  0  0  0  0  0  0  0  0
   -3.5733   -0.2655    1.5972 C   0  0  0  0  0  0  0  0  0  0  0  0
   -3.0603    0.7596    0.8365 C   0  0  0  0  0  0  0  0  0  0  0  0
   -2.0363    0.5039   -0.0708 C   0  0  0  0  0  0  0  0  0  0  0  0
   -1.5060   -0.7682   -0.2379 C   0  0  0  0  0  0  0  0  0  0  0  0
   -0.4314   -0.9905   -1.2052 C   0  0  0  0  0  0  0  0  0  0  0  0
    0.5242   -1.9613   -1.0065 C   0  0  0  0  0  0  0  0  0  0  0  0
    1.5500   -2.1722   -1.9318 C   0  0  0  0  0  0  0  0  0  0  0  0
    1.6588   -1.4292   -3.0770 C   0  0  0  0  0  0  0  0  0  0  0  0
    2.7186   -1.5722   -4.1086 C   0  0  0  0  0  0  0  0  0  0  0  0
    3.7481   -0.7100   -4.0438 O   0  0  0  0  0  0  0  0  0  0  0  0
    4.7102   -0.4234   -3.1744 C   0  0  0  0  0  0  0  0  0  0  0  0
    4.9437   -1.0176   -1.9614 C   0  0  0  0  0  0  0  0  0  0  0  0
    5.9725   -0.6509   -1.1181 C   0  0  0  0  0  0  0  0  0  0  0  0
    6.8489    0.3553   -1.4450 C   0  0  0  0  0  0  0  0  0  0  0  0
    7.9060    0.7528   -0.5535 C   0  0  0  0  0  0  0  0  0  0  0  0
    8.9557    1.2598   -1.0132 O   0  0  0  0  0  0  0  0  0  0  0  0
    7.7884    0.5803    0.8824 C   0  0  0  0  0  0  0  0  0  0  0  0
    6.5584    0.5775    1.4849 C   0  0  0  0  0  0  0  0  0  0  0  0
    6.4744    0.3837    2.8446 C   0  0  0  0  0  0  0  0  0  0  0  0
    7.5833    0.1901    3.6437 C   0  0  0  0  0  0  0  0  0  0  0  0
    7.4890   -0.0001    4.9855 F   0  0  0  0  0  0  0  0  0  0  0  0
    8.8047    0.2011    2.9961 C   0  0  0  0  0  0  0  0  0  0  0  0
    8.9173    0.3911    1.6454 C   0  0  0  0  0  0  0  0  0  0  0  0
    6.6395    0.9756   -2.6668 C   0  0  0  0  0  0  0  0  0  0  0  0
    5.6198    0.6087   -3.4977 C   0  0  0  0  0  0  0  0  0  0  0  0
    0.6782   -0.4412   -3.2699 C   0  0  0  0  0  0  0  0  0  0  0  0
   -0.3305   -0.2370   -2.3566 C   0  0  0  0  0  0  0  0  0  0  0  0
   -2.0404   -1.7730    0.5381 C   0  0  0  0  0  0  0  0  0  0  0  0
   -3.0591   -1.5350    1.4450 C   0  0  0  0  0  0  0  0  0  0  0  0
   -6.7947   -0.1544   -0.3410 C   0  0  0  0  0  0  0  0  0  0  0  0
   -7.0250    0.4580   -1.4050 O   0  0  0  0  0  0  0  0  0  0  0  0
   -6.6556   -1.5254   -0.3797 O   0  0  0  0  0  0  0  0  0  0  0  0
   -7.5215    1.7469    3.2912 H   0  0  0  0  0  0  0  0  0  0  0  0
   -8.5832    3.0077    2.5585 H   0  0  0  0  0  0  0  0  0  0  0  0
   -6.8363    3.0274    2.2598 H   0  0  0  0  0  0  0  0  0  0  0  0
   -8.0241    2.2055    0.2973 H   0  0  0  0  0  0  0  0  0  0  0  0
   -9.6363    0.6342    0.2412 H   0  0  0  0  0  0  0  0  0  0  0  0
   -9.8700    1.2438    1.8954 H   0  0  0  0  0  0  0  0  0  0  0  0
   -9.0090   -0.3129    1.6905 H   0  0  0  0  0  0  0  0  0  0  0  0
   -5.8070    1.3166    0.7892 H   0  0  0  0  0  0  0  0  0  0  0  0
   -6.5868   -1.2495    1.8132 H   0  0  0  0  0  0  0  0  0  0  0  0
   -3.4679    1.7556    0.9632 H   0  0  0  0  0  0  0  0  0  0  0  0
   -1.6362    1.3083   -0.6659 H   0  0  0  0  0  0  0  0  0  0  0  0
    0.4718   -2.5660   -0.1161 H   0  0  0  0  0  0  0  0  0  0  0  0
    2.2917   -2.9560   -1.7605 H   0  0  0  0  0  0  0  0  0  0  0  0
    3.0121   -2.6640   -4.1292 H   0  0  0  0  0  0  0  0  0  0  0  0
    2.1638   -1.4789   -5.1062 H   0  0  0  0  0  0  0  0  0  0  0  0
    4.3234   -1.8124   -1.6277 H   0  0  0  0  0  0  0  0  0  0  0  0
    6.0721   -1.2115   -0.1872 H   0  0  0  0  0  0  0  0  0  0  0  0
    5.6363    0.7490    0.8994 H   0  0  0  0  0  0  0  0  0  0  0  0
    5.4873    0.3824    3.3187 H   0  0  0  0  0  0  0  0  0  0  0  0
    9.6764    0.0500    3.6194 H   0  0  0  0  0  0  0  0  0  0  0  0
    9.9134    0.3931    1.1625 H   0  0  0  0  0  0  0  0  0  0  0  0
    7.3143    1.7702   -2.9503 H   0  0  0  0  0  0  0  0  0  0  0  0
    5.4665    1.1041   -4.4543 H   0  0  0  0  0  0  0  0  0  0  0  0
    0.7537    0.1593   -4.1819 H   0  0  0  0  0  0  0  0  0  0  0  0
   -1.0821    0.5239   -2.5091 H   0  0  0  0  0  0  0  0  0  0  0  0
   -1.6422   -2.7748    0.4252 H   0  0  0  0  0  0  0  0  0  0  0  0
   -3.4616   -2.3554    2.0466 H   0  0  0  0  0  0  0  0  0  0  0  0
   -6.7580   -2.0728   -1.2430 H   0  0  0  0  0  0  0  0  0  0  0  0
  1  2  1  0
  2  3  1  0
  2  4  1  0
  4  5  1  0
  5  6  1  0
  6  7  2  0
  6  8  2  0
  6  9  1  0
  9 10  2  0
 10 11  1  0
 11 12  2  0
 12 13  1  0
 13 14  2  0
 14 15  1  0
 15 16  2  0
 16 17  1  0
 17 18  1  0
 18 19  1  0
 19 20  2  0
 20 21  1  0
 21 22  2  0
 22 23  1  0
 23 24  2  0
 23 25  1  0
 25 26  2  0
 26 27  1  0
 27 28  2  0
 28 29  1  0
 28 30  1  0
 30 31  2  0
 22 32  1  0
 32 33  2  0
 16 34  1  0
 34 35  2  0
 12 36  1  0
 36 37  2  0
  4 38  1  0
 38 39  2  0
 38 40  1  0
 37  9  1  0
 35 13  1  0
 33 19  1  0
 31 25  1  0
  1 41  1  0
  1 42  1  0
  1 43  1  0
  2 44  1  0
  3 45  1  0
  3 46  1  0
  3 47  1  0
  4 48  1  6
  5 49  1  0
 10 50  1  0
 11 51  1  0
 14 52  1  0
 15 53  1  0
 17 54  1  0
 17 55  1  0
 20 56  1  0
 21 57  1  0
 26 58  1  0
 27 59  1  0
 30 60  1  0
 31 61  1  0
 32 62  1  0
 33 63  1  0
 34 64  1  0
 35 65  1  0
 36 66  1  0
 37 67  1  0
 40 68  1  0
M  END
$$$$
