@<TRIPOS>MOLECULE
*****
 24 24 0 0 0
SMALL
GASTEIGER

@<TRIPOS>ATOM
      1 N          -1.4352    0.1607    1.7632 N.3     1  TYR1       -0.3181
      2 CA         -1.7919    0.3808    0.3688 C.3     1  TYR1        0.1072
      3 CB         -1.0283   -0.5788   -0.5184 C.3     1  TYR1       -0.0020
      4 CG          0.4199   -0.4051   -0.3888 C.ar    1  TYR1       -0.0451
      5 CD1         1.2138   -1.0745    0.5198 C.ar    1  TYR1       -0.0551
      6 CE1         2.5788   -0.9231    0.6554 C.ar    1  TYR1       -0.0199
      7 CZ          3.1775   -0.0102   -0.2124 C.ar    1  TYR1        0.1169
      8 OH          4.5463    0.1989   -0.1392 O.3     1  TYR1       -0.5068
      9 CE2         2.4233    0.6917   -1.1479 C.ar    1  TYR1       -0.0199
     10 CD2         1.0654    0.4891   -1.2257 C.ar    1  TYR1       -0.0551
     11 C          -3.2508    0.1787    0.2509 C.2     1  TYR1        0.3220
     12 O          -3.8456    0.3342   -1.0028 O.3     1  TYR1       -0.4795
     13 OXT        -3.9790   -0.1304    1.2468 O.2     1  TYR1       -0.2492
     14 H1         -1.8131    0.8930    2.3733 H       1  TYR1        0.1190
     15 H2         -1.5811   -0.8042    2.0674 H       1  TYR1        0.1190
     16 HA         -1.5567    1.4088    0.0829 H       1  TYR1        0.0577
     17 HB1        -1.3477   -0.3661   -1.5585 H       1  TYR1        0.0334
     18 HB2        -1.3447   -1.6146   -0.2780 H       1  TYR1        0.0334
     19 HD1         0.7382   -1.7876    1.1959 H       1  TYR1        0.0621
     20 HE1         3.1516   -1.4752    1.3866 H       1  TYR1        0.0654
     21 HH          5.1826   -0.4051   -0.6504 H       1  TYR1        0.2921
     22 HE2         2.8646    1.4032   -1.8297 H       1  TYR1        0.0654
     23 HD2         0.4725    1.0450   -1.9656 H       1  TYR1        0.0621
     24 H          -4.8604    0.5164   -0.9933 H       1  TYR1        0.2951
@<TRIPOS>BOND
     1     1     2    1
     2     2     3    1
     3     3     4    1
     4     4     5   ar
     5     5     6   ar
     6     6     7   ar
     7     7     8    1
     8     7     9   ar
     9     9    10   ar
    10     2    11    1
    11    11    12    1
    12    11    13    2
    13    10     4   ar
    14     1    14    1
    15     1    15    1
    16     2    16    1
    17     3    17    1
    18     3    18    1
    19     5    19    1
    20     6    20    1
    21     8    21    1
    22     9    22    1
    23    10    23    1
    24    12    24    1
