
     RDKit          3D

 61 64  0  0  0  0  0  0  0  0999 V2000
    8.0297    0.1425   -0.8145 C   0  0  0  0  0  0  0  0  0  0  0  0
    7.0120   -0.9541   -0.5608 C   0  0  0  0  0  0  0  0  0  0  0  0
    7.3126   -2.0910   -1.4934 C   0  0  0  0  0  0  0  0  0  0  0  0
    5.6224   -0.4649   -0.7127 C   0  0  0  0  0  0  0  0  0  0  0  0
    5.1409    0.0033   -1.9185 C   0  0  0  0  0  0  0  0  0  0  0  0
    3.8435    0.4618   -2.0672 C   0  0  0  0  0  0  0  0  0  0  0  0
    2.9757    0.4666   -1.0018 C   0  0  0  0  0  0  0  0  0  0  0  0
    3.4460    0.0009    0.2084 C   0  0  0  0  0  0  0  0  0  0  0  0
    2.5935   -0.0113    1.3202 O   0  0  0  0  0  0  0  0  0  0  0  0
    1.2873    0.4442    1.1935 C   0  0  0  0  0  0  0  0  0  0  0  0
    0.1535   -0.2535    0.8600 C   0  0  0  0  0  0  0  0  0  0  0  0
    0.1160   -1.6955    0.5589 C   0  0  0  0  0  0  0  0  0  0  0  0
   -0.9619   -2.2418    0.2657 O   0  0  0  0  0  0  0  0  0  0  0  0
    1.2517   -2.4737    0.5909 O   0  0  0  0  0  0  0  0  0  0  0  0
   -0.9162    0.5695    0.8483 N   0  0  0  0  0  0  0  0  0  0  0  0
   -2.2622    0.1956    0.5453 C   0  0  0  0  0  0  0  0  0  0  0  0
   -3.2083    0.0698    1.5368 C   0  0  0  0  0  0  0  0  0  0  0  0
   -4.5205   -0.2929    1.2574 C   0  0  0  0  0  0  0  0  0  0  0  0
   -4.9194   -0.5416   -0.0450 C   0  0  0  0  0  0  0  0  0  0  0  0
   -6.3106   -0.9305   -0.3798 C   0  0  0  0  0  0  0  0  0  0  0  0
   -6.4514   -1.1354   -1.8658 C   0  0  0  0  0  0  0  0  0  0  0  0
   -6.7086   -2.2221    0.3066 C   0  0  0  0  0  0  0  0  0  0  0  0
   -7.3022    0.1316    0.0520 C   0  0  0  0  0  0  0  0  0  0  0  0
   -3.9773   -0.4174   -1.0421 C   0  0  0  0  0  0  0  0  0  0  0  0
   -2.6605   -0.0520   -0.7490 C   0  0  0  0  0  0  0  0  0  0  0  0
   -0.4594    1.7917    1.1751 C   0  0  0  0  0  0  0  0  0  0  0  0
   -1.1437    2.9808    1.3030 C   0  0  0  0  0  0  0  0  0  0  0  0
   -0.4455    4.1164    1.6528 C   0  0  0  0  0  0  0  0  0  0  0  0
   -1.2765    5.6494    1.8263 Cl  0  0  0  0  0  0  0  0  0  0  0  0
    0.9150    4.1020    1.8788 C   0  0  0  0  0  0  0  0  0  0  0  0
    1.5979    2.9119    1.7504 C   0  0  0  0  0  0  0  0  0  0  0  0
    0.8975    1.7516    1.3953 C   0  0  0  0  0  0  0  0  0  0  0  0
    4.7430   -0.4557    0.3503 C   0  0  0  0  0  0  0  0  0  0  0  0
    8.1797    0.7114    0.1271 H   0  0  0  0  0  0  0  0  0  0  0  0
    8.9892   -0.3528   -1.0398 H   0  0  0  0  0  0  0  0  0  0  0  0
    7.7437    0.7762   -1.6705 H   0  0  0  0  0  0  0  0  0  0  0  0
    7.1558   -1.2734    0.4914 H   0  0  0  0  0  0  0  0  0  0  0  0
    7.7531   -2.9475   -0.9630 H   0  0  0  0  0  0  0  0  0  0  0  0
    7.9528   -1.7413   -2.3466 H   0  0  0  0  0  0  0  0  0  0  0  0
    6.3597   -2.4338   -1.9544 H   0  0  0  0  0  0  0  0  0  0  0  0
    5.8038    0.0103   -2.7733 H   0  0  0  0  0  0  0  0  0  0  0  0
    3.4607    0.8321   -3.0181 H   0  0  0  0  0  0  0  0  0  0  0  0
    1.9484    0.8179   -1.0741 H   0  0  0  0  0  0  0  0  0  0  0  0
    1.2696   -3.3851    0.1731 H   0  0  0  0  0  0  0  0  0  0  0  0
   -2.9176    0.2603    2.5672 H   0  0  0  0  0  0  0  0  0  0  0  0
   -5.2353   -0.3836    2.0454 H   0  0  0  0  0  0  0  0  0  0  0  0
   -7.4993   -1.4633   -2.1044 H   0  0  0  0  0  0  0  0  0  0  0  0
   -6.1950   -0.2231   -2.4443 H   0  0  0  0  0  0  0  0  0  0  0  0
   -5.7477   -1.9500   -2.1699 H   0  0  0  0  0  0  0  0  0  0  0  0
   -7.8163   -2.2566    0.3397 H   0  0  0  0  0  0  0  0  0  0  0  0
   -6.3634   -2.1320    1.3624 H   0  0  0  0  0  0  0  0  0  0  0  0
   -6.3119   -3.1086   -0.2099 H   0  0  0  0  0  0  0  0  0  0  0  0
   -7.5938   -0.0055    1.1344 H   0  0  0  0  0  0  0  0  0  0  0  0
   -6.9247    1.1522   -0.1322 H   0  0  0  0  0  0  0  0  0  0  0  0
   -8.2485    0.0397   -0.5220 H   0  0  0  0  0  0  0  0  0  0  0  0
   -4.2302   -0.5985   -2.0739 H   0  0  0  0  0  0  0  0  0  0  0  0
   -1.9114    0.0489   -1.5230 H   0  0  0  0  0  0  0  0  0  0  0  0
   -2.2246    2.9973    1.1245 H   0  0  0  0  0  0  0  0  0  0  0  0
    1.4315    5.0339    2.1563 H   0  0  0  0  0  0  0  0  0  0  0  0
    2.6507    2.8431    1.9136 H   0  0  0  0  0  0  0  0  0  0  0  0
    5.1069   -0.8246    1.3193 H   0  0  0  0  0  0  0  0  0  0  0  0
  1  2  1  0
  2  3  1  0
  2  4  1  0
  4  5  2  0
  5  6  1  0
  6  7  2  0
  7  8  1  0
  8  9  1  0
  9 10  1  0
 10 11  2  0
 11 12  1  0
 12 13  2  0
 12 14  1  0
 11 15  1  0
 15 16  1  0
 16 17  2  0
 17 18  1  0
 18 19  2  0
 19 20  1  0
 20 21  1  0
 20 22  1  0
 20 23  1  0
 19 24  1  0
 24 25  2  0
 15 26  1  0
 26 27  2  0
 27 28  1  0
 28 29  1  0
 28 30  2  0
 30 31  1  0
 31 32  2  0
  8 33  2  0
 33  4  1  0
 32 10  1  0
 25 16  1  0
 32 26  1  0
  1 34  1  0
  1 35  1  0
  1 36  1  0
  2 37  1  0
  3 38  1  0
  3 39  1  0
  3 40  1  0
  5 41  1  0
  6 42  1  0
  7 43  1  0
 14 44  1  0
 17 45  1  0
 18 46  1  0
 21 47  1  0
 21 48  1  0
 21 49  1  0
 22 50  1  0
 22 51  1  0
 22 52  1  0
 23 53  1  0
 23 54  1  0
 23 55  1  0
 24 56  1  0
 25 57  1  0
 27 58  1  0
 30 59  1  0
 31 60  1  0
 33 61  1  0
M  END
$$$$
