@<TRIPOS>MOLECULE
*****
 61 64 0 0 0
SMALL
GASTEIGER

@<TRIPOS>ATOM
      1 C           8.0297    0.1425   -0.8145 C.3     1  UNL1       -0.0586
      2 C           7.0120   -0.9541   -0.5608 C.3     1  UNL1       -0.0214
      3 C           7.3126   -2.0910   -1.4934 C.3     1  UNL1       -0.0586
      4 C           5.6224   -0.4649   -0.7127 C.ar    1  UNL1       -0.0413
      5 C           5.1409    0.0033   -1.9185 C.ar    1  UNL1       -0.0581
      6 C           3.8435    0.4618   -2.0672 C.ar    1  UNL1       -0.0580
      7 C           2.9757    0.4666   -1.0018 C.ar    1  UNL1       -0.0193
      8 C           3.4460    0.0009    0.2084 C.ar    1  UNL1        0.1288
      9 O           2.5935   -0.0113    1.3202 O.3     1  UNL1       -0.4530
     10 C           1.2873    0.4442    1.1935 C.ar    1  UNL1        0.1683
     11 C           0.1535   -0.2535    0.8600 C.ar    1  UNL1        0.1750
     12 C           0.1160   -1.6955    0.5589 C.2     1  UNL1        0.3575
     13 O          -0.9619   -2.2418    0.2657 O.2     1  UNL1       -0.2433
     14 O           1.2517   -2.4737    0.5909 O.3     1  UNL1       -0.4760
     15 N          -0.9162    0.5695    0.8483 N.ar    1  UNL1       -0.3003
     16 C          -2.2622    0.1956    0.5453 C.ar    1  UNL1        0.0475
     17 C          -3.2083    0.0698    1.5368 C.ar    1  UNL1       -0.0375
     18 C          -4.5205   -0.2929    1.2574 C.ar    1  UNL1       -0.0561
     19 C          -4.9194   -0.5416   -0.0450 C.ar    1  UNL1       -0.0418
     20 C          -6.3106   -0.9305   -0.3798 C.3     1  UNL1       -0.0127
     21 C          -6.4514   -1.1354   -1.8658 C.3     1  UNL1       -0.0560
     22 C          -6.7086   -2.2221    0.3066 C.3     1  UNL1       -0.0560
     23 C          -7.3022    0.1316    0.0520 C.3     1  UNL1       -0.0560
     24 C          -3.9773   -0.4174   -1.0421 C.ar    1  UNL1       -0.0561
     25 C          -2.6605   -0.0520   -0.7490 C.ar    1  UNL1       -0.0375
     26 C          -0.4594    1.7917    1.1751 C.ar    1  UNL1        0.0596
     27 C          -1.1437    2.9808    1.3030 C.ar    1  UNL1       -0.0188
     28 C          -0.4455    4.1164    1.6528 C.ar    1  UNL1        0.0430
     29 CL         -1.2765    5.6494    1.8263 Cl      1  UNL1       -0.0835
     30 C           0.9150    4.1020    1.8788 C.ar    1  UNL1       -0.0426
     31 C           1.5979    2.9119    1.7504 C.ar    1  UNL1       -0.0476
     32 C           0.8975    1.7516    1.3953 C.ar    1  UNL1        0.0435
     33 C           4.7430   -0.4557    0.3503 C.ar    1  UNL1       -0.0159
     34 H           8.1797    0.7114    0.1271 H       1  UNL1        0.0235
     35 H           8.9892   -0.3528   -1.0398 H       1  UNL1        0.0235
     36 H           7.7437    0.7762   -1.6705 H       1  UNL1        0.0235
     37 H           7.1558   -1.2734    0.4914 H       1  UNL1        0.0343
     38 H           7.7531   -2.9475   -0.9630 H       1  UNL1        0.0235
     39 H           7.9528   -1.7413   -2.3466 H       1  UNL1        0.0235
     40 H           6.3597   -2.4338   -1.9544 H       1  UNL1        0.0235
     41 H           5.8038    0.0103   -2.7733 H       1  UNL1        0.0620
     42 H           3.4607    0.8321   -3.0181 H       1  UNL1        0.0619
     43 H           1.9484    0.8179   -1.0741 H       1  UNL1        0.0654
     44 H           1.2696   -3.3851    0.1731 H       1  UNL1        0.2955
     45 H          -2.9176    0.2603    2.5672 H       1  UNL1        0.0638
     46 H          -5.2353   -0.3836    2.0454 H       1  UNL1        0.0621
     47 H          -7.4993   -1.4633   -2.1044 H       1  UNL1        0.0238
     48 H          -6.1950   -0.2231   -2.4443 H       1  UNL1        0.0238
     49 H          -5.7477   -1.9500   -2.1699 H       1  UNL1        0.0238
     50 H          -7.8163   -2.2566    0.3397 H       1  UNL1        0.0238
     51 H          -6.3634   -2.1320    1.3624 H       1  UNL1        0.0238
     52 H          -6.3119   -3.1086   -0.2099 H       1  UNL1        0.0238
     53 H          -7.5938   -0.0055    1.1344 H       1  UNL1        0.0238
     54 H          -6.9247    1.1522   -0.1322 H       1  UNL1        0.0238
     55 H          -8.2485    0.0397   -0.5220 H       1  UNL1        0.0238
     56 H          -4.2302   -0.5985   -2.0739 H       1  UNL1        0.0621
     57 H          -1.9114    0.0489   -1.5230 H       1  UNL1        0.0638
     58 H          -2.2246    2.9973    1.1245 H       1  UNL1        0.0653
     59 H           1.4315    5.0339    2.1563 H       1  UNL1        0.0632
     60 H           2.6507    2.8431    1.9136 H       1  UNL1        0.0626
     61 H           5.1069   -0.8246    1.3193 H       1  UNL1        0.0657
@<TRIPOS>BOND
     1     1     2    1
     2     2     3    1
     3     2     4    1
     4     4     5   ar
     5     5     6   ar
     6     6     7   ar
     7     7     8   ar
     8     8     9    1
     9     9    10    1
    10    10    11   ar
    11    11    12    1
    12    12    13    2
    13    12    14    1
    14    11    15   ar
    15    15    16    1
    16    16    17   ar
    17    17    18   ar
    18    18    19   ar
    19    19    20    1
    20    20    21    1
    21    20    22    1
    22    20    23    1
    23    19    24   ar
    24    24    25   ar
    25    15    26   ar
    26    26    27   ar
    27    27    28   ar
    28    28    29    1
    29    28    30   ar
    30    30    31   ar
    31    31    32   ar
    32     8    33   ar
    33    33     4   ar
    34    32    10   ar
    35    25    16   ar
    36    32    26   ar
    37     1    34    1
    38     1    35    1
    39     1    36    1
    40     2    37    1
    41     3    38    1
    42     3    39    1
    43     3    40    1
    44     5    41    1
    45     6    42    1
    46     7    43    1
    47    14    44    1
    48    17    45    1
    49    18    46    1
    50    21    47    1
    51    21    48    1
    52    21    49    1
    53    22    50    1
    54    22    51    1
    55    22    52    1
    56    23    53    1
    57    23    54    1
    58    23    55    1
    59    24    56    1
    60    25    57    1
    61    27    58    1
    62    30    59    1
    63    31    60    1
    64    33    61    1
