@<TRIPOS>MOLECULE
*****
 126 125 0 0 0
SMALL
GASTEIGER

@<TRIPOS>ATOM
      1 C           9.6858    6.0481    0.4511 C.3     1  UNL1       -0.0653
      2 C          10.7856    5.1178    0.8354 C.3     1  UNL1       -0.0559
      3 C          10.3873    4.0618    1.8386 C.3     1  UNL1       -0.0533
      4 C           9.2656    3.1635    1.3279 C.3     1  UNL1       -0.0531
      5 C           9.6513    2.4589    0.0731 C.3     1  UNL1       -0.0530
      6 C           8.5311    1.5867   -0.4135 C.3     1  UNL1       -0.0528
      7 C           8.1945    0.5398    0.5952 C.3     1  UNL1       -0.0496
      8 C           7.0741   -0.3715    0.0952 C.3     1  UNL1       -0.0348
      9 C           6.8669   -1.3695    1.1968 C.2     1  UNL1       -0.0879
     10 C           7.0611   -2.6329    0.8480 C.2     1  UNL1       -0.0879
     11 C           7.4160   -3.5607   -0.2357 C.3     1  UNL1       -0.0348
     12 C           6.4860   -4.6488   -0.5405 C.3     1  UNL1       -0.0496
     13 C           5.1173   -4.3919   -0.9677 C.3     1  UNL1       -0.0528
     14 C           4.7585   -3.7080   -2.2095 C.3     1  UNL1       -0.0530
     15 C           5.0345   -2.2719   -2.4356 C.3     1  UNL1       -0.0526
     16 C           4.2847   -1.4280   -1.4110 C.3     1  UNL1       -0.0430
     17 C           2.7761   -1.6576   -1.4947 C.3     1  UNL1        0.0449
     18 C           2.1463   -0.7548   -0.4712 C.2     1  UNL1        0.3072
     19 O           1.5551    0.2575   -0.9037 O.2     1  UNL1       -0.2509
     20 O           2.2905   -1.1475    0.8302 O.3     1  UNL1       -0.4608
     21 C           1.7770   -0.5044    1.9686 C.3     1  UNL1        0.1315
     22 C           0.2874   -0.5959    1.9793 C.3     1  UNL1        0.1605
     23 C          -0.0360   -2.0959    1.9228 C.3     1  UNL1        0.0993
     24 O          -1.3642   -2.3522    1.8946 O.3     1  UNL1       -0.2828
     25 P          -1.8679   -3.9008    2.1555 P.3     1  UNL1        0.4751
     26 O          -3.5683   -4.0110    2.1706 O.3     1  UNL1       -0.3025
     27 O          -1.2843   -4.5264    3.4097 O.2     1  UNL1       -0.2273
     28 O          -1.3211   -4.8759    0.8850 O.3     1  UNL1       -0.2840
     29 C          -2.3667   -5.2539    0.0461 C.3     1  UNL1        0.0871
     30 C          -1.8567   -6.2500   -0.9587 C.3     1  UNL1        0.1020
     31 O          -1.3657   -7.3675   -0.2858 O.3     1  UNL1       -0.3872
     32 C          -0.7310   -5.6258   -1.7658 C.3     1  UNL1        0.0723
     33 O          -0.2273   -6.5330   -2.6989 O.3     1  UNL1       -0.3924
     34 O          -0.2437    0.0218    0.8404 O.3     1  UNL1       -0.4555
     35 C          -1.2904    0.9024    0.8638 C.2     1  UNL1        0.3075
     36 O          -1.8315    1.1875    1.9716 O.2     1  UNL1       -0.2508
     37 C          -1.8865    1.5854   -0.3412 C.3     1  UNL1        0.0450
     38 C          -3.2359    2.1812    0.0317 C.3     1  UNL1       -0.0430
     39 C          -3.8387    2.8615   -1.1645 C.3     1  UNL1       -0.0526
     40 C          -4.0041    1.9969   -2.3499 C.3     1  UNL1       -0.0530
     41 C          -4.7497    0.7447   -2.2786 C.3     1  UNL1       -0.0528
     42 C          -6.1645    0.6673   -1.9065 C.3     1  UNL1       -0.0496
     43 C          -6.5194    1.1079   -0.5213 C.3     1  UNL1       -0.0348
     44 C          -7.9938    0.9178   -0.2804 C.2     1  UNL1       -0.0879
     45 C          -8.9841    1.7375    0.0271 C.2     1  UNL1       -0.0879
     46 C          -8.8871    3.1933    0.2324 C.3     1  UNL1       -0.0348
     47 C          -9.3322    3.5738    1.6421 C.3     1  UNL1       -0.0496
     48 C         -10.7639    3.1385    1.8818 C.3     1  UNL1       -0.0528
     49 C         -11.7467    3.7512    0.9319 C.3     1  UNL1       -0.0533
     50 C         -13.1136    3.2118    1.3011 C.3     1  UNL1       -0.0559
     51 C         -14.1827    3.7726    0.3977 C.3     1  UNL1       -0.0653
     52 H           8.6658    5.6529    0.5471 H       1  UNL1        0.0230
     53 H           9.8415    6.3427   -0.6284 H       1  UNL1        0.0230
     54 H           9.8205    7.0251    1.0007 H       1  UNL1        0.0230
     55 H          11.2381    4.6748   -0.0769 H       1  UNL1        0.0263
     56 H          11.6066    5.6946    1.3104 H       1  UNL1        0.0263
     57 H          11.2380    3.4644    2.1824 H       1  UNL1        0.0265
     58 H           9.9785    4.6130    2.7176 H       1  UNL1        0.0265
     59 H           9.1511    2.3902    2.1386 H       1  UNL1        0.0265
     60 H           8.3163    3.6836    1.2216 H       1  UNL1        0.0265
     61 H           9.8286    3.2184   -0.7329 H       1  UNL1        0.0265
     62 H          10.5464    1.8107    0.2090 H       1  UNL1        0.0265
     63 H           8.7338    1.1636   -1.4256 H       1  UNL1        0.0265
     64 H           7.5931    2.1995   -0.5721 H       1  UNL1        0.0265
     65 H           7.8280    1.0660    1.5249 H       1  UNL1        0.0268
     66 H           9.1089   -0.0157    0.8713 H       1  UNL1        0.0268
     67 H           6.1541    0.2377    0.0536 H       1  UNL1        0.0307
     68 H           7.3176   -0.8181   -0.8662 H       1  UNL1        0.0307
     69 H           6.5830   -1.0702    2.1899 H       1  UNL1        0.0569
     70 H           6.8929   -3.3205    1.7008 H       1  UNL1        0.0569
     71 H           8.4142   -4.0538    0.0468 H       1  UNL1        0.0307
     72 H           7.5979   -2.9399   -1.1435 H       1  UNL1        0.0307
     73 H           7.0157   -5.2975   -1.3391 H       1  UNL1        0.0268
     74 H           6.4141   -5.3780    0.3610 H       1  UNL1        0.0268
     75 H           4.6171   -3.8530   -0.0636 H       1  UNL1        0.0265
     76 H           4.5387   -5.3983   -0.9653 H       1  UNL1        0.0265
     77 H           5.1704   -4.2886   -3.1209 H       1  UNL1        0.0265
     78 H           3.6352   -3.8384   -2.4058 H       1  UNL1        0.0265
     79 H           6.0639   -1.9720   -2.4772 H       1  UNL1        0.0265
     80 H           4.6069   -2.0334   -3.4661 H       1  UNL1        0.0265
     81 H           4.5006   -0.3554   -1.5606 H       1  UNL1        0.0270
     82 H           4.5694   -1.7280   -0.3991 H       1  UNL1        0.0270
     83 H           2.3815   -1.4893   -2.4952 H       1  UNL1        0.0377
     84 H           2.5897   -2.7041   -1.1622 H       1  UNL1        0.0377
     85 H           2.0985    0.5727    1.9559 H       1  UNL1        0.0736
     86 H           2.2532   -1.0156    2.8317 H       1  UNL1        0.0736
     87 H          -0.2242   -0.1456    2.8502 H       1  UNL1        0.0792
     88 H           0.4420   -2.6409    2.7593 H       1  UNL1        0.0604
     89 H           0.4284   -2.4744    0.9878 H       1  UNL1        0.0604
     90 H          -3.9305   -3.6461    3.0335 H       1  UNL1        0.2220
     91 H          -2.7123   -4.3215   -0.4693 H       1  UNL1        0.0592
     92 H          -3.1777   -5.6933    0.6519 H       1  UNL1        0.0592
     93 H          -2.6800   -6.5691   -1.6017 H       1  UNL1        0.0639
     94 H          -1.7793   -7.4588    0.6172 H       1  UNL1        0.2100
     95 H           0.0927   -5.2998   -1.1096 H       1  UNL1        0.0583
     96 H          -1.1001   -4.7568   -2.3476 H       1  UNL1        0.0583
     97 H          -0.3650   -7.4718   -2.4077 H       1  UNL1        0.2095
     98 H          -1.9761    0.8998   -1.2053 H       1  UNL1        0.0377
     99 H          -1.2422    2.4280   -0.6651 H       1  UNL1        0.0377
    100 H          -3.1144    2.9724    0.8123 H       1  UNL1        0.0270
    101 H          -3.8262    1.3852    0.4748 H       1  UNL1        0.0270
    102 H          -4.6826    3.5312   -0.9617 H       1  UNL1        0.0265
    103 H          -3.0218    3.6266   -1.4837 H       1  UNL1        0.0265
    104 H          -4.5510    2.6522   -3.1203 H       1  UNL1        0.0265
    105 H          -2.9903    1.8597   -2.8526 H       1  UNL1        0.0265
    106 H          -4.2155   -0.0320   -1.6178 H       1  UNL1        0.0265
    107 H          -4.6578    0.2331   -3.2969 H       1  UNL1        0.0265
    108 H          -6.8174    1.1816   -2.6735 H       1  UNL1        0.0268
    109 H          -6.5472   -0.4079   -1.9801 H       1  UNL1        0.0268
    110 H          -6.2314    2.1116   -0.2357 H       1  UNL1        0.0307
    111 H          -5.9974    0.4065    0.1945 H       1  UNL1        0.0307
    112 H          -8.2321   -0.1540   -0.4048 H       1  UNL1        0.0569
    113 H          -9.9710    1.3080    0.1425 H       1  UNL1        0.0569
    114 H          -9.5153    3.7240   -0.5120 H       1  UNL1        0.0307
    115 H          -7.8483    3.5875    0.1328 H       1  UNL1        0.0307
    116 H          -9.3145    4.6787    1.7504 H       1  UNL1        0.0268
    117 H          -8.6967    3.0969    2.3952 H       1  UNL1        0.0268
    118 H         -10.8442    2.0467    1.9369 H       1  UNL1        0.0265
    119 H         -11.0248    3.5147    2.9071 H       1  UNL1        0.0265
    120 H         -11.7948    4.8606    1.0759 H       1  UNL1        0.0265
    121 H         -11.5124    3.5804   -0.1207 H       1  UNL1        0.0265
    122 H         -13.1376    2.1114    1.2013 H       1  UNL1        0.0263
    123 H         -13.3596    3.4681    2.3442 H       1  UNL1        0.0263
    124 H         -15.1670    3.3950    0.7687 H       1  UNL1        0.0230
    125 H         -14.2213    4.8639    0.3946 H       1  UNL1        0.0230
    126 H         -14.0682    3.3566   -0.6349 H       1  UNL1        0.0230
@<TRIPOS>BOND
     1     1     2    1
     2     2     3    1
     3     3     4    1
     4     4     5    1
     5     5     6    1
     6     6     7    1
     7     7     8    1
     8     8     9    1
     9     9    10    2
    10    10    11    1
    11    11    12    1
    12    12    13    1
    13    13    14    1
    14    14    15    1
    15    15    16    1
    16    16    17    1
    17    17    18    1
    18    18    19    2
    19    18    20    1
    20    20    21    1
    21    21    22    1
    22    22    23    1
    23    23    24    1
    24    25    24    1
    25    25    26    1
    26    25    27    2
    27    25    28    1
    28    28    29    1
    29    29    30    1
    30    30    31    1
    31    30    32    1
    32    32    33    1
    33    22    34    1
    34    34    35    1
    35    35    36    2
    36    35    37    1
    37    37    38    1
    38    38    39    1
    39    39    40    1
    40    40    41    1
    41    41    42    1
    42    42    43    1
    43    43    44    1
    44    44    45    2
    45    45    46    1
    46    46    47    1
    47    47    48    1
    48    48    49    1
    49    49    50    1
    50    50    51    1
    51     1    52    1
    52     1    53    1
    53     1    54    1
    54     2    55    1
    55     2    56    1
    56     3    57    1
    57     3    58    1
    58     4    59    1
    59     4    60    1
    60     5    61    1
    61     5    62    1
    62     6    63    1
    63     6    64    1
    64     7    65    1
    65     7    66    1
    66     8    67    1
    67     8    68    1
    68     9    69    1
    69    10    70    1
    70    11    71    1
    71    11    72    1
    72    12    73    1
    73    12    74    1
    74    13    75    1
    75    13    76    1
    76    14    77    1
    77    14    78    1
    78    15    79    1
    79    15    80    1
    80    16    81    1
    81    16    82    1
    82    17    83    1
    83    17    84    1
    84    21    85    1
    85    21    86    1
    86    22    87    1
    87    23    88    1
    88    23    89    1
    89    26    90    1
    90    29    91    1
    91    29    92    1
    92    30    93    1
    93    31    94    1
    94    32    95    1
    95    32    96    1
    96    33    97    1
    97    37    98    1
    98    37    99    1
    99    38   100    1
   100    38   101    1
   101    39   102    1
   102    39   103    1
   103    40   104    1
   104    40   105    1
   105    41   106    1
   106    41   107    1
   107    42   108    1
   108    42   109    1
   109    43   110    1
   110    43   111    1
   111    44   112    1
   112    45   113    1
   113    46   114    1
   114    46   115    1
   115    47   116    1
   116    47   117    1
   117    48   118    1
   118    48   119    1
   119    49   120    1
   120    49   121    1
   121    50   122    1
   122    50   123    1
   123    51   124    1
   124    51   125    1
   125    51   126    1
