@<TRIPOS>MOLECULE
*****
 75 79 0 0 0
SMALL
GASTEIGER

@<TRIPOS>ATOM
      1 C          -1.6239    1.3852   -1.7277 C.3     1  UNL1        0.2102
      2 N          -2.0496    0.0206   -1.4929 N.2     1  UNL1       -0.0694
      3 C          -1.1177   -0.6667   -0.9010 C.2     1  UNL1        0.3280
      4 N           0.0211    0.1573   -0.6764 N.am    1  UNL1       -0.1280
      5 C           0.9648   -0.3608    0.2163 C.2     1  UNL1        0.3974
      6 O           0.8449   -1.4444    0.8298 O.2     1  UNL1       -0.2234
      7 N           2.2270   -0.0153    0.7511 N.am    1  UNL1       -0.2629
      8 C           2.8638   -0.8928    1.7106 C.3     1  UNL1        0.0309
      9 C           4.0734   -1.5557    1.0632 C.3     1  UNL1        0.0150
     10 N           4.6571   -0.6418    0.0805 N.3     1  UNL1       -0.2972
     11 C           6.0073   -1.0398   -0.1679 C.3     1  UNL1        0.0222
     12 C           6.7413   -0.1826   -1.1693 C.3     1  UNL1        0.0569
     13 O           8.0369   -0.7109   -1.2894 O.3     1  UNL1       -0.3937
     14 C           4.5207    0.6757    0.6182 C.3     1  UNL1        0.0150
     15 C           3.0853    1.1215    0.5016 C.3     1  UNL1        0.0309
     16 C          -0.1568    1.3368   -1.4623 C.3     1  UNL1        0.1745
     17 C           0.3260    2.5870   -0.8726 C.ar    1  UNL1        0.0001
     18 C           0.9350    3.5262   -1.7133 C.ar    1  UNL1       -0.0535
     19 C           1.4506    4.7472   -1.3336 C.ar    1  UNL1       -0.0474
     20 C           1.3591    5.0778    0.0019 C.ar    1  UNL1        0.0179
     21 BR          2.0461    6.7466    0.6117 Br      1  UNL1       -0.0503
     22 C           0.7716    4.2010    0.8899 C.ar    1  UNL1       -0.0474
     23 C           0.2801    2.9981    0.4300 C.ar    1  UNL1       -0.0535
     24 C          -1.5401   -2.0413   -0.6623 C.ar    1  UNL1        0.1074
     25 C          -2.7878   -2.3835   -0.1844 C.ar    1  UNL1        0.1388
     26 O          -3.6297   -1.3119    0.0762 O.3     1  UNL1       -0.4913
     27 C          -4.9404   -1.4765    0.5693 C.3     1  UNL1        0.0868
     28 C          -4.9975   -2.1784    1.9052 C.3     1  UNL1       -0.0307
     29 C          -3.1345   -3.7265    0.0077 C.ar    1  UNL1        0.0226
     30 C          -2.2568   -4.7527   -0.2684 C.ar    1  UNL1        0.1236
     31 O          -2.6244   -6.0752   -0.0694 O.3     1  UNL1       -0.4950
     32 C          -3.9233   -6.3426    0.4241 C.3     1  UNL1        0.0788
     33 C          -1.0033   -4.4169   -0.7484 C.ar    1  UNL1       -0.0189
     34 C          -0.6763   -3.0918   -0.9325 C.ar    1  UNL1       -0.0398
     35 C          -2.4322    2.2680   -0.9015 C.ar    1  UNL1        0.0052
     36 C          -2.8699    2.0786    0.4027 C.ar    1  UNL1       -0.0532
     37 C          -3.6376    2.9887    1.0962 C.ar    1  UNL1       -0.0474
     38 C          -4.0127    4.1644    0.4974 C.ar    1  UNL1        0.0179
     39 BR         -5.0731    5.3881    1.4982 Br      1  UNL1       -0.0503
     40 C          -3.6292    4.4449   -0.7921 C.ar    1  UNL1       -0.0474
     41 C          -2.8645    3.4941   -1.4261 C.ar    1  UNL1       -0.0532
     42 H          -1.8243    1.6384   -2.8007 H       1  UNL1        0.0925
     43 H           2.2016   -1.6853    2.0774 H       1  UNL1        0.0478
     44 H           3.1609   -0.3067    2.6071 H       1  UNL1        0.0478
     45 H           3.7214   -2.4577    0.5416 H       1  UNL1        0.0442
     46 H           4.7730   -1.8143    1.8684 H       1  UNL1        0.0442
     47 H           5.9799   -2.0727   -0.5722 H       1  UNL1        0.0449
     48 H           6.6321   -1.1046    0.7487 H       1  UNL1        0.0449
     49 H           6.3036   -0.2562   -2.1862 H       1  UNL1        0.0570
     50 H           6.8536    0.8460   -0.7901 H       1  UNL1        0.0570
     51 H           8.2749   -1.1488   -0.4317 H       1  UNL1        0.2095
     52 H           5.1206    1.4534    0.1033 H       1  UNL1        0.0442
     53 H           4.8764    0.7264    1.6893 H       1  UNL1        0.0442
     54 H           2.8596    1.9707    1.1854 H       1  UNL1        0.0478
     55 H           2.9313    1.3809   -0.5786 H       1  UNL1        0.0478
     56 H           0.4083    1.1637   -2.4303 H       1  UNL1        0.0869
     57 H           1.0159    3.2793   -2.7797 H       1  UNL1        0.0622
     58 H           1.9002    5.3929   -2.0747 H       1  UNL1        0.0629
     59 H           0.7087    4.4735    1.9239 H       1  UNL1        0.0629
     60 H          -0.1554    2.3365    1.1435 H       1  UNL1        0.0622
     61 H          -5.3917   -0.4859    0.6342 H       1  UNL1        0.0694
     62 H          -5.5705   -2.0845   -0.1164 H       1  UNL1        0.0694
     63 H          -5.3779   -1.4521    2.6510 H       1  UNL1        0.0262
     64 H          -3.9880   -2.4649    2.2674 H       1  UNL1        0.0262
     65 H          -5.7112   -3.0248    1.9240 H       1  UNL1        0.0262
     66 H          -4.1193   -3.9391    0.3813 H       1  UNL1        0.0691
     67 H          -4.1481   -7.4267    0.4389 H       1  UNL1        0.0660
     68 H          -4.6826   -5.8582   -0.2438 H       1  UNL1        0.0660
     69 H          -4.0065   -5.8767    1.4228 H       1  UNL1        0.0660
     70 H          -0.3577   -5.2509   -0.9476 H       1  UNL1        0.0654
     71 H           0.3219   -2.9811   -1.3183 H       1  UNL1        0.0628
     72 H          -2.5568    1.1379    0.8507 H       1  UNL1        0.0622
     73 H          -3.9149    2.7155    2.1192 H       1  UNL1        0.0629
     74 H          -3.9033    5.3482   -1.2862 H       1  UNL1        0.0629
     75 H          -2.5667    3.7279   -2.4477 H       1  UNL1        0.0622
@<TRIPOS>BOND
     1     1     2    1
     2     2     3    2
     3     3     4    1
     4     4     5   am
     5     5     6    2
     6     5     7   am
     7     7     8    1
     8     8     9    1
     9     9    10    1
    10    10    11    1
    11    11    12    1
    12    12    13    1
    13    10    14    1
    14    14    15    1
    15     4    16    1
    16    16    17    1
    17    17    18   ar
    18    18    19   ar
    19    19    20   ar
    20    20    21    1
    21    20    22   ar
    22    22    23   ar
    23     3    24    1
    24    24    25   ar
    25    25    26    1
    26    26    27    1
    27    27    28    1
    28    25    29   ar
    29    29    30   ar
    30    30    31    1
    31    31    32    1
    32    30    33   ar
    33    33    34   ar
    34     1    35    1
    35    35    36   ar
    36    36    37   ar
    37    37    38   ar
    38    38    39    1
    39    38    40   ar
    40    40    41   ar
    41    16     1    1
    42    23    17   ar
    43    34    24   ar
    44    41    35   ar
    45    15     7    1
    46     1    42    1
    47     8    43    1
    48     8    44    1
    49     9    45    1
    50     9    46    1
    51    11    47    1
    52    11    48    1
    53    12    49    1
    54    12    50    1
    55    13    51    1
    56    14    52    1
    57    14    53    1
    58    15    54    1
    59    15    55    1
    60    16    56    1
    61    18    57    1
    62    19    58    1
    63    22    59    1
    64    23    60    1
    65    27    61    1
    66    27    62    1
    67    28    63    1
    68    28    64    1
    69    28    65    1
    70    29    66    1
    71    32    67    1
    72    32    68    1
    73    32    69    1
    74    33    70    1
    75    34    71    1
    76    36    72    1
    77    37    73    1
    78    40    74    1
    79    41    75    1
