
     RDKit          3D

 75 79  0  0  0  0  0  0  0  0999 V2000
   -1.6239    1.3852   -1.7277 C   0  0  2  0  0  0  0  0  0  0  0  0
   -2.0496    0.0206   -1.4929 N   0  0  0  0  0  0  0  0  0  0  0  0
   -1.1177   -0.6667   -0.9010 C   0  0  0  0  0  0  0  0  0  0  0  0
    0.0211    0.1573   -0.6764 N   0  0  0  0  0  0  0  0  0  0  0  0
    0.9648   -0.3608    0.2163 C   0  0  0  0  0  0  0  0  0  0  0  0
    0.8449   -1.4444    0.8298 O   0  0  0  0  0  0  0  0  0  0  0  0
    2.2270   -0.0153    0.7511 N   0  0  0  0  0  0  0  0  0  0  0  0
    2.8638   -0.8928    1.7106 C   0  0  0  0  0  0  0  0  0  0  0  0
    4.0734   -1.5557    1.0632 C   0  0  0  0  0  0  0  0  0  0  0  0
    4.6571   -0.6418    0.0805 N   0  0  0  0  0  0  0  0  0  0  0  0
    6.0073   -1.0398   -0.1679 C   0  0  0  0  0  0  0  0  0  0  0  0
    6.7413   -0.1826   -1.1693 C   0  0  0  0  0  0  0  0  0  0  0  0
    8.0369   -0.7109   -1.2894 O   0  0  0  0  0  0  0  0  0  0  0  0
    4.5207    0.6757    0.6182 C   0  0  0  0  0  0  0  0  0  0  0  0
    3.0853    1.1215    0.5016 C   0  0  0  0  0  0  0  0  0  0  0  0
   -0.1568    1.3368   -1.4623 C   0  0  2  0  0  0  0  0  0  0  0  0
    0.3260    2.5870   -0.8726 C   0  0  0  0  0  0  0  0  0  0  0  0
    0.9350    3.5262   -1.7133 C   0  0  0  0  0  0  0  0  0  0  0  0
    1.4506    4.7472   -1.3336 C   0  0  0  0  0  0  0  0  0  0  0  0
    1.3591    5.0778    0.0019 C   0  0  0  0  0  0  0  0  0  0  0  0
    2.0461    6.7466    0.6117 Br  0  0  0  0  0  0  0  0  0  0  0  0
    0.7716    4.2010    0.8899 C   0  0  0  0  0  0  0  0  0  0  0  0
    0.2801    2.9981    0.4300 C   0  0  0  0  0  0  0  0  0  0  0  0
   -1.5401   -2.0413   -0.6623 C   0  0  0  0  0  0  0  0  0  0  0  0
   -2.7878   -2.3835   -0.1844 C   0  0  0  0  0  0  0  0  0  0  0  0
   -3.6297   -1.3119    0.0762 O   0  0  0  0  0  0  0  0  0  0  0  0
   -4.9404   -1.4765    0.5693 C   0  0  0  0  0  0  0  0  0  0  0  0
   -4.9975   -2.1784    1.9052 C   0  0  0  0  0  0  0  0  0  0  0  0
   -3.1345   -3.7265    0.0077 C   0  0  0  0  0  0  0  0  0  0  0  0
   -2.2568   -4.7527   -0.2684 C   0  0  0  0  0  0  0  0  0  0  0  0
   -2.6244   -6.0752   -0.0694 O   0  0  0  0  0  0  0  0  0  0  0  0
   -3.9233   -6.3426    0.4241 C   0  0  0  0  0  0  0  0  0  0  0  0
   -1.0033   -4.4169   -0.7484 C   0  0  0  0  0  0  0  0  0  0  0  0
   -0.6763   -3.0918   -0.9325 C   0  0  0  0  0  0  0  0  0  0  0  0
   -2.4322    2.2680   -0.9015 C   0  0  0  0  0  0  0  0  0  0  0  0
   -2.8699    2.0786    0.4027 C   0  0  0  0  0  0  0  0  0  0  0  0
   -3.6376    2.9887    1.0962 C   0  0  0  0  0  0  0  0  0  0  0  0
   -4.0127    4.1644    0.4974 C   0  0  0  0  0  0  0  0  0  0  0  0
   -5.0731    5.3881    1.4982 Br  0  0  0  0  0  0  0  0  0  0  0  0
   -3.6292    4.4449   -0.7921 C   0  0  0  0  0  0  0  0  0  0  0  0
   -2.8645    3.4941   -1.4261 C   0  0  0  0  0  0  0  0  0  0  0  0
   -1.8243    1.6384   -2.8007 H   0  0  0  0  0  0  0  0  0  0  0  0
    2.2016   -1.6853    2.0774 H   0  0  0  0  0  0  0  0  0  0  0  0
    3.1609   -0.3067    2.6071 H   0  0  0  0  0  0  0  0  0  0  0  0
    3.7214   -2.4577    0.5416 H   0  0  0  0  0  0  0  0  0  0  0  0
    4.7730   -1.8143    1.8684 H   0  0  0  0  0  0  0  0  0  0  0  0
    5.9799   -2.0727   -0.5722 H   0  0  0  0  0  0  0  0  0  0  0  0
    6.6321   -1.1046    0.7487 H   0  0  0  0  0  0  0  0  0  0  0  0
    6.3036   -0.2562   -2.1862 H   0  0  0  0  0  0  0  0  0  0  0  0
    6.8536    0.8460   -0.7901 H   0  0  0  0  0  0  0  0  0  0  0  0
    8.2749   -1.1488   -0.4317 H   0  0  0  0  0  0  0  0  0  0  0  0
    5.1206    1.4534    0.1033 H   0  0  0  0  0  0  0  0  0  0  0  0
    4.8764    0.7264    1.6893 H   0  0  0  0  0  0  0  0  0  0  0  0
    2.8596    1.9707    1.1854 H   0  0  0  0  0  0  0  0  0  0  0  0
    2.9313    1.3809   -0.5786 H   0  0  0  0  0  0  0  0  0  0  0  0
    0.4083    1.1637   -2.4303 H   0  0  0  0  0  0  0  0  0  0  0  0
    1.0159    3.2793   -2.7797 H   0  0  0  0  0  0  0  0  0  0  0  0
    1.9002    5.3929   -2.0747 H   0  0  0  0  0  0  0  0  0  0  0  0
    0.7087    4.4735    1.9239 H   0  0  0  0  0  0  0  0  0  0  0  0
   -0.1554    2.3365    1.1435 H   0  0  0  0  0  0  0  0  0  0  0  0
   -5.3917   -0.4859    0.6342 H   0  0  0  0  0  0  0  0  0  0  0  0
   -5.5705   -2.0845   -0.1164 H   0  0  0  0  0  0  0  0  0  0  0  0
   -5.3779   -1.4521    2.6510 H   0  0  0  0  0  0  0  0  0  0  0  0
   -3.9880   -2.4649    2.2674 H   0  0  0  0  0  0  0  0  0  0  0  0
   -5.7112   -3.0248    1.9240 H   0  0  0  0  0  0  0  0  0  0  0  0
   -4.1193   -3.9391    0.3813 H   0  0  0  0  0  0  0  0  0  0  0  0
   -4.1481   -7.4267    0.4389 H   0  0  0  0  0  0  0  0  0  0  0  0
   -4.6826   -5.8582   -0.2438 H   0  0  0  0  0  0  0  0  0  0  0  0
   -4.0065   -5.8767    1.4228 H   0  0  0  0  0  0  0  0  0  0  0  0
   -0.3577   -5.2509   -0.9476 H   0  0  0  0  0  0  0  0  0  0  0  0
    0.3219   -2.9811   -1.3183 H   0  0  0  0  0  0  0  0  0  0  0  0
   -2.5568    1.1379    0.8507 H   0  0  0  0  0  0  0  0  0  0  0  0
   -3.9149    2.7155    2.1192 H   0  0  0  0  0  0  0  0  0  0  0  0
   -3.9033    5.3482   -1.2862 H   0  0  0  0  0  0  0  0  0  0  0  0
   -2.5667    3.7279   -2.4477 H   0  0  0  0  0  0  0  0  0  0  0  0
  1  2  1  0
  2  3  2  0
  3  4  1  0
  4  5  1  0
  5  6  2  0
  5  7  1  0
  7  8  1  0
  8  9  1  0
  9 10  1  0
 10 11  1  0
 11 12  1  0
 12 13  1  0
 10 14  1  0
 14 15  1  0
  4 16  1  0
 16 17  1  0
 17 18  2  0
 18 19  1  0
 19 20  2  0
 20 21  1  0
 20 22  1  0
 22 23  2  0
  3 24  1  0
 24 25  2  0
 25 26  1  0
 26 27  1  0
 27 28  1  0
 25 29  1  0
 29 30  2  0
 30 31  1  0
 31 32  1  0
 30 33  1  0
 33 34  2  0
  1 35  1  0
 35 36  2  0
 36 37  1  0
 37 38  2  0
 38 39  1  0
 38 40  1  0
 40 41  2  0
 16  1  1  0
 23 17  1  0
 34 24  1  0
 41 35  1  0
 15  7  1  0
  1 42  1  6
  8 43  1  0
  8 44  1  0
  9 45  1  0
  9 46  1  0
 11 47  1  0
 11 48  1  0
 12 49  1  0
 12 50  1  0
 13 51  1  0
 14 52  1  0
 14 53  1  0
 15 54  1  0
 15 55  1  0
 16 56  1  6
 18 57  1  0
 19 58  1  0
 22 59  1  0
 23 60  1  0
 27 61  1  0
 27 62  1  0
 28 63  1  0
 28 64  1  0
 28 65  1  0
 29 66  1  0
 32 67  1  0
 32 68  1  0
 32 69  1  0
 33 70  1  0
 34 71  1  0
 36 72  1  0
 37 73  1  0
 40 74  1  0
 41 75  1  0
M  END
$$$$
