@<TRIPOS>MOLECULE
*****
 64 67 0 0 0
SMALL
GASTEIGER

@<TRIPOS>ATOM
      1 C          -8.1098   -1.5246   -0.6638 C.3     1  UNL1        0.0790
      2 O          -6.7244   -1.3904   -0.6769 O.3     1  UNL1       -0.4914
      3 C          -6.0621   -0.1874   -0.4422 C.ar    1  UNL1        0.1618
      4 C          -6.7473    0.9636   -0.1776 C.ar    1  UNL1       -0.0163
      5 C          -6.1026    2.1707    0.0585 C.ar    1  UNL1       -0.0578
      6 C          -4.7267    2.1735    0.0172 C.ar    1  UNL1       -0.0549
      7 C          -3.9742    1.0170   -0.2507 C.ar    1  UNL1       -0.0020
      8 C          -2.5176    1.1634   -0.2709 C.3     1  UNL1       -0.0221
      9 C          -1.9039    0.7462    1.0022 C.3     1  UNL1       -0.0222
     10 C          -0.4056    0.9250    1.0685 C.3     1  UNL1        0.1110
     11 N           0.3337    0.1986    0.0778 N.3     1  UNL1       -0.2910
     12 CA          0.1933   -1.2260    0.1202 C.3     1  UNL1        0.1103
     13 C           0.9500   -1.8279   -1.0608 C.3     1  UNL1       -0.0017
     14 C           2.3912   -1.4287   -0.9253 C.ar    1  UNL1       -0.0418
     15 C           3.2559   -2.2392   -0.2217 C.ar    1  UNL1       -0.0577
     16 C           4.5787   -1.8905   -0.0871 C.ar    1  UNL1       -0.0501
     17 C           5.0451   -0.7381   -0.6504 C.ar    1  UNL1        0.0279
     18 C           4.1896    0.0794   -1.3562 C.ar    1  UNL1        0.1365
     19 C           2.8530   -0.2562   -1.5019 C.ar    1  UNL1       -0.0155
     20 O           4.8893    1.1127   -1.7889 O.2     1  UNL1       -0.4548
     21 C           6.1468    1.0091   -1.4029 C.ar    1  UNL1        0.1362
     22 C           7.2716    1.8014   -1.5827 C.ar    1  UNL1       -0.0187
     23 C           8.4966    1.4251   -1.0433 C.ar    1  UNL1       -0.0582
     24 C           8.6405    0.2642   -0.3173 C.ar    1  UNL1       -0.0610
     25 C           7.5287   -0.5192   -0.1395 C.ar    1  UNL1       -0.0504
     26 C           6.3099   -0.1556   -0.6699 C.ar    1  UNL1        0.0279
     27 C           0.6492   -1.8757    1.3513 C.2     1  UNL1        0.3223
     28 O           0.5048   -3.1393    1.5023 O.2     1  UNL1       -0.2492
     29 OXT         1.2507   -1.2430    2.4240 O.3     1  UNL1       -0.4795
     30 P           0.0656    2.6736    1.1044 P.3     1  UNL1        0.3445
     31 O          -0.2697    3.4014   -0.1466 O.2     1  UNL1       -0.2572
     32 O           1.7692    2.7105    1.2691 O.3     1  UNL1       -0.3230
     33 O          -0.5732    3.4139    2.4609 O.3     1  UNL1       -0.3230
     34 C          -4.6586   -0.1322   -0.4732 C.ar    1  UNL1        0.1646
     35 O          -4.0358   -1.3239   -0.7506 O.3     1  UNL1       -0.4912
     36 C          -3.6984   -2.3406    0.1357 C.3     1  UNL1        0.0790
     37 H          -8.3947   -2.5188   -1.0114 H       1  UNL1        0.0660
     38 H          -8.5141   -1.2520    0.3193 H       1  UNL1        0.0660
     39 H          -8.5139   -0.7493   -1.3772 H       1  UNL1        0.0660
     40 H          -7.8467    0.8918   -0.1590 H       1  UNL1        0.0655
     41 H          -6.6647    3.0711    0.2663 H       1  UNL1        0.0619
     42 H          -4.1852    3.0731    0.1916 H       1  UNL1        0.0621
     43 H          -2.1566    0.4950   -1.1178 H       1  UNL1        0.0315
     44 H          -2.1992    2.1751   -0.6193 H       1  UNL1        0.0315
     45 H          -2.3028    1.3238    1.8870 H       1  UNL1        0.0289
     46 H          -2.0966   -0.3001    1.2342 H       1  UNL1        0.0289
     47 H          -0.1161    0.5329    2.0630 H       1  UNL1        0.0586
     48 H           0.1090    0.5488   -0.9030 H       1  UNL1        0.1235
     49 HA         -0.8672   -1.4545   -0.0521 H       1  UNL1        0.0579
     50 H           0.5400   -1.4697   -2.0132 H       1  UNL1        0.0334
     51 H           0.9039   -2.9430   -1.0422 H       1  UNL1        0.0334
     52 H           2.9212   -3.1606    0.2350 H       1  UNL1        0.0621
     53 H           5.2909   -2.4996    0.4580 H       1  UNL1        0.0625
     54 H           2.1833    0.3910   -2.0616 H       1  UNL1        0.0657
     55 H           7.1794    2.7236   -2.1539 H       1  UNL1        0.0654
     56 H           9.3591    2.0822   -1.2100 H       1  UNL1        0.0619
     57 H           9.6233    0.0103    0.0869 H       1  UNL1        0.0618
     58 H           7.6234   -1.4327    0.4263 H       1  UNL1        0.0625
     59 HXT         1.5402   -1.7014    3.2772 H       1  UNL1        0.2951
     60 H           2.2001    2.9463    0.4125 H       1  UNL1        0.2198
     61 H          -1.5484    3.5119    2.4479 H       1  UNL1        0.2198
     62 H          -2.7541   -2.8568   -0.1504 H       1  UNL1        0.0660
     63 H          -4.4688   -3.1848    0.0897 H       1  UNL1        0.0660
     64 H          -3.6483   -2.0649    1.1971 H       1  UNL1        0.0660
@<TRIPOS>BOND
     1     1     2    1
     2     2     3    1
     3     3     4   ar
     4     4     5   ar
     5     5     6   ar
     6     6     7   ar
     7     7     8    1
     8     8     9    1
     9     9    10    1
    10    10    11    1
    11    11    12    1
    12    12    13    1
    13    13    14    1
    14    14    15   ar
    15    15    16   ar
    16    16    17   ar
    17    17    18   ar
    18    18    19   ar
    19    18    20   ar
    20    20    21   ar
    21    21    22   ar
    22    22    23   ar
    23    23    24   ar
    24    24    25   ar
    25    25    26   ar
    26    12    27    1
    27    27    28    2
    28    27    29    1
    29    10    30    1
    30    30    31    2
    31    30    32    1
    32    30    33    1
    33     7    34   ar
    34    34    35    1
    35    35    36    1
    36    34     3   ar
    37    19    14   ar
    38    26    21   ar
    39    26    17   ar
    40     1    37    1
    41     1    38    1
    42     1    39    1
    43     4    40    1
    44     5    41    1
    45     6    42    1
    46     8    43    1
    47     8    44    1
    48     9    45    1
    49     9    46    1
    50    10    47    1
    51    11    48    1
    52    12    49    1
    53    13    50    1
    54    13    51    1
    55    15    52    1
    56    16    53    1
    57    19    54    1
    58    22    55    1
    59    23    56    1
    60    24    57    1
    61    25    58    1
    62    29    59    1
    63    32    60    1
    64    33    61    1
    65    36    62    1
    66    36    63    1
    67    36    64    1
