@<TRIPOS>MOLECULE
*****
 43 44 0 0 0
SMALL
GASTEIGER

@<TRIPOS>ATOM
      1 O          -8.7894   -1.6986   -1.3605 O.3     1  UNL1       -0.4806
      2 C          -8.1815   -0.8848   -0.4400 C.2     1  UNL1        0.3048
      3 O          -8.8428   -0.5066    0.5580 O.2     1  UNL1       -0.2510
      4 C          -6.7794   -0.3861   -0.4989 C.3     1  UNL1        0.0478
      5 C          -6.4710    0.4886    0.7081 C.3     1  UNL1       -0.0086
      6 C          -5.0554    0.9866    0.6348 C.3     1  UNL1        0.0901
      7 O          -4.1483   -0.0767    0.6125 O.3     1  UNL1       -0.4919
      8 C          -2.7894    0.1681    0.5443 C.ar    1  UNL1        0.1220
      9 C          -1.9321   -0.9123    0.5198 C.ar    1  UNL1       -0.0181
     10 C          -0.5925   -0.6194    0.4493 C.ar    1  UNL1       -0.0356
     11 C          -0.0633    0.6424    0.4028 C.ar    1  UNL1        0.0534
     12 N           1.3403    0.9291    0.3058 N.am    1  UNL1       -0.2678
     13 C           2.3107   -0.1498    0.1616 C.2     1  UNL1        0.3104
     14 O           2.1213   -1.3564    0.1061 O.2     1  UNL1       -0.2521
     15 N           3.4213    0.6930    0.1158 N.am    1  UNL1       -0.2359
     16 C           4.6550   -0.0989   -0.2009 C.2     1  UNL1        0.2529
     17 O           4.6190   -1.3573   -0.3866 O.2     1  UNL1       -0.2697
     18 C           6.1320   -0.0193   -0.4232 C.ar    1  UNL1        0.0555
     19 C           6.6529    0.0904   -1.7115 C.ar    1  UNL1       -0.0468
     20 C           8.0309    0.1925   -1.8103 C.ar    1  UNL1       -0.0426
     21 C           8.7411    0.1757   -0.6341 C.ar    1  UNL1        0.0424
     22 CL         10.4913    0.3077   -0.7902 Cl      1  UNL1       -0.0835
     23 C           8.2651    0.0689    0.6465 C.ar    1  UNL1       -0.0243
     24 C           6.8673   -0.0347    0.7387 C.ar    1  UNL1        0.0544
     25 CL          6.1531   -0.1736    2.3193 Cl      1  UNL1       -0.0827
     26 C          -0.9763    1.6584    0.4323 C.ar    1  UNL1        0.0656
     27 CL         -0.4731    3.3571    0.3796 Cl      1  UNL1       -0.0815
     28 C          -2.3272    1.4587    0.5017 C.ar    1  UNL1        0.0002
     29 H          -9.7984   -1.6237   -1.5853 H       1  UNL1        0.2951
     30 H          -6.0349   -1.1920   -0.5892 H       1  UNL1        0.0378
     31 H          -6.6810    0.2249   -1.4208 H       1  UNL1        0.0378
     32 H          -6.5607   -0.0785    1.6526 H       1  UNL1        0.0303
     33 H          -7.1627    1.3460    0.7517 H       1  UNL1        0.0303
     34 H          -4.9179    1.5734   -0.3180 H       1  UNL1        0.0696
     35 H          -4.8779    1.6995    1.4667 H       1  UNL1        0.0696
     36 H          -2.3456   -1.8987    0.5536 H       1  UNL1        0.0655
     37 H           0.0082   -1.5096    0.4386 H       1  UNL1        0.0638
     38 H           1.5138    1.9800    0.3573 H       1  UNL1        0.1564
     39 H           4.1874    1.2715    0.0840 H       1  UNL1        0.1594
     40 H           5.9542    0.0887   -2.5269 H       1  UNL1        0.0626
     41 H           8.4564    0.2758   -2.7778 H       1  UNL1        0.0632
     42 H           8.9069    0.0651    1.5061 H       1  UNL1        0.0647
     43 H          -3.0275    2.2764    0.5267 H       1  UNL1        0.0669
@<TRIPOS>BOND
     1     1     2    1
     2     2     3    2
     3     2     4    1
     4     4     5    1
     5     5     6    1
     6     6     7    1
     7     7     8    1
     8     8     9   ar
     9     9    10   ar
    10    10    11   ar
    11    11    12    1
    12    12    13   am
    13    13    14    2
    14    13    15   am
    15    15    16   am
    16    16    17    2
    17    16    18    1
    18    18    19   ar
    19    19    20   ar
    20    20    21   ar
    21    21    22    1
    22    21    23   ar
    23    23    24   ar
    24    24    25    1
    25    11    26   ar
    26    26    27    1
    27    26    28   ar
    28    28     8   ar
    29    24    18   ar
    30     1    29    1
    31     4    30    1
    32     4    31    1
    33     5    32    1
    34     5    33    1
    35     6    34    1
    36     6    35    1
    37     9    36    1
    38    10    37    1
    39    12    38    1
    40    15    39    1
    41    19    40    1
    42    20    41    1
    43    23    42    1
    44    28    43    1
