@<TRIPOS>MOLECULE
*****
 42 45 0 0 0
SMALL
GASTEIGER

@<TRIPOS>ATOM
      1 C          -2.5875    1.7093    1.5862 C.3     1  UNL1       -0.0444
      2 C          -1.9050    2.4590    0.4705 C.3     1  UNL1        0.0303
      3 C          -2.1607    3.9473    0.7206 C.3     1  UNL1       -0.0444
      4 N          -0.4883    2.2356    0.4205 N.ar    1  UNL1       -0.3270
      5 C           0.4809    3.1255    0.7547 C.ar    1  UNL1        0.0973
      6 N           1.6505    2.5120    0.5615 N.ar    1  UNL1       -0.2351
      7 C           1.4323    1.2456    0.1094 C.ar    1  UNL1        0.0967
      8 C           2.5402    0.3558   -0.1801 C.ar    1  UNL1        0.0026
      9 C           2.8349   -0.7525    0.5770 C.ar    1  UNL1       -0.0498
     10 C           3.9055   -1.6048    0.2808 C.ar    1  UNL1       -0.0258
     11 C           4.7161   -1.3401   -0.8168 C.ar    1  UNL1        0.1234
     12 F           5.7531   -2.1717   -1.0978 F       1  UNL1       -0.2055
     13 C           4.4256   -0.2340   -1.5760 C.ar    1  UNL1       -0.0258
     14 C           3.3731    0.5977   -1.2789 C.ar    1  UNL1       -0.0498
     15 C           0.0897    1.0831    0.0248 C.ar    1  UNL1        0.0781
     16 C          -0.6024   -0.1182   -0.4172 C.ar    1  UNL1        0.0173
     17 C          -1.3088   -0.1039   -1.6206 C.ar    1  UNL1       -0.0477
     18 C          -1.9759   -1.2245   -2.0597 C.ar    1  UNL1       -0.0181
     19 C          -1.9677   -2.3953   -1.3261 C.ar    1  UNL1        0.1385
     20 N          -2.5359   -3.6162   -1.5374 N.ar    1  UNL1       -0.2348
     21 C          -2.2043   -4.3982   -0.4965 C.ar    1  UNL1        0.0643
     22 C          -1.4242   -3.6373    0.3555 C.ar    1  UNL1        0.1438
     23 C          -0.8371   -4.0459    1.5993 C.1     1  UNL1        0.1192
     24 N          -0.3410   -4.3787    2.6026 N.1     1  UNL1       -0.1893
     25 N          -1.2938   -2.4055   -0.1803 N.ar    1  UNL1       -0.2906
     26 C          -0.6264   -1.3089    0.2744 C.ar    1  UNL1        0.0216
     27 H          -3.6805    1.9431    1.4965 H       1  UNL1        0.0249
     28 H          -2.4954    0.6277    1.3658 H       1  UNL1        0.0249
     29 H          -2.1610    2.0051    2.5545 H       1  UNL1        0.0249
     30 H          -2.4376    2.2113   -0.4640 H       1  UNL1        0.0523
     31 H          -1.4774    4.5180    0.0660 H       1  UNL1        0.0249
     32 H          -1.8628    4.1122    1.7900 H       1  UNL1        0.0249
     33 H          -3.2116    4.2175    0.5784 H       1  UNL1        0.0249
     34 H           0.2772    4.1348    1.1070 H       1  UNL1        0.1029
     35 H           2.2382   -0.9989    1.4415 H       1  UNL1        0.0625
     36 H           4.1182   -2.4759    0.8954 H       1  UNL1        0.0646
     37 H           5.0442   -0.0194   -2.4273 H       1  UNL1        0.0646
     38 H           3.1399    1.4612   -1.8644 H       1  UNL1        0.0625
     39 H          -1.3476    0.7719   -2.2245 H       1  UNL1        0.0626
     40 H          -2.5338   -1.2473   -2.9885 H       1  UNL1        0.0654
     41 H          -2.4554   -5.4293   -0.2888 H       1  UNL1        0.0859
     42 H          -0.0974   -1.3673    1.2120 H       1  UNL1        0.0820
@<TRIPOS>BOND
     1     1     2    1
     2     2     3    1
     3     2     4    1
     4     4     5   ar
     5     5     6   ar
     6     6     7   ar
     7     7     8    1
     8     8     9   ar
     9     9    10   ar
    10    10    11   ar
    11    11    12    1
    12    11    13   ar
    13    13    14   ar
    14     7    15   ar
    15    15    16    1
    16    16    17   ar
    17    17    18   ar
    18    18    19   ar
    19    19    20   ar
    20    20    21   ar
    21    21    22   ar
    22    22    23    1
    23    23    24    3
    24    22    25   ar
    25    25    26   ar
    26    15     4   ar
    27    26    16   ar
    28    14     8   ar
    29    25    19   ar
    30     1    27    1
    31     1    28    1
    32     1    29    1
    33     2    30    1
    34     3    31    1
    35     3    32    1
    36     3    33    1
    37     5    34    1
    38     9    35    1
    39    10    36    1
    40    13    37    1
    41    14    38    1
    42    17    39    1
    43    18    40    1
    44    21    41    1
    45    26    42    1
