
     RDKit          3D

 42 45  0  0  0  0  0  0  0  0999 V2000
   -2.5875    1.7093    1.5862 C   0  0  0  0  0  0  0  0  0  0  0  0
   -1.9050    2.4590    0.4705 C   0  0  0  0  0  0  0  0  0  0  0  0
   -2.1607    3.9473    0.7206 C   0  0  0  0  0  0  0  0  0  0  0  0
   -0.4883    2.2356    0.4205 N   0  0  0  0  0  0  0  0  0  0  0  0
    0.4809    3.1255    0.7547 C   0  0  0  0  0  0  0  0  0  0  0  0
    1.6505    2.5120    0.5615 N   0  0  0  0  0  0  0  0  0  0  0  0
    1.4323    1.2456    0.1094 C   0  0  0  0  0  0  0  0  0  0  0  0
    2.5402    0.3558   -0.1801 C   0  0  0  0  0  0  0  0  0  0  0  0
    2.8349   -0.7525    0.5770 C   0  0  0  0  0  0  0  0  0  0  0  0
    3.9055   -1.6048    0.2808 C   0  0  0  0  0  0  0  0  0  0  0  0
    4.7161   -1.3401   -0.8168 C   0  0  0  0  0  0  0  0  0  0  0  0
    5.7531   -2.1717   -1.0978 F   0  0  0  0  0  0  0  0  0  0  0  0
    4.4256   -0.2340   -1.5760 C   0  0  0  0  0  0  0  0  0  0  0  0
    3.3731    0.5977   -1.2789 C   0  0  0  0  0  0  0  0  0  0  0  0
    0.0897    1.0831    0.0248 C   0  0  0  0  0  0  0  0  0  0  0  0
   -0.6024   -0.1182   -0.4172 C   0  0  0  0  0  0  0  0  0  0  0  0
   -1.3088   -0.1039   -1.6206 C   0  0  0  0  0  0  0  0  0  0  0  0
   -1.9759   -1.2245   -2.0597 C   0  0  0  0  0  0  0  0  0  0  0  0
   -1.9677   -2.3953   -1.3261 C   0  0  0  0  0  0  0  0  0  0  0  0
   -2.5359   -3.6162   -1.5374 N   0  0  0  0  0  0  0  0  0  0  0  0
   -2.2043   -4.3982   -0.4965 C   0  0  0  0  0  0  0  0  0  0  0  0
   -1.4242   -3.6373    0.3555 C   0  0  0  0  0  0  0  0  0  0  0  0
   -0.8371   -4.0459    1.5993 C   0  0  0  0  0  0  0  0  0  0  0  0
   -0.3410   -4.3787    2.6026 N   0  0  0  0  0  0  0  0  0  0  0  0
   -1.2938   -2.4055   -0.1803 N   0  0  0  0  0  0  0  0  0  0  0  0
   -0.6264   -1.3089    0.2744 C   0  0  0  0  0  0  0  0  0  0  0  0
   -3.6805    1.9431    1.4965 H   0  0  0  0  0  0  0  0  0  0  0  0
   -2.4954    0.6277    1.3658 H   0  0  0  0  0  0  0  0  0  0  0  0
   -2.1610    2.0051    2.5545 H   0  0  0  0  0  0  0  0  0  0  0  0
   -2.4376    2.2113   -0.4640 H   0  0  0  0  0  0  0  0  0  0  0  0
   -1.4774    4.5180    0.0660 H   0  0  0  0  0  0  0  0  0  0  0  0
   -1.8628    4.1122    1.7900 H   0  0  0  0  0  0  0  0  0  0  0  0
   -3.2116    4.2175    0.5784 H   0  0  0  0  0  0  0  0  0  0  0  0
    0.2772    4.1348    1.1070 H   0  0  0  0  0  0  0  0  0  0  0  0
    2.2382   -0.9989    1.4415 H   0  0  0  0  0  0  0  0  0  0  0  0
    4.1182   -2.4759    0.8954 H   0  0  0  0  0  0  0  0  0  0  0  0
    5.0442   -0.0194   -2.4273 H   0  0  0  0  0  0  0  0  0  0  0  0
    3.1399    1.4612   -1.8644 H   0  0  0  0  0  0  0  0  0  0  0  0
   -1.3476    0.7719   -2.2245 H   0  0  0  0  0  0  0  0  0  0  0  0
   -2.5338   -1.2473   -2.9885 H   0  0  0  0  0  0  0  0  0  0  0  0
   -2.4554   -5.4293   -0.2888 H   0  0  0  0  0  0  0  0  0  0  0  0
   -0.0974   -1.3673    1.2120 H   0  0  0  0  0  0  0  0  0  0  0  0
  1  2  1  0
  2  3  1  0
  2  4  1  0
  4  5  1  0
  5  6  2  0
  6  7  1  0
  7  8  1  0
  8  9  2  0
  9 10  1  0
 10 11  2  0
 11 12  1  0
 11 13  1  0
 13 14  2  0
  7 15  2  0
 15 16  1  0
 16 17  1  0
 17 18  2  0
 18 19  1  0
 19 20  2  0
 20 21  1  0
 21 22  2  0
 22 23  1  0
 23 24  3  0
 22 25  1  0
 25 26  1  0
 15  4  1  0
 26 16  2  0
 14  8  1  0
 25 19  1  0
  1 27  1  0
  1 28  1  0
  1 29  1  0
  2 30  1  0
  3 31  1  0
  3 32  1  0
  3 33  1  0
  5 34  1  0
  9 35  1  0
 10 36  1  0
 13 37  1  0
 14 38  1  0
 17 39  1  0
 18 40  1  0
 21 41  1  0
 26 42  1  0
M  END
$$$$
