@<TRIPOS>MOLECULE
*****
 75 82 0 0 0
SMALL
GASTEIGER

@<TRIPOS>ATOM
      1 CL         -9.3399    6.2444    0.4641 Cl      1  UNL1       -0.1171
      2 C          -9.6972    4.8610   -0.5641 C.3     1  UNL1        0.0828
      3 C          -8.8852    3.6956   -0.1288 C.ar    1  UNL1        0.1525
      4 N          -9.2819    2.7903    0.7891 N.ar    1  UNL1       -0.1324
      5 N          -8.3148    1.8790    0.9417 N.ar    1  UNL1       -0.1287
      6 C          -7.2939    2.1878    0.1290 C.ar    1  UNL1        0.1704
      7 C          -6.0883    1.5473   -0.0611 C.ar    1  UNL1        0.0456
      8 C          -5.7366    0.3995    0.6190 C.ar    1  UNL1       -0.0392
      9 C          -4.5269   -0.2328    0.4191 C.ar    1  UNL1        0.0088
     10 C          -4.1230   -1.4400    1.1163 C.ar    1  UNL1       -0.0158
     11 C          -3.8717   -2.6342    0.4781 C.ar    1  UNL1       -0.0540
     12 C          -3.4868   -3.7702    1.1618 C.ar    1  UNL1       -0.0612
     13 C          -3.3439   -3.7268    2.5311 C.ar    1  UNL1       -0.0617
     14 C          -3.5915   -2.5408    3.1818 C.ar    1  UNL1       -0.0612
     15 C          -3.9795   -1.3995    2.4835 C.ar    1  UNL1       -0.0540
     16 C          -3.6656    0.3439   -0.5095 C.ar    1  UNL1        0.0794
     17 C          -2.3780   -0.3391   -0.7182 C.ar    1  UNL1        0.0010
     18 C          -1.4706   -0.4503    0.3181 C.ar    1  UNL1       -0.0522
     19 C          -0.2684   -1.0921    0.1343 C.ar    1  UNL1       -0.0567
     20 C           0.0760   -1.6413   -1.0688 C.ar    1  UNL1       -0.0333
     21 C           1.3696   -2.3360   -1.2607 C.3     1  UNL1        0.0240
     22 N           2.3432   -1.4136   -1.7265 N.3     1  UNL1       -0.2981
     23 C           3.6420   -2.0175   -1.9534 C.3     1  UNL1       -0.0001
     24 C           4.3423   -2.3611   -0.6723 C.3     1  UNL1       -0.0304
     25 C           4.0392   -1.4733    0.4794 C.3     1  UNL1        0.0212
     26 C           5.3706   -1.0694    1.0652 C.ar    1  UNL1        0.1344
     27 N           5.8956   -1.2890    2.2575 N.ar    1  UNL1       -0.1339
     28 N           7.1094   -0.7156    2.2614 N.ar    1  UNL1       -0.1278
     29 C           7.3584   -0.1368    1.0878 C.ar    1  UNL1        0.1800
     30 C           8.5451    0.5967    0.6456 C.ar    1  UNL1        0.1077
     31 C           8.5984    1.1189   -0.6292 C.ar    1  UNL1       -0.0326
     32 C           9.6887    1.8192   -1.1070 C.ar    1  UNL1       -0.0582
     33 C          10.7554    1.9907   -0.2564 C.ar    1  UNL1       -0.0436
     34 C          10.6617    1.4529    1.0098 C.ar    1  UNL1        0.0284
     35 N           9.5889    0.7738    1.4539 N.ar    1  UNL1       -0.2519
     36 N           6.2545   -0.3646    0.3368 N.ar    1  UNL1       -0.3237
     37 C           3.2771   -0.2375    0.2167 C.3     1  UNL1       -0.0304
     38 C           2.4661   -0.1824   -1.0326 C.3     1  UNL1       -0.0001
     39 C          -0.8301   -1.5322   -2.1110 C.ar    1  UNL1       -0.0567
     40 C          -2.0324   -0.8899   -1.9256 C.ar    1  UNL1       -0.0522
     41 N          -4.0053    1.4640   -1.1750 N.ar    1  UNL1       -0.2459
     42 C          -5.1959    2.0750   -0.9697 C.ar    1  UNL1        0.0766
     43 C          -5.5718    3.2222   -1.6367 C.ar    1  UNL1       -0.0190
     44 C          -6.8105    3.8238   -1.3981 C.ar    1  UNL1        0.0150
     45 N          -7.6586    3.3023   -0.5194 N.ar    1  UNL1       -0.2848
     46 H          -9.5458    5.0776   -1.6519 H       1  UNL1        0.0510
     47 H         -10.7674    4.6148   -0.4392 H       1  UNL1        0.0510
     48 H          -6.4245   -0.0270    1.3344 H       1  UNL1        0.0632
     49 H          -3.9762   -2.6953   -0.5965 H       1  UNL1        0.0624
     50 H          -3.2876   -4.7136    0.6668 H       1  UNL1        0.0618
     51 H          -3.0377   -4.6223    3.0930 H       1  UNL1        0.0618
     52 H          -3.4776   -2.5040    4.2741 H       1  UNL1        0.0618
     53 H          -4.1677   -0.4857    3.0082 H       1  UNL1        0.0624
     54 H          -1.7424   -0.0154    1.2686 H       1  UNL1        0.0624
     55 H           0.4308   -1.1719    0.9520 H       1  UNL1        0.0621
     56 H           1.6586   -2.8445   -0.3186 H       1  UNL1        0.0476
     57 H           1.1914   -3.0852   -2.0845 H       1  UNL1        0.0476
     58 H           4.2362   -1.2955   -2.5538 H       1  UNL1        0.0427
     59 H           3.4798   -2.9112   -2.5910 H       1  UNL1        0.0427
     60 H           5.4247   -2.4496   -0.8985 H       1  UNL1        0.0284
     61 H           4.0228   -3.4148   -0.4173 H       1  UNL1        0.0284
     62 H           3.5542   -2.0646    1.3128 H       1  UNL1        0.0380
     63 H           7.7716    1.0063   -1.3400 H       1  UNL1        0.0640
     64 H           9.7085    2.2226   -2.1175 H       1  UNL1        0.0619
     65 H          11.6290    2.5399   -0.6082 H       1  UNL1        0.0633
     66 H          11.5133    1.6010    1.6602 H       1  UNL1        0.0830
     67 H           6.1518   -0.0288   -0.6412 H       1  UNL1        0.1686
     68 H           3.9330    0.6817    0.2758 H       1  UNL1        0.0284
     69 H           2.5581   -0.0759    1.0743 H       1  UNL1        0.0284
     70 H           1.4655    0.2680   -0.8949 H       1  UNL1        0.0427
     71 H           2.9821    0.5304   -1.7478 H       1  UNL1        0.0427
     72 H          -0.5465   -1.9705   -3.0574 H       1  UNL1        0.0621
     73 H          -2.7352   -0.8168   -2.7698 H       1  UNL1        0.0624
     74 H          -4.8718    3.6266   -2.3417 H       1  UNL1        0.0654
     75 H          -7.0649    4.7214   -1.9427 H       1  UNL1        0.0814
@<TRIPOS>BOND
     1     1     2    1
     2     2     3    1
     3     3     4   ar
     4     4     5   ar
     5     5     6   ar
     6     6     7   ar
     7     7     8   ar
     8     8     9   ar
     9     9    10    1
    10    10    11   ar
    11    11    12   ar
    12    12    13   ar
    13    13    14   ar
    14    14    15   ar
    15     9    16   ar
    16    16    17    1
    17    17    18   ar
    18    18    19   ar
    19    19    20   ar
    20    20    21    1
    21    21    22    1
    22    22    23    1
    23    23    24    1
    24    24    25    1
    25    25    26    1
    26    26    27   ar
    27    27    28   ar
    28    28    29   ar
    29    29    30    1
    30    30    31   ar
    31    31    32   ar
    32    32    33   ar
    33    33    34   ar
    34    34    35   ar
    35    29    36   ar
    36    25    37    1
    37    37    38    1
    38    20    39   ar
    39    39    40   ar
    40    16    41   ar
    41    41    42   ar
    42    42    43   ar
    43    43    44   ar
    44    44    45   ar
    45    45     3   ar
    46    45     6   ar
    47    42     7   ar
    48    15    10   ar
    49    40    17   ar
    50    38    22    1
    51    36    26   ar
    52    35    30   ar
    53     2    46    1
    54     2    47    1
    55     8    48    1
    56    11    49    1
    57    12    50    1
    58    13    51    1
    59    14    52    1
    60    15    53    1
    61    18    54    1
    62    19    55    1
    63    21    56    1
    64    21    57    1
    65    23    58    1
    66    23    59    1
    67    24    60    1
    68    24    61    1
    69    25    62    1
    70    31    63    1
    71    32    64    1
    72    33    65    1
    73    34    66    1
    74    36    67    1
    75    37    68    1
    76    37    69    1
    77    38    70    1
    78    38    71    1
    79    39    72    1
    80    40    73    1
    81    43    74    1
    82    44    75    1
