@<TRIPOS>MOLECULE
*****
 25 27 0 0 0
SMALL
GASTEIGER

@<TRIPOS>ATOM
      1 O           0.2516   -1.3775   -1.7186 O.2     1  UNL1        0.0000
      2 C           0.5765   -0.4705   -0.7700 C.ar    1  UNL1        0.0000
      3 C           1.8706   -0.1366   -0.6238 C.ar    1  UNL1        0.0000
      4 C           2.9870   -0.6248   -1.3578 C.ar    1  UNL1        0.0000
      5 C           4.2327   -0.2011   -1.1038 C.ar    1  UNL1        0.0000
      6 C           4.5593    0.7148   -0.1455 C.ar    1  UNL1        0.0000
      7 C           3.5010    1.2355    0.6143 C.ar    1  UNL1        0.0000
      8 C           2.2363    0.7740    0.3217 C.ar    1  UNL1        0.0000
      9 SE          0.5131    1.2626    1.1610 Se      1  UNL1        0.0000
     10 N          -0.4419   -0.0405   -0.1176 N.ar    1  UNL1        0.0000
     11 C          -1.7671   -0.1168    0.0270 C.ar    1  UNL1        0.0000
     12 C          -2.5961    0.9229   -0.3440 C.ar    1  UNL1        0.0000
     13 C          -3.9621    0.8763   -0.2089 C.ar    1  UNL1        0.0000
     14 C          -4.5324   -0.2743    0.3272 C.ar    1  UNL1        0.0000
     15 C          -3.7487   -1.3277    0.7078 C.ar    1  UNL1        0.0000
     16 C          -2.3854   -1.2470    0.5585 C.ar    1  UNL1        0.0000
     17 H           2.7802   -1.3457   -2.1206 H       1  UNL1        0.0000
     18 H           5.0996   -0.5809   -1.6744 H       1  UNL1        0.0000
     19 H           5.5421    1.0691    0.0770 H       1  UNL1        0.0000
     20 H           3.6500    1.9643    1.3959 H       1  UNL1        0.0000
     21 H          -2.1696    1.8321   -0.7656 H       1  UNL1        0.0000
     22 H          -4.5953    1.7006   -0.5051 H       1  UNL1        0.0000
     23 H          -5.6077   -0.2936    0.4261 H       1  UNL1        0.0000
     24 H          -4.2057   -2.2143    1.1224 H       1  UNL1        0.0000
     25 H          -1.7878   -2.1008    0.8702 H       1  UNL1        0.0000
@<TRIPOS>BOND
     1     1     2    2
     2     2     3   ar
     3     3     4   ar
     4     4     5   ar
     5     5     6   ar
     6     6     7   ar
     7     7     8   ar
     8     8     9   ar
     9     9    10   ar
    10    10    11    1
    11    11    12   ar
    12    12    13   ar
    13    13    14   ar
    14    14    15   ar
    15    15    16   ar
    16    10     2   ar
    17    16    11   ar
    18     8     3   ar
    19     4    17    1
    20     5    18    1
    21     6    19    1
    22     7    20    1
    23    12    21    1
    24    13    22    1
    25    14    23    1
    26    15    24    1
    27    16    25    1
