@<TRIPOS>MOLECULE
*****
 59 62 0 0 0
SMALL
GASTEIGER

@<TRIPOS>ATOM
      1 N           1.0655   -0.8293    2.0809 N.3     1  UNL1       -0.3173
      2 C           1.1387   -0.3277    0.7163 C.3     1  UNL1        0.0965
      3 C          -0.2418   -0.3960    0.1617 C.2     1  UNL1        0.2336
      4 O          -0.4139   -0.0028   -1.0311 O.2     1  UNL1       -0.2738
      5 N          -1.3487   -0.8662    0.8793 N.am    1  UNL1       -0.3069
      6 C          -2.7080   -0.9244    0.3091 C.3     1  UNL1        0.0499
      7 C          -3.1117   -2.3579    0.3488 C.3     1  UNL1       -0.0095
      8 C          -4.4346   -2.7176   -0.1953 C.3     1  UNL1        0.0835
      9 S          -4.6606   -2.4246   -1.9180 S.O2    1  UNL1        0.0270
     10 N          -4.4606   -0.7839   -2.3763 N.3     1  UNL1       -0.2081
     11 O          -3.7339   -3.3011   -2.7310 O.2     1  UNL1       -0.1584
     12 O          -6.0704   -2.8103   -2.3509 O.2     1  UNL1       -0.1584
     13 C          -3.6078   -0.0601    1.1249 C.ar    1  UNL1       -0.0271
     14 C          -4.3885    0.9204    0.5929 C.ar    1  UNL1       -0.0554
     15 C          -5.2002    1.6545    1.4551 C.ar    1  UNL1       -0.0431
     16 C          -5.2268    1.4128    2.8051 C.ar    1  UNL1        0.0410
     17 CL         -6.2429    2.3258    3.9108 Cl      1  UNL1       -0.0835
     18 C          -4.4366    0.4240    3.3294 C.ar    1  UNL1       -0.0431
     19 C          -3.6381   -0.2979    2.4778 C.ar    1  UNL1       -0.0554
     20 C           2.1003   -1.1863   -0.0337 C.3     1  UNL1       -0.0104
     21 C           2.8382   -0.5378   -1.1425 C.3     1  UNL1        0.0156
     22 N           2.9465    0.8857   -1.0736 N.pl3   1  UNL1       -0.3144
     23 C           4.1285    1.4985   -1.5622 C.ar    1  UNL1        0.1337
     24 N           4.1298    2.3353   -2.6102 N.ar    1  UNL1       -0.2200
     25 C           5.2857    2.8851   -3.0399 C.ar    1  UNL1        0.1204
     26 N           6.4741    2.6332   -2.4580 N.ar    1  UNL1       -0.2178
     27 C           6.5201    1.8120   -1.4186 C.ar    1  UNL1        0.1432
     28 N           7.5270    1.3791   -0.6462 N.ar    1  UNL1       -0.3457
     29 C           7.0527    0.5457    0.2948 C.ar    1  UNL1        0.0042
     30 C           5.6922    0.4463    0.1120 C.ar    1  UNL1       -0.0318
     31 C           5.3549    1.2361   -0.9583 C.ar    1  UNL1        0.0585
     32 C           1.8948    1.7186   -0.5241 C.3     1  UNL1        0.0156
     33 C           1.5205    1.1165    0.8067 C.3     1  UNL1       -0.0104
     34 H           0.4344   -0.2768    2.6840 H       1  UNL1        0.1192
     35 H           0.8831   -1.8518    2.0753 H       1  UNL1        0.1192
     36 H          -1.2051   -1.1897    1.8608 H       1  UNL1        0.1493
     37 H          -2.6964   -0.5575   -0.7100 H       1  UNL1        0.0549
     38 H          -2.3356   -2.9111   -0.2633 H       1  UNL1        0.0302
     39 H          -3.0151   -2.8178    1.3557 H       1  UNL1        0.0302
     40 H          -5.2882   -2.2993    0.3881 H       1  UNL1        0.0516
     41 H          -4.5545   -3.8345   -0.0573 H       1  UNL1        0.0516
     42 H          -5.3813   -0.2913   -2.3998 H       1  UNL1        0.1438
     43 H          -4.0569   -0.7748   -3.3435 H       1  UNL1        0.1438
     44 H          -4.3924    1.1571   -0.4836 H       1  UNL1        0.0621
     45 H          -5.8286    2.4361    1.0615 H       1  UNL1        0.0632
     46 H          -4.4535    0.2287    4.3954 H       1  UNL1        0.0632
     47 H          -3.0355   -1.0673    2.9539 H       1  UNL1        0.0621
     48 H           2.8310   -1.6967    0.6307 H       1  UNL1        0.0303
     49 H           1.4950   -2.0344   -0.4772 H       1  UNL1        0.0303
     50 H           2.3393   -0.7609   -2.1346 H       1  UNL1        0.0465
     51 H           3.8571   -0.9551   -1.2566 H       1  UNL1        0.0465
     52 H           5.2065    3.5595   -3.9027 H       1  UNL1        0.1048
     53 H           8.5554    1.6155   -0.7110 H       1  UNL1        0.1668
     54 H           7.5977    0.0214    1.0777 H       1  UNL1        0.0807
     55 H           4.9734   -0.1350    0.6834 H       1  UNL1        0.0640
     56 H           1.0297    1.8322   -1.1825 H       1  UNL1        0.0465
     57 H           2.3358    2.7107   -0.3058 H       1  UNL1        0.0465
     58 H           2.3267    1.2816    1.5512 H       1  UNL1        0.0303
     59 H           0.6333    1.6768    1.1748 H       1  UNL1        0.0303
@<TRIPOS>BOND
     1     1     2    1
     2     2     3    1
     3     3     4    2
     4     3     5   am
     5     5     6    1
     6     6     7    1
     7     7     8    1
     8     8     9    1
     9     9    10    1
    10     9    11    2
    11     9    12    2
    12     6    13    1
    13    13    14   ar
    14    14    15   ar
    15    15    16   ar
    16    16    17    1
    17    16    18   ar
    18    18    19   ar
    19     2    20    1
    20    20    21    1
    21    21    22    1
    22    22    23    1
    23    23    24   ar
    24    24    25   ar
    25    25    26   ar
    26    26    27   ar
    27    27    28   ar
    28    28    29   ar
    29    29    30   ar
    30    30    31   ar
    31    22    32    1
    32    32    33    1
    33    33     2    1
    34    19    13   ar
    35    31    23   ar
    36    31    27   ar
    37     1    34    1
    38     1    35    1
    39     5    36    1
    40     6    37    1
    41     7    38    1
    42     7    39    1
    43     8    40    1
    44     8    41    1
    45    10    42    1
    46    10    43    1
    47    14    44    1
    48    15    45    1
    49    18    46    1
    50    19    47    1
    51    20    48    1
    52    20    49    1
    53    21    50    1
    54    21    51    1
    55    25    52    1
    56    28    53    1
    57    29    54    1
    58    30    55    1
    59    32    56    1
    60    32    57    1
    61    33    58    1
    62    33    59    1
