
     RDKit          3D

 55 58  0  0  0  0  0  0  0  0999 V2000
   -8.1512   -5.5419    0.1090 C   0  0  0  0  0  0  0  0  0  0  0  0
   -8.0090   -4.3194    0.2887 C   0  0  0  0  0  0  0  0  0  0  0  0
   -7.8467   -2.8778    0.5262 C   0  0  2  0  0  0  0  0  0  0  0  0
   -9.1278   -2.2681    1.0051 C   0  0  0  0  0  0  0  0  0  0  0  0
   -7.5322   -2.2026   -0.6999 O   0  0  0  0  0  0  0  0  0  0  0  0
   -6.2076   -1.6477   -0.7236 C   0  0  0  0  0  0  0  0  0  0  0  0
   -5.8949   -0.8875   -1.8025 C   0  0  0  0  0  0  0  0  0  0  0  0
   -4.6650   -0.3051   -1.9607 N   0  0  0  0  0  0  0  0  0  0  0  0
   -3.7015   -0.5026   -0.9513 C   0  0  0  0  0  0  0  0  0  0  0  0
   -2.4588    0.2157   -1.0214 C   0  0  0  0  0  0  0  0  0  0  0  0
   -2.5522    1.3105   -1.9469 F   0  0  0  0  0  0  0  0  0  0  0  0
   -1.3450    0.0180   -0.3880 C   0  0  0  0  0  0  0  0  0  0  0  0
   -0.1901    0.8994   -0.6130 C   0  0  0  0  0  0  0  0  0  0  0  0
   -0.3378    2.1877   -1.0039 C   0  0  0  0  0  0  0  0  0  0  0  0
    0.7454    3.0784   -1.0332 C   0  0  0  0  0  0  0  0  0  0  0  0
    1.9703    2.7258   -0.6743 C   0  0  0  0  0  0  0  0  0  0  0  0
    2.9943    3.6579   -0.7196 F   0  0  0  0  0  0  0  0  0  0  0  0
    2.2122    1.4277   -0.2745 C   0  0  0  0  0  0  0  0  0  0  0  0
    3.4705    0.9828    0.3871 C   0  0  1  0  0  0  0  0  0  0  0  0
    3.1080    1.3760    1.9061 C   0  0  0  0  0  0  0  0  0  0  0  0
    3.5016   -0.4473    0.5015 N   0  0  0  0  0  0  0  0  0  0  0  0
    4.4211   -1.2666    0.6147 C   0  0  0  0  0  0  0  0  0  0  0  0
    4.3195   -2.6700    0.7116 N   0  0  0  0  0  0  0  0  0  0  0  0
    6.1172   -0.5905    0.6469 S   0  0  0  0  0  0  0  0  0  0  0  0
    6.0115    1.1009    0.2141 C   0  0  1  0  0  0  0  0  0  0  0  0
    7.0540    2.0412    0.8404 C   0  0  0  0  0  0  0  0  0  0  0  0
    8.2337    2.3904   -0.0451 C   0  0  0  0  0  0  0  0  0  0  0  0
    6.9360    2.4495    1.9140 O   0  0  0  0  0  0  0  0  0  0  0  0
    5.5279    1.4812   -1.1489 C   0  0  0  0  0  0  0  0  0  0  0  0
    4.6779    1.7007    0.0240 C   0  0  1  0  0  0  0  0  0  0  0  0
    1.1183    0.5354   -0.2487 C   0  0  0  0  0  0  0  0  0  0  0  0
   -4.0885   -1.2908    0.1260 C   0  0  0  0  0  0  0  0  0  0  0  0
   -5.3248   -1.8492    0.2316 N   0  0  0  0  0  0  0  0  0  0  0  0
   -8.2575   -6.5725   -0.0469 H   0  0  0  0  0  0  0  0  0  0  0  0
   -7.0464   -2.7450    1.2751 H   0  0  0  0  0  0  0  0  0  0  0  0
   -9.9998   -2.9232    0.8247 H   0  0  0  0  0  0  0  0  0  0  0  0
   -9.1086   -2.0558    2.1093 H   0  0  0  0  0  0  0  0  0  0  0  0
   -9.3536   -1.2608    0.4605 H   0  0  0  0  0  0  0  0  0  0  0  0
   -6.6401   -0.7250   -2.6253 H   0  0  0  0  0  0  0  0  0  0  0  0
   -1.2570   -0.8267    0.3217 H   0  0  0  0  0  0  0  0  0  0  0  0
   -1.3109    2.6453   -1.2780 H   0  0  0  0  0  0  0  0  0  0  0  0
    0.5220    4.1327   -1.3570 H   0  0  0  0  0  0  0  0  0  0  0  0
    2.6866    0.5347    2.4205 H   0  0  0  0  0  0  0  0  0  0  0  0
    4.0691    1.6984    2.3319 H   0  0  0  0  0  0  0  0  0  0  0  0
    2.3353    2.2073    1.8337 H   0  0  0  0  0  0  0  0  0  0  0  0
    4.9617   -3.1334   -0.1286 H   0  0  0  0  0  0  0  0  0  0  0  0
    3.8731   -3.3142    1.2792 H   0  0  0  0  0  0  0  0  0  0  0  0
    9.0928    2.6516    0.6475 H   0  0  0  0  0  0  0  0  0  0  0  0
    8.0187    3.3262   -0.6231 H   0  0  0  0  0  0  0  0  0  0  0  0
    8.5874    1.5414   -0.6531 H   0  0  0  0  0  0  0  0  0  0  0  0
    5.9875    2.4044   -1.6490 H   0  0  0  0  0  0  0  0  0  0  0  0
    5.3768    0.7038   -1.9152 H   0  0  0  0  0  0  0  0  0  0  0  0
    4.6362    2.8219    0.3217 H   0  0  0  0  0  0  0  0  0  0  0  0
    1.2428   -0.5117    0.0539 H   0  0  0  0  0  0  0  0  0  0  0  0
   -3.4027   -1.5114    0.9658 H   0  0  0  0  0  0  0  0  0  0  0  0
  1  2  3  0
  2  3  1  0
  3  4  1  0
  3  5  1  0
  5  6  1  0
  6  7  2  0
  7  8  1  0
  8  9  2  0
  9 10  1  0
 10 11  1  0
 10 12  2  0
 12 13  1  0
 13 14  2  0
 14 15  1  0
 15 16  2  0
 16 17  1  0
 16 18  1  0
 18 19  1  0
 19 20  1  1
 19 21  1  0
 21 22  2  0
 22 23  1  0
 22 24  1  0
 24 25  1  0
 25 26  1  1
 26 27  1  0
 26 28  2  0
 25 29  1  0
 29 30  1  0
 18 31  2  0
  9 32  1  0
 32 33  2  0
 33  6  1  0
 31 13  1  0
 30 19  1  0
 30 25  1  0
  1 34  1  0
  3 35  1  1
  4 36  1  0
  4 37  1  0
  4 38  1  0
  7 39  1  0
 12 40  1  0
 14 41  1  0
 15 42  1  0
 20 43  1  0
 20 44  1  0
 20 45  1  0
 23 46  1  0
 23 47  1  0
 27 48  1  0
 27 49  1  0
 27 50  1  0
 29 51  1  0
 29 52  1  0
 30 53  1  1
 31 54  1  0
 32 55  1  0
M  END
$$$$
