@<TRIPOS>MOLECULE
*****
 55 58 0 0 0
SMALL
GASTEIGER

@<TRIPOS>ATOM
      1 C          -8.1512   -5.5419    0.1090 C.1     1  UNL1       -0.1156
      2 C          -8.0090   -4.3194    0.2887 C.1     1  UNL1       -0.0618
      3 C          -7.8467   -2.8778    0.5262 C.3     1  UNL1        0.1588
      4 C          -9.1278   -2.2681    1.0051 C.3     1  UNL1       -0.0162
      5 O          -7.5322   -2.2026   -0.6999 O.3     1  UNL1       -0.4594
      6 C          -6.2076   -1.6477   -0.7236 C.ar    1  UNL1        0.2346
      7 C          -5.8949   -0.8875   -1.8025 C.ar    1  UNL1        0.0899
      8 N          -4.6650   -0.3051   -1.9607 N.ar    1  UNL1       -0.2459
      9 C          -3.7015   -0.5026   -0.9513 C.ar    1  UNL1        0.1172
     10 C          -2.4588    0.2157   -1.0214 C.2     1  UNL1        0.1507
     11 F          -2.5522    1.3105   -1.9469 F       1  UNL1       -0.2032
     12 C          -1.3450    0.0180   -0.3880 C.2     1  UNL1       -0.0171
     13 C          -0.1901    0.8994   -0.6130 C.ar    1  UNL1       -0.0217
     14 C          -0.3378    2.1877   -1.0039 C.ar    1  UNL1       -0.0518
     15 C           0.7454    3.0784   -1.0332 C.ar    1  UNL1       -0.0255
     16 C           1.9703    2.7258   -0.6743 C.ar    1  UNL1        0.1289
     17 F           2.9943    3.6579   -0.7196 F       1  UNL1       -0.2051
     18 C           2.2122    1.4277   -0.2745 C.ar    1  UNL1        0.0158
     19 C           3.4705    0.9828    0.3871 C.3     1  UNL1        0.0935
     20 C           3.1080    1.3760    1.9061 C.3     1  UNL1       -0.0351
     21 N           3.5016   -0.4473    0.5015 N.2     1  UNL1       -0.2521
     22 C           4.4211   -1.2666    0.6147 C.2     1  UNL1        0.1484
     23 N           4.3195   -2.6700    0.7116 N.pl3   1  UNL1       -0.3380
     24 S           6.1172   -0.5905    0.6469 S.3     1  UNL1       -0.0763
     25 C           6.0115    1.1009    0.2141 C.3     1  UNL1        0.0871
     26 C           7.0540    2.0412    0.8404 C.2     1  UNL1        0.1469
     27 C           8.2337    2.3904   -0.0451 C.3     1  UNL1       -0.0046
     28 O           6.9360    2.4495    1.9140 O.2     1  UNL1       -0.2962
     29 C           5.5279    1.4812   -1.1489 C.3     1  UNL1       -0.0237
     30 C           4.6779    1.7007    0.0240 C.3     1  UNL1        0.0118
     31 C           1.1183    0.5354   -0.2487 C.ar    1  UNL1       -0.0463
     32 C          -4.0885   -1.2908    0.1260 C.ar    1  UNL1        0.0596
     33 N          -5.3248   -1.8492    0.2316 N.ar    1  UNL1       -0.2178
     34 H          -8.2575   -6.5725   -0.0469 H       1  UNL1        0.1229
     35 H          -7.0464   -2.7450    1.2751 H       1  UNL1        0.0871
     36 H          -9.9998   -2.9232    0.8247 H       1  UNL1        0.0275
     37 H          -9.1086   -2.0558    2.1093 H       1  UNL1        0.0275
     38 H          -9.3536   -1.2608    0.4605 H       1  UNL1        0.0275
     39 H          -6.6401   -0.7250   -2.6253 H       1  UNL1        0.0884
     40 H          -1.2570   -0.8267    0.3217 H       1  UNL1        0.0653
     41 H          -1.3109    2.6453   -1.2780 H       1  UNL1        0.0624
     42 H           0.5220    4.1327   -1.3570 H       1  UNL1        0.0646
     43 H           2.6866    0.5347    2.4205 H       1  UNL1        0.0256
     44 H           4.0691    1.6984    2.3319 H       1  UNL1        0.0256
     45 H           2.3353    2.2073    1.8337 H       1  UNL1        0.0256
     46 H           4.9617   -3.1334   -0.1286 H       1  UNL1        0.1442
     47 H           3.8731   -3.3142    1.2792 H       1  UNL1        0.1442
     48 H           9.0928    2.6516    0.6475 H       1  UNL1        0.0306
     49 H           8.0187    3.3262   -0.6231 H       1  UNL1        0.0306
     50 H           8.5874    1.5414   -0.6531 H       1  UNL1        0.0306
     51 H           5.9875    2.4044   -1.6490 H       1  UNL1        0.0287
     52 H           5.3768    0.7038   -1.9152 H       1  UNL1        0.0287
     53 H           4.6362    2.8219    0.3217 H       1  UNL1        0.0346
     54 H           1.2428   -0.5117    0.0539 H       1  UNL1        0.0628
     55 H          -3.4027   -1.5114    0.9658 H       1  UNL1        0.0853
@<TRIPOS>BOND
     1     1     2    3
     2     2     3    1
     3     3     4    1
     4     3     5    1
     5     5     6    1
     6     6     7   ar
     7     7     8   ar
     8     8     9   ar
     9     9    10    1
    10    10    11    1
    11    10    12    2
    12    12    13    1
    13    13    14   ar
    14    14    15   ar
    15    15    16   ar
    16    16    17    1
    17    16    18   ar
    18    18    19    1
    19    19    20    1
    20    19    21    1
    21    21    22    2
    22    22    23    1
    23    22    24    1
    24    24    25    1
    25    25    26    1
    26    26    27    1
    27    26    28    2
    28    25    29    1
    29    29    30    1
    30    18    31   ar
    31     9    32   ar
    32    32    33   ar
    33    33     6   ar
    34    31    13   ar
    35    30    19    1
    36    30    25    1
    37     1    34    1
    38     3    35    1
    39     4    36    1
    40     4    37    1
    41     4    38    1
    42     7    39    1
    43    12    40    1
    44    14    41    1
    45    15    42    1
    46    20    43    1
    47    20    44    1
    48    20    45    1
    49    23    46    1
    50    23    47    1
    51    27    48    1
    52    27    49    1
    53    27    50    1
    54    29    51    1
    55    29    52    1
    56    30    53    1
    57    31    54    1
    58    32    55    1
