
     RDKit          3D

 56 60  0  0  0  0  0  0  0  0999 V2000
    4.5170   -0.7117    3.7676 C   0  0  0  0  0  0  0  0  0  0  0  0
    3.9920   -0.4201    2.4325 N   0  0  0  0  0  0  0  0  0  0  0  0
    4.6420    0.5472    1.6229 C   0  0  0  0  0  0  0  0  0  0  0  0
    5.6716    1.1299    2.1008 O   0  0  0  0  0  0  0  0  0  0  0  0
    4.2200    0.9205    0.2922 C   0  0  0  0  0  0  0  0  0  0  0  0
    4.9102    1.8712   -0.4268 C   0  0  0  0  0  0  0  0  0  0  0  0
    4.5465    2.2592   -1.6962 C   0  0  0  0  0  0  0  0  0  0  0  0
    3.4229    1.6508   -2.2681 C   0  0  0  0  0  0  0  0  0  0  0  0
    3.0100    1.9918   -3.5002 N   0  0  0  0  0  0  0  0  0  0  0  0
    1.9306    1.4297   -4.0676 C   0  0  0  0  0  0  0  0  0  0  0  0
    1.2345    0.4817   -3.3660 C   0  0  0  0  0  0  0  0  0  0  0  0
    1.6016    0.0872   -2.1051 C   0  0  0  0  0  0  0  0  0  0  0  0
    0.9010   -0.9220   -1.3893 N   0  0  0  0  0  0  0  0  0  0  0  0
    1.5143   -2.2210   -1.2507 C   0  0  0  0  0  0  0  0  0  0  0  0
    0.9993   -2.9389   -0.0184 C   0  0  0  0  0  0  0  0  0  0  0  0
   -0.4974   -3.0829   -0.1385 C   0  0  0  0  0  0  0  0  0  0  0  0
   -1.0906   -1.7295   -0.1618 C   0  0  0  0  0  0  0  0  0  0  0  0
   -2.3183   -1.4683    0.4099 C   0  0  0  0  0  0  0  0  0  0  0  0
   -2.8348   -0.1701    0.3519 C   0  0  0  0  0  0  0  0  0  0  0  0
   -4.1404    0.0399    0.9415 C   0  0  0  0  0  0  0  0  0  0  0  0
   -4.4417   -0.3365    2.2394 C   0  0  0  0  0  0  0  0  0  0  0  0
   -5.7320   -0.0149    2.4281 N   0  0  0  0  0  0  0  0  0  0  0  0
   -6.2188    0.5281    1.3281 N   0  0  0  0  0  0  0  0  0  0  0  0
   -7.5775    1.0003    1.1556 C   0  0  0  0  0  0  0  0  0  0  0  0
   -5.2697    0.5842    0.3762 C   0  0  0  0  0  0  0  0  0  0  0  0
   -2.1297    0.8213   -0.2620 C   0  0  0  0  0  0  0  0  0  0  0  0
   -2.6333    2.2003   -0.3101 C   0  0  0  0  0  0  0  0  0  0  0  0
   -2.7326    2.6782   -1.6046 F   0  0  0  0  0  0  0  0  0  0  0  0
   -1.7700    3.0574    0.3931 F   0  0  0  0  0  0  0  0  0  0  0  0
   -0.8811    0.5741   -0.8485 C   0  0  0  0  0  0  0  0  0  0  0  0
   -0.3832   -0.7193   -0.7824 C   0  0  0  0  0  0  0  0  0  0  0  0
    2.7303    0.6947   -1.5442 C   0  0  0  0  0  0  0  0  0  0  0  0
    3.1136    0.3261   -0.2791 C   0  0  0  0  0  0  0  0  0  0  0  0
    5.0416   -1.6745    3.7970 H   0  0  0  0  0  0  0  0  0  0  0  0
    3.6917   -0.6498    4.5351 H   0  0  0  0  0  0  0  0  0  0  0  0
    5.2282    0.0878    4.0490 H   0  0  0  0  0  0  0  0  0  0  0  0
    3.1588   -0.9104    2.0803 H   0  0  0  0  0  0  0  0  0  0  0  0
    5.7918    2.3471    0.0241 H   0  0  0  0  0  0  0  0  0  0  0  0
    5.0871    3.0064   -2.2636 H   0  0  0  0  0  0  0  0  0  0  0  0
    1.6125    1.7316   -5.0872 H   0  0  0  0  0  0  0  0  0  0  0  0
    0.3613    0.0145   -3.8024 H   0  0  0  0  0  0  0  0  0  0  0  0
    2.6092   -2.2327   -1.2158 H   0  0  0  0  0  0  0  0  0  0  0  0
    1.2483   -2.8666   -2.1321 H   0  0  0  0  0  0  0  0  0  0  0  0
    1.5208   -3.9045    0.0352 H   0  0  0  0  0  0  0  0  0  0  0  0
    1.2821   -2.3617    0.8836 H   0  0  0  0  0  0  0  0  0  0  0  0
   -0.9233   -3.7211    0.6605 H   0  0  0  0  0  0  0  0  0  0  0  0
   -0.6758   -3.5919   -1.1312 H   0  0  0  0  0  0  0  0  0  0  0  0
   -2.8660   -2.2526    0.8912 H   0  0  0  0  0  0  0  0  0  0  0  0
   -3.7691   -0.8042    2.9744 H   0  0  0  0  0  0  0  0  0  0  0  0
   -7.8507    1.1031    0.0870 H   0  0  0  0  0  0  0  0  0  0  0  0
   -8.3053    0.2869    1.5980 H   0  0  0  0  0  0  0  0  0  0  0  0
   -7.7248    1.9709    1.6990 H   0  0  0  0  0  0  0  0  0  0  0  0
   -5.3893    0.9826   -0.6387 H   0  0  0  0  0  0  0  0  0  0  0  0
   -3.5896    2.2735    0.2291 H   0  0  0  0  0  0  0  0  0  0  0  0
   -0.3652    1.3945   -1.3224 H   0  0  0  0  0  0  0  0  0  0  0  0
    2.5191   -0.4157    0.2299 H   0  0  0  0  0  0  0  0  0  0  0  0
  1  2  1  0
  2  3  1  0
  3  4  2  0
  3  5  1  0
  5  6  2  0
  6  7  1  0
  7  8  2  0
  8  9  1  0
  9 10  2  0
 10 11  1  0
 11 12  2  0
 12 13  1  0
 13 14  1  0
 14 15  1  0
 15 16  1  0
 16 17  1  0
 17 18  2  0
 18 19  1  0
 19 20  1  0
 20 21  1  0
 21 22  2  0
 22 23  1  0
 23 24  1  0
 23 25  1  0
 19 26  2  0
 26 27  1  0
 27 28  1  0
 27 29  1  0
 26 30  1  0
 30 31  2  0
 12 32  1  0
 32 33  2  0
 33  5  1  0
 32  8  1  0
 31 13  1  0
 31 17  1  0
 25 20  2  0
  1 34  1  0
  1 35  1  0
  1 36  1  0
  2 37  1  0
  6 38  1  0
  7 39  1  0
 10 40  1  0
 11 41  1  0
 14 42  1  0
 14 43  1  0
 15 44  1  0
 15 45  1  0
 16 46  1  0
 16 47  1  0
 18 48  1  0
 21 49  1  0
 24 50  1  0
 24 51  1  0
 24 52  1  0
 25 53  1  0
 27 54  1  0
 30 55  1  0
 33 56  1  0
M  END
$$$$
