@<TRIPOS>MOLECULE
*****
 56 60 0 0 0
SMALL
GASTEIGER

@<TRIPOS>ATOM
      1 C           4.5170   -0.7117    3.7676 C.3     1  UNL1        0.0004
      2 N           3.9920   -0.4201    2.4325 N.am    1  UNL1       -0.3144
      3 C           4.6420    0.5472    1.6229 C.2     1  UNL1        0.2439
      4 O           5.6716    1.1299    2.1008 O.2     1  UNL1       -0.2702
      5 C           4.2200    0.9205    0.2922 C.ar    1  UNL1        0.0374
      6 C           4.9102    1.8712   -0.4268 C.ar    1  UNL1       -0.0476
      7 C           4.5465    2.2592   -1.6962 C.ar    1  UNL1       -0.0350
      8 C           3.4229    1.6508   -2.2681 C.ar    1  UNL1        0.0728
      9 N           3.0100    1.9918   -3.5002 N.ar    1  UNL1       -0.2549
     10 C           1.9306    1.4297   -4.0676 C.ar    1  UNL1        0.0300
     11 C           1.2345    0.4817   -3.3660 C.ar    1  UNL1       -0.0216
     12 C           1.6016    0.0872   -2.1051 C.ar    1  UNL1        0.0447
     13 N           0.9010   -0.9220   -1.3893 N.pl3   1  UNL1       -0.2993
     14 C           1.5143   -2.2210   -1.2507 C.3     1  UNL1        0.0176
     15 C           0.9993   -2.9389   -0.0184 C.3     1  UNL1       -0.0328
     16 C          -0.4974   -3.0829   -0.1385 C.3     1  UNL1       -0.0245
     17 C          -1.0906   -1.7295   -0.1618 C.ar    1  UNL1       -0.0254
     18 C          -2.3183   -1.4683    0.4099 C.ar    1  UNL1       -0.0486
     19 C          -2.8348   -0.1701    0.3519 C.ar    1  UNL1       -0.0061
     20 C          -4.1404    0.0399    0.9415 C.ar    1  UNL1        0.0200
     21 C          -4.4417   -0.3365    2.2394 C.ar    1  UNL1        0.0571
     22 N          -5.7320   -0.0149    2.4281 N.ar    1  UNL1       -0.1793
     23 N          -6.2188    0.5281    1.3281 N.ar    1  UNL1       -0.2739
     24 C          -7.5775    1.0003    1.1556 C.3     1  UNL1        0.0302
     25 C          -5.2697    0.5842    0.3762 C.ar    1  UNL1        0.0329
     26 C          -2.1297    0.8213   -0.2620 C.ar    1  UNL1        0.0270
     27 C          -2.6333    2.2003   -0.3101 C.3     1  UNL1        0.2650
     28 F          -2.7326    2.6782   -1.6046 F       1  UNL1       -0.2039
     29 F          -1.7700    3.0574    0.3931 F       1  UNL1       -0.2039
     30 C          -0.8811    0.5741   -0.8485 C.ar    1  UNL1       -0.0310
     31 C          -0.3832   -0.7193   -0.7824 C.ar    1  UNL1        0.0376
     32 C           2.7303    0.6947   -1.5442 C.ar    1  UNL1        0.0224
     33 C           3.1136    0.3261   -0.2791 C.ar    1  UNL1       -0.0387
     34 H           5.0416   -1.6745    3.7970 H       1  UNL1        0.0426
     35 H           3.6917   -0.6498    4.5351 H       1  UNL1        0.0426
     36 H           5.2282    0.0878    4.0490 H       1  UNL1        0.0426
     37 H           3.1588   -0.9104    2.0803 H       1  UNL1        0.1487
     38 H           5.7918    2.3471    0.0241 H       1  UNL1        0.0626
     39 H           5.0871    3.0064   -2.2636 H       1  UNL1        0.0639
     40 H           1.6125    1.7316   -5.0872 H       1  UNL1        0.0830
     41 H           0.3613    0.0145   -3.8024 H       1  UNL1        0.0651
     42 H           2.6092   -2.2327   -1.2158 H       1  UNL1        0.0468
     43 H           1.2483   -2.8666   -2.1321 H       1  UNL1        0.0468
     44 H           1.5208   -3.9045    0.0352 H       1  UNL1        0.0284
     45 H           1.2821   -2.3617    0.8836 H       1  UNL1        0.0284
     46 H          -0.9233   -3.7211    0.6605 H       1  UNL1        0.0314
     47 H          -0.6758   -3.5919   -1.1312 H       1  UNL1        0.0314
     48 H          -2.8660   -2.2526    0.8912 H       1  UNL1        0.0627
     49 H          -3.7691   -0.8042    2.9744 H       1  UNL1        0.0854
     50 H          -7.8507    1.1031    0.0870 H       1  UNL1        0.0473
     51 H          -8.3053    0.2869    1.5980 H       1  UNL1        0.0473
     52 H          -7.7248    1.9709    1.6990 H       1  UNL1        0.0473
     53 H          -5.3893    0.9826   -0.6387 H       1  UNL1        0.0832
     54 H          -3.5896    2.2735    0.2291 H       1  UNL1        0.1072
     55 H          -0.3652    1.3945   -1.3224 H       1  UNL1        0.0641
     56 H           2.5191   -0.4157    0.2299 H       1  UNL1        0.0632
@<TRIPOS>BOND
     1     1     2    1
     2     2     3   am
     3     3     4    2
     4     3     5    1
     5     5     6   ar
     6     6     7   ar
     7     7     8   ar
     8     8     9   ar
     9     9    10   ar
    10    10    11   ar
    11    11    12   ar
    12    12    13    1
    13    13    14    1
    14    14    15    1
    15    15    16    1
    16    16    17    1
    17    17    18   ar
    18    18    19   ar
    19    19    20    1
    20    20    21   ar
    21    21    22   ar
    22    22    23   ar
    23    23    24    1
    24    23    25   ar
    25    19    26   ar
    26    26    27    1
    27    27    28    1
    28    27    29    1
    29    26    30   ar
    30    30    31   ar
    31    12    32   ar
    32    32    33   ar
    33    33     5   ar
    34    32     8   ar
    35    31    13    1
    36    31    17   ar
    37    25    20   ar
    38     1    34    1
    39     1    35    1
    40     1    36    1
    41     2    37    1
    42     6    38    1
    43     7    39    1
    44    10    40    1
    45    11    41    1
    46    14    42    1
    47    14    43    1
    48    15    44    1
    49    15    45    1
    50    16    46    1
    51    16    47    1
    52    18    48    1
    53    21    49    1
    54    24    50    1
    55    24    51    1
    56    24    52    1
    57    25    53    1
    58    27    54    1
    59    30    55    1
    60    33    56    1
