
     RDKit          3D

 69 73  0  0  0  0  0  0  0  0999 V2000
   -2.0656   -1.8407    0.9586 N   0  0  0  0  0  0  0  0  0  0  0  0
   -1.8823   -0.5347    0.3152 C   0  0  0  0  0  0  0  0  0  0  0  0
   -0.4465   -0.3050    0.0176 C   0  0  0  0  0  0  0  0  0  0  0  0
   -0.0754    0.7025   -0.6619 O   0  0  0  0  0  0  0  0  0  0  0  0
    0.5982   -1.1694    0.4551 N   0  0  0  0  0  0  0  0  0  0  0  0
    1.9657   -0.8872    0.1146 C   0  0  1  0  0  0  0  0  0  0  0  0
    2.6951   -0.3723    1.3777 C   0  0  0  0  0  0  0  0  0  0  0  0
    4.1146   -0.1096    0.9720 C   0  0  0  0  0  0  0  0  0  0  0  0
    4.1896    0.8570   -0.0752 N   0  0  0  0  0  0  0  0  0  0  0  0
    5.4962    0.9025   -0.6988 C   0  0  0  0  0  0  0  0  0  0  0  0
    6.4989    1.3501    0.3255 C   0  0  0  0  0  0  0  0  0  0  0  0
    6.1501    2.7384    0.7314 C   0  0  0  0  0  0  0  0  0  0  0  0
    4.7222    3.0470    0.9353 C   0  0  0  0  0  0  0  0  0  0  0  0
    3.7243    2.1749    0.2688 C   0  0  0  0  0  0  0  0  0  0  0  0
    2.6376   -2.1126   -0.3666 C   0  0  0  0  0  0  0  0  0  0  0  0
    2.5320   -3.2949    0.3760 C   0  0  0  0  0  0  0  0  0  0  0  0
    3.1564   -4.4531   -0.0214 C   0  0  0  0  0  0  0  0  0  0  0  0
    3.9229   -4.5063   -1.1793 C   0  0  0  0  0  0  0  0  0  0  0  0
    4.7113   -5.9993   -1.6501 Cl  0  0  0  0  0  0  0  0  0  0  0  0
    4.0290   -3.3424   -1.9139 C   0  0  0  0  0  0  0  0  0  0  0  0
    3.4000   -2.1773   -1.5124 C   0  0  0  0  0  0  0  0  0  0  0  0
   -2.6131   -0.5632   -1.0005 C   0  0  0  0  0  0  0  0  0  0  0  0
   -4.0964   -0.4261   -0.7029 C   0  0  0  0  0  0  0  0  0  0  0  0
   -4.4057    0.8509   -0.0919 N   0  0  0  0  0  0  0  0  0  0  0  0
   -5.7009    1.4313   -0.1428 C   0  0  0  0  0  0  0  0  0  0  0  0
   -5.8617    2.6602   -0.7059 N   0  0  0  0  0  0  0  0  0  0  0  0
   -7.0567    3.2687   -0.7855 C   0  0  0  0  0  0  0  0  0  0  0  0
   -8.1403    2.6343   -0.2865 N   0  0  0  0  0  0  0  0  0  0  0  0
   -8.0763    1.4233    0.2862 C   0  0  0  0  0  0  0  0  0  0  0  0
   -9.0091    0.6360    0.8337 N   0  0  0  0  0  0  0  0  0  0  0  0
   -8.4253   -0.4922    1.2743 C   0  0  0  0  0  0  0  0  0  0  0  0
   -7.0633   -0.3915    0.9817 C   0  0  0  0  0  0  0  0  0  0  0  0
   -6.8194    0.8171    0.3537 C   0  0  0  0  0  0  0  0  0  0  0  0
   -3.2962    1.5297    0.5712 C   0  0  0  0  0  0  0  0  0  0  0  0
   -2.4441    0.4918    1.2521 C   0  0  0  0  0  0  0  0  0  0  0  0
   -1.8491   -2.6353    0.3360 H   0  0  0  0  0  0  0  0  0  0  0  0
   -1.5485   -1.9189    1.8526 H   0  0  0  0  0  0  0  0  0  0  0  0
    0.3509   -2.0157    1.0295 H   0  0  0  0  0  0  0  0  0  0  0  0
    2.0081   -0.1084   -0.6625 H   0  0  0  0  0  0  0  0  0  0  0  0
    2.1848    0.4891    1.7884 H   0  0  0  0  0  0  0  0  0  0  0  0
    2.6308   -1.1868    2.1394 H   0  0  0  0  0  0  0  0  0  0  0  0
    4.5862   -1.0460    0.6085 H   0  0  0  0  0  0  0  0  0  0  0  0
    4.7145    0.2277    1.8525 H   0  0  0  0  0  0  0  0  0  0  0  0
    5.4672    1.6194   -1.5483 H   0  0  0  0  0  0  0  0  0  0  0  0
    5.7414   -0.1242   -1.0207 H   0  0  0  0  0  0  0  0  0  0  0  0
    6.4962    0.6277    1.1626 H   0  0  0  0  0  0  0  0  0  0  0  0
    7.5325    1.3951   -0.1254 H   0  0  0  0  0  0  0  0  0  0  0  0
    6.7784    2.9711    1.6436 H   0  0  0  0  0  0  0  0  0  0  0  0
    6.5936    3.4227   -0.0553 H   0  0  0  0  0  0  0  0  0  0  0  0
    4.5359    3.1363    2.0436 H   0  0  0  0  0  0  0  0  0  0  0  0
    4.5461    4.0988    0.5613 H   0  0  0  0  0  0  0  0  0  0  0  0
    3.3555    2.6388   -0.6923 H   0  0  0  0  0  0  0  0  0  0  0  0
    2.8308    2.0825    0.8949 H   0  0  0  0  0  0  0  0  0  0  0  0
    1.9397   -3.2609    1.2761 H   0  0  0  0  0  0  0  0  0  0  0  0
    3.0848   -5.3647    0.5386 H   0  0  0  0  0  0  0  0  0  0  0  0
    4.6159   -3.3349   -2.8237 H   0  0  0  0  0  0  0  0  0  0  0  0
    3.4885   -1.2640   -2.0971 H   0  0  0  0  0  0  0  0  0  0  0  0
   -2.4802   -1.5068   -1.5486 H   0  0  0  0  0  0  0  0  0  0  0  0
   -2.3086    0.3220   -1.5809 H   0  0  0  0  0  0  0  0  0  0  0  0
   -4.6913   -0.4578   -1.6542 H   0  0  0  0  0  0  0  0  0  0  0  0
   -4.3517   -1.2984   -0.0760 H   0  0  0  0  0  0  0  0  0  0  0  0
   -7.2032    4.2496   -1.2328 H   0  0  0  0  0  0  0  0  0  0  0  0
  -10.0387    0.8071    0.9337 H   0  0  0  0  0  0  0  0  0  0  0  0
   -8.8631   -1.3487    1.7666 H   0  0  0  0  0  0  0  0  0  0  0  0
   -6.2935   -1.1122    1.1963 H   0  0  0  0  0  0  0  0  0  0  0  0
   -2.6644    2.0863   -0.1434 H   0  0  0  0  0  0  0  0  0  0  0  0
   -3.6495    2.2593    1.3212 H   0  0  0  0  0  0  0  0  0  0  0  0
   -3.0426    0.0428    2.0933 H   0  0  0  0  0  0  0  0  0  0  0  0
   -1.5631    0.9693    1.7722 H   0  0  0  0  0  0  0  0  0  0  0  0
  1  2  1  0
  2  3  1  0
  3  4  2  0
  3  5  1  0
  5  6  1  0
  6  7  1  0
  7  8  1  0
  8  9  1  0
  9 10  1  0
 10 11  1  0
 11 12  1  0
 12 13  1  0
 13 14  1  0
  6 15  1  0
 15 16  2  0
 16 17  1  0
 17 18  2  0
 18 19  1  0
 18 20  1  0
 20 21  2  0
  2 22  1  0
 22 23  1  0
 23 24  1  0
 24 25  1  0
 25 26  2  0
 26 27  1  0
 27 28  2  0
 28 29  1  0
 29 30  1  0
 30 31  1  0
 31 32  2  0
 32 33  1  0
 24 34  1  0
 34 35  1  0
 35  2  1  0
 14  9  1  0
 21 15  1  0
 33 25  1  0
 33 29  2  0
  1 36  1  0
  1 37  1  0
  5 38  1  0
  6 39  1  6
  7 40  1  0
  7 41  1  0
  8 42  1  0
  8 43  1  0
 10 44  1  0
 10 45  1  0
 11 46  1  0
 11 47  1  0
 12 48  1  0
 12 49  1  0
 13 50  1  0
 13 51  1  0
 14 52  1  0
 14 53  1  0
 16 54  1  0
 17 55  1  0
 20 56  1  0
 21 57  1  0
 22 58  1  0
 22 59  1  0
 23 60  1  0
 23 61  1  0
 27 62  1  0
 30 63  1  0
 31 64  1  0
 32 65  1  0
 34 66  1  0
 34 67  1  0
 35 68  1  0
 35 69  1  0
M  END
$$$$
