@<TRIPOS>MOLECULE
*****
 69 73 0 0 0
SMALL
GASTEIGER

@<TRIPOS>ATOM
      1 N          -2.0656   -1.8407    0.9586 N.3     1  UNL1       -0.3173
      2 C          -1.8823   -0.5347    0.3152 C.3     1  UNL1        0.0965
      3 C          -0.4465   -0.3050    0.0176 C.2     1  UNL1        0.2336
      4 O          -0.0754    0.7025   -0.6619 O.2     1  UNL1       -0.2738
      5 N           0.5982   -1.1694    0.4551 N.am    1  UNL1       -0.3069
      6 C           1.9657   -0.8872    0.1146 C.3     1  UNL1        0.0496
      7 C           2.6951   -0.3723    1.3777 C.3     1  UNL1       -0.0175
      8 C           4.1146   -0.1096    0.9720 C.3     1  UNL1        0.0009
      9 N           4.1896    0.8570   -0.0752 N.3     1  UNL1       -0.3022
     10 C           5.4962    0.9025   -0.6988 C.3     1  UNL1       -0.0011
     11 C           6.4989    1.3501    0.3255 C.3     1  UNL1       -0.0402
     12 C           6.1501    2.7384    0.7314 C.3     1  UNL1       -0.0507
     13 C           4.7222    3.0470    0.9353 C.3     1  UNL1       -0.0402
     14 C           3.7243    2.1749    0.2688 C.3     1  UNL1       -0.0011
     15 C           2.6376   -2.1126   -0.3666 C.ar    1  UNL1       -0.0271
     16 C           2.5320   -3.2949    0.3760 C.ar    1  UNL1       -0.0554
     17 C           3.1564   -4.4531   -0.0214 C.ar    1  UNL1       -0.0431
     18 C           3.9229   -4.5063   -1.1793 C.ar    1  UNL1        0.0410
     19 CL          4.7113   -5.9993   -1.6501 Cl      1  UNL1       -0.0835
     20 C           4.0290   -3.3424   -1.9139 C.ar    1  UNL1       -0.0431
     21 C           3.4000   -2.1773   -1.5124 C.ar    1  UNL1       -0.0554
     22 C          -2.6131   -0.5632   -1.0005 C.3     1  UNL1       -0.0104
     23 C          -4.0964   -0.4261   -0.7029 C.3     1  UNL1        0.0156
     24 N          -4.4057    0.8509   -0.0919 N.pl3   1  UNL1       -0.3144
     25 C          -5.7009    1.4313   -0.1428 C.ar    1  UNL1        0.1337
     26 N          -5.8617    2.6602   -0.7059 N.ar    1  UNL1       -0.2200
     27 C          -7.0567    3.2687   -0.7855 C.ar    1  UNL1        0.1204
     28 N          -8.1403    2.6343   -0.2865 N.ar    1  UNL1       -0.2178
     29 C          -8.0763    1.4233    0.2862 C.ar    1  UNL1        0.1432
     30 N          -9.0091    0.6360    0.8337 N.ar    1  UNL1       -0.3457
     31 C          -8.4253   -0.4922    1.2743 C.ar    1  UNL1        0.0042
     32 C          -7.0633   -0.3915    0.9817 C.ar    1  UNL1       -0.0318
     33 C          -6.8194    0.8171    0.3537 C.ar    1  UNL1        0.0585
     34 C          -3.2962    1.5297    0.5712 C.3     1  UNL1        0.0156
     35 C          -2.4441    0.4918    1.2521 C.3     1  UNL1       -0.0104
     36 H          -1.8491   -2.6353    0.3360 H       1  UNL1        0.1192
     37 H          -1.5485   -1.9189    1.8526 H       1  UNL1        0.1192
     38 H           0.3509   -2.0157    1.0295 H       1  UNL1        0.1493
     39 H           2.0081   -0.1084   -0.6625 H       1  UNL1        0.0549
     40 H           2.1848    0.4891    1.7884 H       1  UNL1        0.0299
     41 H           2.6308   -1.1868    2.1394 H       1  UNL1        0.0299
     42 H           4.5862   -1.0460    0.6085 H       1  UNL1        0.0427
     43 H           4.7145    0.2277    1.8525 H       1  UNL1        0.0427
     44 H           5.4672    1.6194   -1.5483 H       1  UNL1        0.0426
     45 H           5.7414   -0.1242   -1.0207 H       1  UNL1        0.0426
     46 H           6.4962    0.6277    1.1626 H       1  UNL1        0.0278
     47 H           7.5325    1.3951   -0.1254 H       1  UNL1        0.0278
     48 H           6.7784    2.9711    1.6436 H       1  UNL1        0.0266
     49 H           6.5936    3.4227   -0.0553 H       1  UNL1        0.0266
     50 H           4.5359    3.1363    2.0436 H       1  UNL1        0.0278
     51 H           4.5461    4.0988    0.5613 H       1  UNL1        0.0278
     52 H           3.3555    2.6388   -0.6923 H       1  UNL1        0.0426
     53 H           2.8308    2.0825    0.8949 H       1  UNL1        0.0426
     54 H           1.9397   -3.2609    1.2761 H       1  UNL1        0.0621
     55 H           3.0848   -5.3647    0.5386 H       1  UNL1        0.0632
     56 H           4.6159   -3.3349   -2.8237 H       1  UNL1        0.0632
     57 H           3.4885   -1.2640   -2.0971 H       1  UNL1        0.0621
     58 H          -2.4802   -1.5068   -1.5486 H       1  UNL1        0.0303
     59 H          -2.3086    0.3220   -1.5809 H       1  UNL1        0.0303
     60 H          -4.6913   -0.4578   -1.6542 H       1  UNL1        0.0465
     61 H          -4.3517   -1.2984   -0.0760 H       1  UNL1        0.0465
     62 H          -7.2032    4.2496   -1.2328 H       1  UNL1        0.1048
     63 H         -10.0387    0.8071    0.9337 H       1  UNL1        0.1668
     64 H          -8.8631   -1.3487    1.7666 H       1  UNL1        0.0807
     65 H          -6.2935   -1.1122    1.1963 H       1  UNL1        0.0640
     66 H          -2.6644    2.0863   -0.1434 H       1  UNL1        0.0465
     67 H          -3.6495    2.2593    1.3212 H       1  UNL1        0.0465
     68 H          -3.0426    0.0428    2.0933 H       1  UNL1        0.0303
     69 H          -1.5631    0.9693    1.7722 H       1  UNL1        0.0303
@<TRIPOS>BOND
     1     1     2    1
     2     2     3    1
     3     3     4    2
     4     3     5   am
     5     5     6    1
     6     6     7    1
     7     7     8    1
     8     8     9    1
     9     9    10    1
    10    10    11    1
    11    11    12    1
    12    12    13    1
    13    13    14    1
    14     6    15    1
    15    15    16   ar
    16    16    17   ar
    17    17    18   ar
    18    18    19    1
    19    18    20   ar
    20    20    21   ar
    21     2    22    1
    22    22    23    1
    23    23    24    1
    24    24    25    1
    25    25    26   ar
    26    26    27   ar
    27    27    28   ar
    28    28    29   ar
    29    29    30   ar
    30    30    31   ar
    31    31    32   ar
    32    32    33   ar
    33    24    34    1
    34    34    35    1
    35    35     2    1
    36    14     9    1
    37    21    15   ar
    38    33    25   ar
    39    33    29   ar
    40     1    36    1
    41     1    37    1
    42     5    38    1
    43     6    39    1
    44     7    40    1
    45     7    41    1
    46     8    42    1
    47     8    43    1
    48    10    44    1
    49    10    45    1
    50    11    46    1
    51    11    47    1
    52    12    48    1
    53    12    49    1
    54    13    50    1
    55    13    51    1
    56    14    52    1
    57    14    53    1
    58    16    54    1
    59    17    55    1
    60    20    56    1
    61    21    57    1
    62    22    58    1
    63    22    59    1
    64    23    60    1
    65    23    61    1
    66    27    62    1
    67    30    63    1
    68    31    64    1
    69    32    65    1
    70    34    66    1
    71    34    67    1
    72    35    68    1
    73    35    69    1
