
     RDKit          3D

 38 41  0  0  0  0  0  0  0  0999 V2000
   -0.8709    0.6995    2.5239 O   0  0  0  0  0  0  0  0  0  0  0  0
   -0.9754   -0.3514    1.4481 S   0  0  0  0  0  6  0  0  0  0  0  0
   -1.3378   -1.6285    2.2057 O   0  0  0  0  0  0  0  0  0  0  0  0
   -2.2895   -0.0537    0.3551 C   0  0  0  0  0  0  0  0  0  0  0  0
   -2.5936    1.2265   -0.0192 C   0  0  0  0  0  0  0  0  0  0  0  0
   -3.6566    1.4547   -0.9058 C   0  0  0  0  0  0  0  0  0  0  0  0
   -4.3845    0.3852   -1.3910 C   0  0  0  0  0  0  0  0  0  0  0  0
   -4.0896   -0.8918   -1.0244 C   0  0  0  0  0  0  0  0  0  0  0  0
   -3.0244   -1.0965   -0.1384 C   0  0  0  0  0  0  0  0  0  0  0  0
    0.5347   -0.6422    0.6333 C   0  0  0  0  0  0  0  0  0  0  0  0
    1.5062    0.2588    0.2652 C   0  0  0  0  0  0  0  0  0  0  0  0
    1.4763    1.7042    0.4957 C   0  0  0  0  0  0  0  0  0  0  0  0
    0.5839    2.4002    1.0977 N   0  0  0  0  0  0  0  0  0  0  0  0
    0.9084    3.8114    1.1249 C   0  0  0  0  0  0  0  0  0  0  0  0
    2.0235    3.9611    0.1407 C   0  0  0  0  0  0  0  0  0  0  0  0
    2.5058    2.5909    0.0505 N   0  0  0  0  0  0  0  0  0  0  0  0
    2.5028   -0.4344   -0.3487 N   0  0  0  0  0  0  0  0  0  0  0  0
    2.2377   -1.7346   -0.4021 C   0  0  0  0  0  0  0  0  0  0  0  0
    2.9723   -2.7748   -0.9318 C   0  0  0  0  0  0  0  0  0  0  0  0
    2.4151   -4.0522   -0.8316 C   0  0  0  0  0  0  0  0  0  0  0  0
    1.1889   -4.2351   -0.2276 C   0  0  0  0  0  0  0  0  0  0  0  0
    0.4934   -5.8504   -0.1055 Cl  0  0  0  0  0  0  0  0  0  0  0  0
    0.4812   -3.1482    0.2951 C   0  0  0  0  0  0  0  0  0  0  0  0
    1.0137   -1.8874    0.2052 C   0  0  0  0  0  0  0  0  0  0  0  0
   -2.0702    2.1094    0.3201 H   0  0  0  0  0  0  0  0  0  0  0  0
   -3.9403    2.4388   -1.2342 H   0  0  0  0  0  0  0  0  0  0  0  0
   -5.2094    0.5778   -2.0804 H   0  0  0  0  0  0  0  0  0  0  0  0
   -4.6709   -1.7071   -1.4156 H   0  0  0  0  0  0  0  0  0  0  0  0
   -2.8376   -2.1383    0.1170 H   0  0  0  0  0  0  0  0  0  0  0  0
    0.0287    4.4480    0.9012 H   0  0  0  0  0  0  0  0  0  0  0  0
    1.3258    4.0163    2.1366 H   0  0  0  0  0  0  0  0  0  0  0  0
    2.7793    4.6578    0.5101 H   0  0  0  0  0  0  0  0  0  0  0  0
    1.6808    4.3331   -0.8514 H   0  0  0  0  0  0  0  0  0  0  0  0
    3.4626    2.3584   -0.2932 H   0  0  0  0  0  0  0  0  0  0  0  0
    3.3745    0.0202   -0.7308 H   0  0  0  0  0  0  0  0  0  0  0  0
    3.9347   -2.6479   -1.4083 H   0  0  0  0  0  0  0  0  0  0  0  0
    2.9824   -4.8754   -1.2436 H   0  0  0  0  0  0  0  0  0  0  0  0
   -0.4620   -3.3026    0.7577 H   0  0  0  0  0  0  0  0  0  0  0  0
  1  2  2  0
  2  3  2  0
  2  4  1  0
  4  5  2  0
  5  6  1  0
  6  7  2  0
  7  8  1  0
  8  9  2  0
  2 10  1  0
 10 11  2  0
 11 12  1  0
 12 13  2  0
 13 14  1  0
 14 15  1  0
 15 16  1  0
 11 17  1  0
 17 18  1  0
 18 19  2  0
 19 20  1  0
 20 21  2  0
 21 22  1  0
 21 23  1  0
 23 24  2  0
  9  4  1  0
 24 10  1  0
 16 12  1  0
 24 18  1  0
  5 25  1  0
  6 26  1  0
  7 27  1  0
  8 28  1  0
  9 29  1  0
 14 30  1  0
 14 31  1  0
 15 32  1  0
 15 33  1  0
 16 34  1  0
 17 35  1  0
 19 36  1  0
 20 37  1  0
 23 38  1  0
M  END
$$$$
