@<TRIPOS>MOLECULE
*****
 38 41 0 0 0
SMALL
GASTEIGER

@<TRIPOS>ATOM
      1 O          -0.8709    0.6995    2.5239 O.2     1  UNL1       -0.1642
      2 S          -0.9754   -0.3514    1.4481 S.O2    1  UNL1        0.0279
      3 O          -1.3378   -1.6285    2.2057 O.2     1  UNL1       -0.1642
      4 C          -2.2895   -0.0537    0.3551 C.ar    1  UNL1        0.0937
      5 C          -2.5936    1.2265   -0.0192 C.ar    1  UNL1       -0.0365
      6 C          -3.6566    1.4547   -0.9058 C.ar    1  UNL1       -0.0599
      7 C          -4.3845    0.3852   -1.3910 C.ar    1  UNL1       -0.0616
      8 C          -4.0896   -0.8918   -1.0244 C.ar    1  UNL1       -0.0599
      9 C          -3.0244   -1.0965   -0.1384 C.ar    1  UNL1       -0.0365
     10 C           0.5347   -0.6422    0.6333 C.ar    1  UNL1        0.1338
     11 C           1.5062    0.2588    0.2652 C.ar    1  UNL1        0.1570
     12 C           1.4763    1.7042    0.4957 C.2     1  UNL1        0.3313
     13 N           0.5839    2.4002    1.0977 N.2     1  UNL1       -0.0777
     14 C           0.9084    3.8114    1.1249 C.3     1  UNL1        0.1676
     15 C           2.0235    3.9611    0.1407 C.3     1  UNL1        0.1198
     16 N           2.5058    2.5909    0.0505 N.pl3   1  UNL1       -0.2283
     17 N           2.5028   -0.4344   -0.3487 N.ar    1  UNL1       -0.3468
     18 C           2.2377   -1.7346   -0.4021 C.ar    1  UNL1        0.0491
     19 C           2.9723   -2.7748   -0.9318 C.ar    1  UNL1       -0.0363
     20 C           2.4151   -4.0522   -0.8316 C.ar    1  UNL1       -0.0414
     21 C           1.1889   -4.2351   -0.2276 C.ar    1  UNL1        0.0417
     22 CL          0.4934   -5.8504   -0.1055 Cl      1  UNL1       -0.0835
     23 C           0.4812   -3.1482    0.2951 C.ar    1  UNL1       -0.0324
     24 C           1.0137   -1.8874    0.2052 C.ar    1  UNL1        0.0272
     25 H          -2.0702    2.1094    0.3201 H       1  UNL1        0.0637
     26 H          -3.9403    2.4388   -1.2342 H       1  UNL1        0.0618
     27 H          -5.2094    0.5778   -2.0804 H       1  UNL1        0.0618
     28 H          -4.6709   -1.7071   -1.4156 H       1  UNL1        0.0618
     29 H          -2.8376   -2.1383    0.1170 H       1  UNL1        0.0637
     30 H           0.0287    4.4480    0.9012 H       1  UNL1        0.0829
     31 H           1.3258    4.0163    2.1366 H       1  UNL1        0.0829
     32 H           2.7793    4.6578    0.5101 H       1  UNL1        0.0766
     33 H           1.6808    4.3331   -0.8514 H       1  UNL1        0.0766
     34 H           3.4626    2.3584   -0.2932 H       1  UNL1        0.2915
     35 H           3.3745    0.0202   -0.7308 H       1  UNL1        0.1662
     36 H           3.9347   -2.6479   -1.4083 H       1  UNL1        0.0639
     37 H           2.9824   -4.8754   -1.2436 H       1  UNL1        0.0633
     38 H          -0.4620   -3.3026    0.7577 H       1  UNL1        0.0639
@<TRIPOS>BOND
     1     1     2    2
     2     2     3    2
     3     2     4    1
     4     4     5   ar
     5     5     6   ar
     6     6     7   ar
     7     7     8   ar
     8     8     9   ar
     9     2    10    1
    10    10    11   ar
    11    11    12    1
    12    12    13    2
    13    13    14    1
    14    14    15    1
    15    15    16    1
    16    11    17   ar
    17    17    18   ar
    18    18    19   ar
    19    19    20   ar
    20    20    21   ar
    21    21    22    1
    22    21    23   ar
    23    23    24   ar
    24     9     4   ar
    25    24    10   ar
    26    16    12    1
    27    24    18   ar
    28     5    25    1
    29     6    26    1
    30     7    27    1
    31     8    28    1
    32     9    29    1
    33    14    30    1
    34    14    31    1
    35    15    32    1
    36    15    33    1
    37    16    34    1
    38    17    35    1
    39    19    36    1
    40    20    37    1
    41    23    38    1
