@<TRIPOS>MOLECULE
*****
 30 31 0 0 0
SMALL
GASTEIGER

@<TRIPOS>ATOM
      1 O          -2.8314   -2.4582    0.6977 O.2     1  UNL1       -0.2451
      2 C          -3.3656   -1.3374    0.5856 C.2     1  UNL1        0.3386
      3 O          -4.7501   -1.3168    0.8430 O.3     1  UNL1       -0.4771
      4 C          -2.7358   -0.0863    0.2293 C.ar    1  UNL1        0.0799
      5 C          -3.5606    1.0460    0.1800 C.ar    1  UNL1       -0.0460
      6 C          -3.0945    2.2903   -0.1361 C.ar    1  UNL1       -0.0609
      7 C          -1.7555    2.4252   -0.4168 C.ar    1  UNL1       -0.0600
      8 C          -0.9216    1.3099   -0.3730 C.ar    1  UNL1       -0.0397
      9 C          -1.3874    0.0505   -0.0535 C.ar    1  UNL1        0.0454
     10 N          -0.5028   -1.0228   -0.0042 N.pl3   1  UNL1       -0.3138
     11 C           0.9042   -0.9216   -0.1776 C.ar    1  UNL1        0.0319
     12 C           1.5157   -1.8114   -1.0583 C.ar    1  UNL1       -0.0405
     13 C           2.8880   -1.7824   -1.2514 C.ar    1  UNL1       -0.0595
     14 C           3.6661   -0.8754   -0.5769 C.ar    1  UNL1       -0.0500
     15 C           3.0670    0.0035    0.2927 C.ar    1  UNL1        0.0566
     16 C           3.9425    0.9738    1.0074 C.3     1  UNL1        0.4175
     17 F           4.9392    0.3128    1.7242 F       1  UNL1       -0.1659
     18 F           3.2261    1.7901    1.8323 F       1  UNL1       -0.1659
     19 F           4.5946    1.7377    0.0614 F       1  UNL1       -0.1659
     20 C           1.6945   -0.0249    0.4869 C.ar    1  UNL1       -0.0289
     21 H          -5.2479   -2.1847    1.0972 H       1  UNL1        0.2954
     22 H          -4.6317    0.9942    0.3941 H       1  UNL1        0.0626
     23 H          -3.7222    3.1677   -0.1762 H       1  UNL1        0.0618
     24 H          -1.3758    3.3895   -0.6653 H       1  UNL1        0.0618
     25 H           0.1048    1.5246   -0.6247 H       1  UNL1        0.0636
     26 H          -0.8694   -1.9844    0.1652 H       1  UNL1        0.1522
     27 H           0.8999   -2.5266   -1.5898 H       1  UNL1        0.0636
     28 H           3.3156   -2.4808   -1.9344 H       1  UNL1        0.0618
     29 H           4.7550   -0.8596   -0.7363 H       1  UNL1        0.0623
     30 H           1.2390    0.6573    1.1839 H       1  UNL1        0.0642
@<TRIPOS>BOND
     1     1     2    2
     2     2     3    1
     3     2     4    1
     4     4     5   ar
     5     5     6   ar
     6     6     7   ar
     7     7     8   ar
     8     8     9   ar
     9     9    10    1
    10    10    11    1
    11    11    12   ar
    12    12    13   ar
    13    13    14   ar
    14    14    15   ar
    15    15    16    1
    16    16    17    1
    17    16    18    1
    18    16    19    1
    19    15    20   ar
    20     9     4   ar
    21    20    11   ar
    22     3    21    1
    23     5    22    1
    24     6    23    1
    25     7    24    1
    26     8    25    1
    27    10    26    1
    28    12    27    1
    29    13    28    1
    30    14    29    1
    31    20    30    1
