
     RDKit          3D

 30 31  0  0  0  0  0  0  0  0999 V2000
   -2.8314   -2.4582    0.6977 O   0  0  0  0  0  0  0  0  0  0  0  0
   -3.3656   -1.3374    0.5856 C   0  0  0  0  0  0  0  0  0  0  0  0
   -4.7501   -1.3168    0.8430 O   0  0  0  0  0  0  0  0  0  0  0  0
   -2.7358   -0.0863    0.2293 C   0  0  0  0  0  0  0  0  0  0  0  0
   -3.5606    1.0460    0.1800 C   0  0  0  0  0  0  0  0  0  0  0  0
   -3.0945    2.2903   -0.1361 C   0  0  0  0  0  0  0  0  0  0  0  0
   -1.7555    2.4252   -0.4168 C   0  0  0  0  0  0  0  0  0  0  0  0
   -0.9216    1.3099   -0.3730 C   0  0  0  0  0  0  0  0  0  0  0  0
   -1.3874    0.0505   -0.0535 C   0  0  0  0  0  0  0  0  0  0  0  0
   -0.5028   -1.0228   -0.0042 N   0  0  0  0  0  0  0  0  0  0  0  0
    0.9042   -0.9216   -0.1776 C   0  0  0  0  0  0  0  0  0  0  0  0
    1.5157   -1.8114   -1.0583 C   0  0  0  0  0  0  0  0  0  0  0  0
    2.8880   -1.7824   -1.2514 C   0  0  0  0  0  0  0  0  0  0  0  0
    3.6661   -0.8754   -0.5769 C   0  0  0  0  0  0  0  0  0  0  0  0
    3.0670    0.0035    0.2927 C   0  0  0  0  0  0  0  0  0  0  0  0
    3.9425    0.9738    1.0074 C   0  0  0  0  0  0  0  0  0  0  0  0
    4.9392    0.3128    1.7242 F   0  0  0  0  0  0  0  0  0  0  0  0
    3.2261    1.7901    1.8323 F   0  0  0  0  0  0  0  0  0  0  0  0
    4.5946    1.7377    0.0614 F   0  0  0  0  0  0  0  0  0  0  0  0
    1.6945   -0.0249    0.4869 C   0  0  0  0  0  0  0  0  0  0  0  0
   -5.2479   -2.1847    1.0972 H   0  0  0  0  0  0  0  0  0  0  0  0
   -4.6317    0.9942    0.3941 H   0  0  0  0  0  0  0  0  0  0  0  0
   -3.7222    3.1677   -0.1762 H   0  0  0  0  0  0  0  0  0  0  0  0
   -1.3758    3.3895   -0.6653 H   0  0  0  0  0  0  0  0  0  0  0  0
    0.1048    1.5246   -0.6247 H   0  0  0  0  0  0  0  0  0  0  0  0
   -0.8694   -1.9844    0.1652 H   0  0  0  0  0  0  0  0  0  0  0  0
    0.8999   -2.5266   -1.5898 H   0  0  0  0  0  0  0  0  0  0  0  0
    3.3156   -2.4808   -1.9344 H   0  0  0  0  0  0  0  0  0  0  0  0
    4.7550   -0.8596   -0.7363 H   0  0  0  0  0  0  0  0  0  0  0  0
    1.2390    0.6573    1.1839 H   0  0  0  0  0  0  0  0  0  0  0  0
  1  2  2  0
  2  3  1  0
  2  4  1  0
  4  5  2  0
  5  6  1  0
  6  7  2  0
  7  8  1  0
  8  9  2  0
  9 10  1  0
 10 11  1  0
 11 12  2  0
 12 13  1  0
 13 14  2  0
 14 15  1  0
 15 16  1  0
 16 17  1  0
 16 18  1  0
 16 19  1  0
 15 20  2  0
  9  4  1  0
 20 11  1  0
  3 21  1  0
  5 22  1  0
  6 23  1  0
  7 24  1  0
  8 25  1  0
 10 26  1  0
 12 27  1  0
 13 28  1  0
 14 29  1  0
 20 30  1  0
M  END
$$$$
