@<TRIPOS>MOLECULE
*****
 44 46 0 0 0
SMALL
GASTEIGER

@<TRIPOS>ATOM
      1 C          -1.8276    3.5546   -1.1902 C.3     1  UNL1       -0.0652
      2 C          -2.2553    3.0117    0.1355 C.3     1  UNL1       -0.0543
      3 C          -1.7275    1.5963    0.3646 C.3     1  UNL1       -0.0351
      4 C          -2.2459    0.6888   -0.7003 C.3     1  UNL1        0.0263
      5 N          -1.8182   -0.6712   -0.5990 N.ar    1  UNL1       -0.3121
      6 C          -0.7251   -1.1587   -1.2027 C.ar    1  UNL1        0.1164
      7 C           0.3244   -0.6086   -2.0904 C.3     1  UNL1        0.0309
      8 C           1.5187   -0.1580   -1.3550 C.ar    1  UNL1       -0.0399
      9 C           2.4506   -1.1289   -1.0351 C.ar    1  UNL1       -0.0547
     10 C           3.6381   -0.9288   -0.3609 C.ar    1  UNL1       -0.0197
     11 C           3.9318    0.3486    0.0336 C.ar    1  UNL1        0.1201
     12 O           5.1185    0.5839    0.7139 O.3     1  UNL1       -0.4951
     13 C           5.3964    1.9142    1.1096 C.3     1  UNL1        0.0788
     14 C           3.0353    1.3529   -0.2613 C.ar    1  UNL1       -0.0197
     15 C           1.8651    1.1238   -0.9316 C.ar    1  UNL1       -0.0547
     16 N          -0.6948   -2.4734   -0.8346 N.ar    1  UNL1       -0.2269
     17 C          -1.7332   -2.7691   -0.0370 C.ar    1  UNL1        0.1475
     18 C          -2.1792   -3.9079    0.6046 C.ar    1  UNL1        0.1472
     19 N          -1.4118   -5.0948    0.4305 N.pl3   1  UNL1       -0.3413
     20 N          -3.2986   -3.8159    1.3429 N.ar    1  UNL1       -0.2188
     21 C          -3.9966   -2.6813    1.4849 C.ar    1  UNL1        0.1205
     22 N          -3.5787   -1.5532    0.8657 N.ar    1  UNL1       -0.2160
     23 C          -2.4579   -1.6092    0.1157 C.ar    1  UNL1        0.1655
     24 H          -1.7410    4.6603   -1.1802 H       1  UNL1        0.0230
     25 H          -2.6286    3.3135   -1.9328 H       1  UNL1        0.0230
     26 H          -0.9084    3.0818   -1.6069 H       1  UNL1        0.0230
     27 H          -3.3581    3.0182    0.1802 H       1  UNL1        0.0263
     28 H          -1.7921    3.6390    0.9314 H       1  UNL1        0.0263
     29 H          -2.0525    1.2525    1.3819 H       1  UNL1        0.0282
     30 H          -0.6298    1.6611    0.4033 H       1  UNL1        0.0282
     31 H          -1.8999    1.1189   -1.6868 H       1  UNL1        0.0493
     32 H          -3.3631    0.7217   -0.7413 H       1  UNL1        0.0493
     33 H           0.6669   -1.3993   -2.8207 H       1  UNL1        0.0392
     34 H          -0.0840    0.1968   -2.7473 H       1  UNL1        0.0392
     35 H           2.2821   -2.1793   -1.3202 H       1  UNL1        0.0622
     36 H           4.3228   -1.7122   -0.1388 H       1  UNL1        0.0654
     37 H           6.4562    2.0275    1.4136 H       1  UNL1        0.0660
     38 H           5.2514    2.6520    0.2705 H       1  UNL1        0.0660
     39 H           4.7671    2.1724    1.9738 H       1  UNL1        0.0660
     40 H           3.2420    2.3869    0.0414 H       1  UNL1        0.0654
     41 H           1.1244    1.8750   -1.1938 H       1  UNL1        0.0622
     42 H          -1.5506   -5.8890   -0.2600 H       1  UNL1        0.1438
     43 H          -0.5469   -5.4668    0.9254 H       1  UNL1        0.1438
     44 H          -4.8861   -2.7468    2.1125 H       1  UNL1        0.1048
@<TRIPOS>BOND
     1     1     2    1
     2     2     3    1
     3     3     4    1
     4     4     5    1
     5     5     6   ar
     6     6     7    1
     7     7     8    1
     8     8     9   ar
     9     9    10   ar
    10    10    11   ar
    11    11    12    1
    12    12    13    1
    13    11    14   ar
    14    14    15   ar
    15     6    16   ar
    16    16    17   ar
    17    17    18   ar
    18    18    19    1
    19    18    20   ar
    20    20    21   ar
    21    21    22   ar
    22    22    23   ar
    23    23     5   ar
    24    15     8   ar
    25    23    17   ar
    26     1    24    1
    27     1    25    1
    28     1    26    1
    29     2    27    1
    30     2    28    1
    31     3    29    1
    32     3    30    1
    33     4    31    1
    34     4    32    1
    35     7    33    1
    36     7    34    1
    37     9    35    1
    38    10    36    1
    39    13    37    1
    40    13    38    1
    41    13    39    1
    42    14    40    1
    43    15    41    1
    44    19    42    1
    45    19    43    1
    46    21    44    1
