
     RDKit          3D

 44 46  0  0  0  0  0  0  0  0999 V2000
   -1.8276    3.5546   -1.1902 C   0  0  0  0  0  0  0  0  0  0  0  0
   -2.2553    3.0117    0.1355 C   0  0  0  0  0  0  0  0  0  0  0  0
   -1.7275    1.5963    0.3646 C   0  0  0  0  0  0  0  0  0  0  0  0
   -2.2459    0.6888   -0.7003 C   0  0  0  0  0  0  0  0  0  0  0  0
   -1.8182   -0.6712   -0.5990 N   0  0  0  0  0  0  0  0  0  0  0  0
   -0.7251   -1.1587   -1.2027 C   0  0  0  0  0  0  0  0  0  0  0  0
    0.3244   -0.6086   -2.0904 C   0  0  0  0  0  0  0  0  0  0  0  0
    1.5187   -0.1580   -1.3550 C   0  0  0  0  0  0  0  0  0  0  0  0
    2.4506   -1.1289   -1.0351 C   0  0  0  0  0  0  0  0  0  0  0  0
    3.6381   -0.9288   -0.3609 C   0  0  0  0  0  0  0  0  0  0  0  0
    3.9318    0.3486    0.0336 C   0  0  0  0  0  0  0  0  0  0  0  0
    5.1185    0.5839    0.7139 O   0  0  0  0  0  0  0  0  0  0  0  0
    5.3964    1.9142    1.1096 C   0  0  0  0  0  0  0  0  0  0  0  0
    3.0353    1.3529   -0.2613 C   0  0  0  0  0  0  0  0  0  0  0  0
    1.8651    1.1238   -0.9316 C   0  0  0  0  0  0  0  0  0  0  0  0
   -0.6948   -2.4734   -0.8346 N   0  0  0  0  0  0  0  0  0  0  0  0
   -1.7332   -2.7691   -0.0370 C   0  0  0  0  0  0  0  0  0  0  0  0
   -2.1792   -3.9079    0.6046 C   0  0  0  0  0  0  0  0  0  0  0  0
   -1.4118   -5.0948    0.4305 N   0  0  0  0  0  0  0  0  0  0  0  0
   -3.2986   -3.8159    1.3429 N   0  0  0  0  0  0  0  0  0  0  0  0
   -3.9966   -2.6813    1.4849 C   0  0  0  0  0  0  0  0  0  0  0  0
   -3.5787   -1.5532    0.8657 N   0  0  0  0  0  0  0  0  0  0  0  0
   -2.4579   -1.6092    0.1157 C   0  0  0  0  0  0  0  0  0  0  0  0
   -1.7410    4.6603   -1.1802 H   0  0  0  0  0  0  0  0  0  0  0  0
   -2.6286    3.3135   -1.9328 H   0  0  0  0  0  0  0  0  0  0  0  0
   -0.9084    3.0818   -1.6069 H   0  0  0  0  0  0  0  0  0  0  0  0
   -3.3581    3.0182    0.1802 H   0  0  0  0  0  0  0  0  0  0  0  0
   -1.7921    3.6390    0.9314 H   0  0  0  0  0  0  0  0  0  0  0  0
   -2.0525    1.2525    1.3819 H   0  0  0  0  0  0  0  0  0  0  0  0
   -0.6298    1.6611    0.4033 H   0  0  0  0  0  0  0  0  0  0  0  0
   -1.8999    1.1189   -1.6868 H   0  0  0  0  0  0  0  0  0  0  0  0
   -3.3631    0.7217   -0.7413 H   0  0  0  0  0  0  0  0  0  0  0  0
    0.6669   -1.3993   -2.8207 H   0  0  0  0  0  0  0  0  0  0  0  0
   -0.0840    0.1968   -2.7473 H   0  0  0  0  0  0  0  0  0  0  0  0
    2.2821   -2.1793   -1.3202 H   0  0  0  0  0  0  0  0  0  0  0  0
    4.3228   -1.7122   -0.1388 H   0  0  0  0  0  0  0  0  0  0  0  0
    6.4562    2.0275    1.4136 H   0  0  0  0  0  0  0  0  0  0  0  0
    5.2514    2.6520    0.2705 H   0  0  0  0  0  0  0  0  0  0  0  0
    4.7671    2.1724    1.9738 H   0  0  0  0  0  0  0  0  0  0  0  0
    3.2420    2.3869    0.0414 H   0  0  0  0  0  0  0  0  0  0  0  0
    1.1244    1.8750   -1.1938 H   0  0  0  0  0  0  0  0  0  0  0  0
   -1.5506   -5.8890   -0.2600 H   0  0  0  0  0  0  0  0  0  0  0  0
   -0.5469   -5.4668    0.9254 H   0  0  0  0  0  0  0  0  0  0  0  0
   -4.8861   -2.7468    2.1125 H   0  0  0  0  0  0  0  0  0  0  0  0
  1  2  1  0
  2  3  1  0
  3  4  1  0
  4  5  1  0
  5  6  1  0
  6  7  1  0
  7  8  1  0
  8  9  2  0
  9 10  1  0
 10 11  2  0
 11 12  1  0
 12 13  1  0
 11 14  1  0
 14 15  2  0
  6 16  2  0
 16 17  1  0
 17 18  2  0
 18 19  1  0
 18 20  1  0
 20 21  2  0
 21 22  1  0
 22 23  2  0
 23  5  1  0
 15  8  1  0
 23 17  1  0
  1 24  1  0
  1 25  1  0
  1 26  1  0
  2 27  1  0
  2 28  1  0
  3 29  1  0
  3 30  1  0
  4 31  1  0
  4 32  1  0
  7 33  1  0
  7 34  1  0
  9 35  1  0
 10 36  1  0
 13 37  1  0
 13 38  1  0
 13 39  1  0
 14 40  1  0
 15 41  1  0
 19 42  1  0
 19 43  1  0
 21 44  1  0
M  END
$$$$
