@<TRIPOS>MOLECULE
*****
 35 35 0 0 0
SMALL
GASTEIGER

@<TRIPOS>ATOM
      1 C           4.6718   -0.9826    1.7491 C.3     1  UNL1        0.0060
      2 N           3.9501   -0.8314    0.5033 N.am    1  UNL1       -0.2732
      3 C           4.4596   -1.3402   -0.7594 C.3     1  UNL1        0.0060
      4 C           2.7019   -0.1703    0.4780 C.2     1  UNL1        0.4077
      5 O           2.2291    0.2830    1.5495 O.2     1  UNL1       -0.2258
      6 O           1.9577    0.0104   -0.6742 O.3     1  UNL1       -0.4112
      7 C           0.7224    0.6830   -0.6019 C.ar    1  UNL1        0.1393
      8 C           0.6547    2.0545   -0.7599 C.ar    1  UNL1       -0.0188
      9 C          -0.5465    2.7306   -0.6922 C.ar    1  UNL1       -0.0523
     10 C          -1.7095    2.0043   -0.4591 C.ar    1  UNL1        0.0039
     11 C          -1.6792    0.6348   -0.2966 C.ar    1  UNL1        0.1489
     12 N          -2.8744   -0.1317   -0.0545 N.pl3   1  UNL1       -0.3830
     13 C          -4.0510    0.6065   -0.4688 C.3     1  UNL1        0.0812
     14 C          -2.9990   -0.4663    1.3490 C.3     1  UNL1        0.0812
     15 C          -2.7989   -1.3121   -0.8946 C.3     1  UNL1        0.0812
     16 C          -0.4530    0.0097   -0.3736 C.ar    1  UNL1        0.0460
     17 H           5.7736   -0.9117    1.5942 H       1  UNL1        0.0429
     18 H           4.4048   -1.9947    2.1501 H       1  UNL1        0.0429
     19 H           4.3259   -0.2327    2.4860 H       1  UNL1        0.0429
     20 H           4.0245   -2.3278   -1.0010 H       1  UNL1        0.0429
     21 H           4.2002   -0.6262   -1.5902 H       1  UNL1        0.0429
     22 H           5.5771   -1.4075   -0.7494 H       1  UNL1        0.0429
     23 H           1.5752    2.6025   -0.9412 H       1  UNL1        0.0654
     24 H          -0.6154    3.8163   -0.8154 H       1  UNL1        0.0621
     25 H          -2.6828    2.4837   -0.3959 H       1  UNL1        0.0681
     26 H          -4.8766   -0.1485   -0.5627 H       1  UNL1        0.0931
     27 H          -3.8551    1.0072   -1.4805 H       1  UNL1        0.0931
     28 H          -4.3191    1.3933    0.2662 H       1  UNL1        0.0931
     29 H          -2.5936   -1.4497    1.6006 H       1  UNL1        0.0931
     30 H          -4.0497   -0.4026    1.6535 H       1  UNL1        0.0931
     31 H          -2.3700    0.2846    1.9038 H       1  UNL1        0.0931
     32 H          -3.8175   -1.6306   -1.2454 H       1  UNL1        0.0931
     33 H          -2.2716   -2.1495   -0.4004 H       1  UNL1        0.0931
     34 H          -2.2548   -1.0120   -1.8194 H       1  UNL1        0.0931
     35 H          -0.4108   -1.0762   -0.2470 H       1  UNL1        0.0718
@<TRIPOS>UNITY_ATOM_ATTR
12 1
charge 1
@<TRIPOS>BOND
     1     1     2    1
     2     2     3    1
     3     2     4   am
     4     4     5    2
     5     4     6    1
     6     6     7    1
     7     7     8   ar
     8     8     9   ar
     9     9    10   ar
    10    10    11   ar
    11    11    12    1
    12    12    13    1
    13    12    14    1
    14    12    15    1
    15    11    16   ar
    16    16     7   ar
    17     1    17    1
    18     1    18    1
    19     1    19    1
    20     3    20    1
    21     3    21    1
    22     3    22    1
    23     8    23    1
    24     9    24    1
    25    10    25    1
    26    13    26    1
    27    13    27    1
    28    13    28    1
    29    14    29    1
    30    14    30    1
    31    14    31    1
    32    15    32    1
    33    15    33    1
    34    15    34    1
    35    16    35    1
