
     RDKit          3D

 35 35  0  0  0  0  0  0  0  0999 V2000
    4.6718   -0.9826    1.7491 C   0  0  0  0  0  0  0  0  0  0  0  0
    3.9501   -0.8314    0.5033 N   0  0  0  0  0  0  0  0  0  0  0  0
    4.4596   -1.3402   -0.7594 C   0  0  0  0  0  0  0  0  0  0  0  0
    2.7019   -0.1703    0.4780 C   0  0  0  0  0  0  0  0  0  0  0  0
    2.2291    0.2830    1.5495 O   0  0  0  0  0  0  0  0  0  0  0  0
    1.9577    0.0104   -0.6742 O   0  0  0  0  0  0  0  0  0  0  0  0
    0.7224    0.6830   -0.6019 C   0  0  0  0  0  0  0  0  0  0  0  0
    0.6547    2.0545   -0.7599 C   0  0  0  0  0  0  0  0  0  0  0  0
   -0.5465    2.7306   -0.6922 C   0  0  0  0  0  0  0  0  0  0  0  0
   -1.7095    2.0043   -0.4591 C   0  0  0  0  0  0  0  0  0  0  0  0
   -1.6792    0.6348   -0.2966 C   0  0  0  0  0  0  0  0  0  0  0  0
   -2.8744   -0.1317   -0.0545 N   0  0  0  0  0  4  0  0  0  0  0  0
   -4.0510    0.6065   -0.4688 C   0  0  0  0  0  0  0  0  0  0  0  0
   -2.9990   -0.4663    1.3490 C   0  0  0  0  0  0  0  0  0  0  0  0
   -2.7989   -1.3121   -0.8946 C   0  0  0  0  0  0  0  0  0  0  0  0
   -0.4530    0.0097   -0.3736 C   0  0  0  0  0  0  0  0  0  0  0  0
    5.7736   -0.9117    1.5942 H   0  0  0  0  0  0  0  0  0  0  0  0
    4.4048   -1.9947    2.1501 H   0  0  0  0  0  0  0  0  0  0  0  0
    4.3259   -0.2327    2.4860 H   0  0  0  0  0  0  0  0  0  0  0  0
    4.0245   -2.3278   -1.0010 H   0  0  0  0  0  0  0  0  0  0  0  0
    4.2002   -0.6262   -1.5902 H   0  0  0  0  0  0  0  0  0  0  0  0
    5.5771   -1.4075   -0.7494 H   0  0  0  0  0  0  0  0  0  0  0  0
    1.5752    2.6025   -0.9412 H   0  0  0  0  0  0  0  0  0  0  0  0
   -0.6154    3.8163   -0.8154 H   0  0  0  0  0  0  0  0  0  0  0  0
   -2.6828    2.4837   -0.3959 H   0  0  0  0  0  0  0  0  0  0  0  0
   -4.8766   -0.1485   -0.5627 H   0  0  0  0  0  0  0  0  0  0  0  0
   -3.8551    1.0072   -1.4805 H   0  0  0  0  0  0  0  0  0  0  0  0
   -4.3191    1.3933    0.2662 H   0  0  0  0  0  0  0  0  0  0  0  0
   -2.5936   -1.4497    1.6006 H   0  0  0  0  0  0  0  0  0  0  0  0
   -4.0497   -0.4026    1.6535 H   0  0  0  0  0  0  0  0  0  0  0  0
   -2.3700    0.2846    1.9038 H   0  0  0  0  0  0  0  0  0  0  0  0
   -3.8175   -1.6306   -1.2454 H   0  0  0  0  0  0  0  0  0  0  0  0
   -2.2716   -2.1495   -0.4004 H   0  0  0  0  0  0  0  0  0  0  0  0
   -2.2548   -1.0120   -1.8194 H   0  0  0  0  0  0  0  0  0  0  0  0
   -0.4108   -1.0762   -0.2470 H   0  0  0  0  0  0  0  0  0  0  0  0
  1  2  1  0
  2  3  1  0
  2  4  1  0
  4  5  2  0
  4  6  1  0
  6  7  1  0
  7  8  2  0
  8  9  1  0
  9 10  2  0
 10 11  1  0
 11 12  1  0
 12 13  1  0
 12 14  1  0
 12 15  1  0
 11 16  2  0
 16  7  1  0
  1 17  1  0
  1 18  1  0
  1 19  1  0
  3 20  1  0
  3 21  1  0
  3 22  1  0
  8 23  1  0
  9 24  1  0
 10 25  1  0
 13 26  1  0
 13 27  1  0
 13 28  1  0
 14 29  1  0
 14 30  1  0
 14 31  1  0
 15 32  1  0
 15 33  1  0
 15 34  1  0
 16 35  1  0
M  CHG  1  12   1
M  END
$$$$
