@<TRIPOS>MOLECULE
*****
 46 49 0 0 0
SMALL
GASTEIGER

@<TRIPOS>ATOM
      1 C           8.0746    0.3679   -0.8114 C.3     1  UNL1       -0.0244
      2 C           6.7028   -0.1046   -0.4837 C.ar    1  UNL1        0.0140
      3 C           5.5556    0.4465   -1.0059 C.ar    1  UNL1       -0.0308
      4 C           4.5179   -0.2756   -0.4511 C.ar    1  UNL1        0.0387
      5 C           3.1402   -0.2157   -0.5718 C.ar    1  UNL1        0.1746
      6 F           2.6123    0.7229   -1.3884 F       1  UNL1       -0.2009
      7 C           2.3010   -1.0881    0.1195 C.ar    1  UNL1        0.1662
      8 O           0.9283   -0.9392   -0.0758 O.3     1  UNL1       -0.4332
      9 C           0.3691    0.2722    0.2604 C.ar    1  UNL1        0.2483
     10 N           1.0282    1.3152    0.7568 N.ar    1  UNL1       -0.1975
     11 C           0.4282    2.4764    1.0674 C.ar    1  UNL1        0.1405
     12 N          -0.8937    2.5715    0.8618 N.ar    1  UNL1       -0.1546
     13 N          -1.5972    1.5560    0.3674 N.ar    1  UNL1       -0.2294
     14 C          -2.9319    1.4440    0.0845 C.ar    1  UNL1        0.0719
     15 C          -3.1815    0.1924   -0.4124 C.ar    1  UNL1        0.1437
     16 O          -4.3675   -0.3513   -0.8265 O.3     1  UNL1       -0.4876
     17 C          -5.6326    0.2117   -0.8364 C.3     1  UNL1        0.1152
     18 C          -6.0859    0.5294    0.5504 C.3     1  UNL1        0.0864
     19 C          -7.4968    1.0892    0.5605 C.3     1  UNL1       -0.0357
     20 O          -6.1121   -0.6732    1.2825 O.3     1  UNL1       -0.3887
     21 C          -1.9593   -0.4572   -0.4255 C.ar    1  UNL1        0.0233
     22 C          -1.7376   -1.8404   -0.8850 C.3     1  UNL1       -0.0340
     23 C          -1.0126    0.3968    0.0547 C.ar    1  UNL1        0.1336
     24 C           2.8271   -2.0419    0.9489 C.ar    1  UNL1       -0.0144
     25 C           4.1964   -2.1251    1.0887 C.ar    1  UNL1       -0.0341
     26 C           5.0249   -1.2445    0.3900 C.ar    1  UNL1        0.0497
     27 N           6.3494   -1.1195    0.3523 N.ar    1  UNL1       -0.3581
     28 H           8.4359   -0.2056   -1.6697 H       1  UNL1        0.0292
     29 H           8.7031    0.2271    0.0843 H       1  UNL1        0.0292
     30 H           8.0478    1.4434   -1.0625 H       1  UNL1        0.0292
     31 H           5.4421    1.2718   -1.7061 H       1  UNL1        0.0642
     32 H           1.0021    3.3226    1.4772 H       1  UNL1        0.1066
     33 H          -3.6144    2.2685    0.2467 H       1  UNL1        0.0868
     34 H          -5.5754    1.1369   -1.4699 H       1  UNL1        0.0722
     35 H          -6.3300   -0.4878   -1.3599 H       1  UNL1        0.0722
     36 H          -5.4694    1.2244    1.1090 H       1  UNL1        0.0624
     37 H          -7.9470    0.8164    1.5316 H       1  UNL1        0.0256
     38 H          -7.4168    2.1898    0.5099 H       1  UNL1        0.0256
     39 H          -8.0952    0.6978   -0.3098 H       1  UNL1        0.0256
     40 H          -6.9763   -1.1049    1.0540 H       1  UNL1        0.2099
     41 H          -1.0256   -2.4101   -0.2823 H       1  UNL1        0.0279
     42 H          -2.6961   -2.4079   -0.8959 H       1  UNL1        0.0279
     43 H          -1.3032   -1.8075   -1.9252 H       1  UNL1        0.0279
     44 H           2.1401   -2.7046    1.4715 H       1  UNL1        0.0656
     45 H           4.5977   -2.8749    1.7400 H       1  UNL1        0.0639
     46 H           7.0333   -1.7115    0.8852 H       1  UNL1        0.1656
@<TRIPOS>BOND
     1     1     2    1
     2     2     3   ar
     3     3     4   ar
     4     4     5   ar
     5     5     6    1
     6     5     7   ar
     7     7     8    1
     8     8     9    1
     9     9    10   ar
    10    10    11   ar
    11    11    12   ar
    12    12    13   ar
    13    13    14   ar
    14    14    15   ar
    15    15    16    1
    16    16    17    1
    17    17    18    1
    18    18    19    1
    19    18    20    1
    20    15    21   ar
    21    21    22    1
    22    21    23   ar
    23     7    24   ar
    24    24    25   ar
    25    25    26   ar
    26    26    27   ar
    27    27     2   ar
    28    26     4   ar
    29    23     9   ar
    30    23    13   ar
    31     1    28    1
    32     1    29    1
    33     1    30    1
    34     3    31    1
    35    11    32    1
    36    14    33    1
    37    17    34    1
    38    17    35    1
    39    18    36    1
    40    19    37    1
    41    19    38    1
    42    19    39    1
    43    20    40    1
    44    22    41    1
    45    22    42    1
    46    22    43    1
    47    24    44    1
    48    25    45    1
    49    27    46    1
