
     RDKit          3D

 46 49  0  0  0  0  0  0  0  0999 V2000
    8.0746    0.3679   -0.8114 C   0  0  0  0  0  0  0  0  0  0  0  0
    6.7028   -0.1046   -0.4837 C   0  0  0  0  0  0  0  0  0  0  0  0
    5.5556    0.4465   -1.0059 C   0  0  0  0  0  0  0  0  0  0  0  0
    4.5179   -0.2756   -0.4511 C   0  0  0  0  0  0  0  0  0  0  0  0
    3.1402   -0.2157   -0.5718 C   0  0  0  0  0  0  0  0  0  0  0  0
    2.6123    0.7229   -1.3884 F   0  0  0  0  0  0  0  0  0  0  0  0
    2.3010   -1.0881    0.1195 C   0  0  0  0  0  0  0  0  0  0  0  0
    0.9283   -0.9392   -0.0758 O   0  0  0  0  0  0  0  0  0  0  0  0
    0.3691    0.2722    0.2604 C   0  0  0  0  0  0  0  0  0  0  0  0
    1.0282    1.3152    0.7568 N   0  0  0  0  0  0  0  0  0  0  0  0
    0.4282    2.4764    1.0674 C   0  0  0  0  0  0  0  0  0  0  0  0
   -0.8937    2.5715    0.8618 N   0  0  0  0  0  0  0  0  0  0  0  0
   -1.5972    1.5560    0.3674 N   0  0  0  0  0  0  0  0  0  0  0  0
   -2.9319    1.4440    0.0845 C   0  0  0  0  0  0  0  0  0  0  0  0
   -3.1815    0.1924   -0.4124 C   0  0  0  0  0  0  0  0  0  0  0  0
   -4.3675   -0.3513   -0.8265 O   0  0  0  0  0  0  0  0  0  0  0  0
   -5.6326    0.2117   -0.8364 C   0  0  0  0  0  0  0  0  0  0  0  0
   -6.0859    0.5294    0.5504 C   0  0  1  0  0  0  0  0  0  0  0  0
   -7.4968    1.0892    0.5605 C   0  0  0  0  0  0  0  0  0  0  0  0
   -6.1121   -0.6732    1.2825 O   0  0  0  0  0  0  0  0  0  0  0  0
   -1.9593   -0.4572   -0.4255 C   0  0  0  0  0  0  0  0  0  0  0  0
   -1.7376   -1.8404   -0.8850 C   0  0  0  0  0  0  0  0  0  0  0  0
   -1.0126    0.3968    0.0547 C   0  0  0  0  0  0  0  0  0  0  0  0
    2.8271   -2.0419    0.9489 C   0  0  0  0  0  0  0  0  0  0  0  0
    4.1964   -2.1251    1.0887 C   0  0  0  0  0  0  0  0  0  0  0  0
    5.0249   -1.2445    0.3900 C   0  0  0  0  0  0  0  0  0  0  0  0
    6.3494   -1.1195    0.3523 N   0  0  0  0  0  0  0  0  0  0  0  0
    8.4359   -0.2056   -1.6697 H   0  0  0  0  0  0  0  0  0  0  0  0
    8.7031    0.2271    0.0843 H   0  0  0  0  0  0  0  0  0  0  0  0
    8.0478    1.4434   -1.0625 H   0  0  0  0  0  0  0  0  0  0  0  0
    5.4421    1.2718   -1.7061 H   0  0  0  0  0  0  0  0  0  0  0  0
    1.0021    3.3226    1.4772 H   0  0  0  0  0  0  0  0  0  0  0  0
   -3.6144    2.2685    0.2467 H   0  0  0  0  0  0  0  0  0  0  0  0
   -5.5754    1.1369   -1.4699 H   0  0  0  0  0  0  0  0  0  0  0  0
   -6.3300   -0.4878   -1.3599 H   0  0  0  0  0  0  0  0  0  0  0  0
   -5.4694    1.2244    1.1090 H   0  0  0  0  0  0  0  0  0  0  0  0
   -7.9470    0.8164    1.5316 H   0  0  0  0  0  0  0  0  0  0  0  0
   -7.4168    2.1898    0.5099 H   0  0  0  0  0  0  0  0  0  0  0  0
   -8.0952    0.6978   -0.3098 H   0  0  0  0  0  0  0  0  0  0  0  0
   -6.9763   -1.1049    1.0540 H   0  0  0  0  0  0  0  0  0  0  0  0
   -1.0256   -2.4101   -0.2823 H   0  0  0  0  0  0  0  0  0  0  0  0
   -2.6961   -2.4079   -0.8959 H   0  0  0  0  0  0  0  0  0  0  0  0
   -1.3032   -1.8075   -1.9252 H   0  0  0  0  0  0  0  0  0  0  0  0
    2.1401   -2.7046    1.4715 H   0  0  0  0  0  0  0  0  0  0  0  0
    4.5977   -2.8749    1.7400 H   0  0  0  0  0  0  0  0  0  0  0  0
    7.0333   -1.7115    0.8852 H   0  0  0  0  0  0  0  0  0  0  0  0
  1  2  1  0
  2  3  2  0
  3  4  1  0
  4  5  2  0
  5  6  1  0
  5  7  1  0
  7  8  1  0
  8  9  1  0
  9 10  2  0
 10 11  1  0
 11 12  2  0
 12 13  1  0
 13 14  1  0
 14 15  2  0
 15 16  1  0
 16 17  1  0
 17 18  1  0
 18 19  1  0
 18 20  1  0
 15 21  1  0
 21 22  1  0
 21 23  2  0
  7 24  2  0
 24 25  1  0
 25 26  2  0
 26 27  1  0
 27  2  1  0
 26  4  1  0
 23  9  1  0
 23 13  1  0
  1 28  1  0
  1 29  1  0
  1 30  1  0
  3 31  1  0
 11 32  1  0
 14 33  1  0
 17 34  1  0
 17 35  1  0
 18 36  1  1
 19 37  1  0
 19 38  1  0
 19 39  1  0
 20 40  1  0
 22 41  1  0
 22 42  1  0
 22 43  1  0
 24 44  1  0
 25 45  1  0
 27 46  1  0
M  END
$$$$
