
     RDKit          3D

 15 14  0  0  0  0  0  0  0  0999 V2000
   -3.2802    0.7122    0.4157 O   0  0  0  0  0  1  0  0  0  0  0  0
   -2.2080    0.1678   -0.2698 C   0  0  0  0  0  0  0  0  0  0  0  0
   -2.0838    0.5861   -1.4895 O   0  0  0  0  0  0  0  0  0  0  0  0
   -1.1983   -0.8100    0.1856 C   0  0  0  0  0  0  0  0  0  0  0  0
    0.2049   -0.2966    0.0426 C   0  0  0  0  0  0  0  0  0  0  0  0
    1.2628   -0.7044   -0.6379 C   0  0  0  0  0  0  0  0  0  0  0  0
    2.5456   -0.0241   -0.6209 C   0  0  0  0  0  0  0  0  0  0  0  0
    3.5216   -0.6409   -1.4165 O   0  0  0  0  0  1  0  0  0  0  0  0
    2.5725    0.9899    0.0912 O   0  0  0  0  0  0  0  0  0  0  0  0
    0.3072    0.8926    0.8589 C   0  0  0  0  0  0  0  0  0  0  0  0
   -0.5673    1.5963    1.6825 O   0  0  0  0  0  1  0  0  0  0  0  0
    0.5310    1.9606    1.5436 O   0  0  0  0  0  0  0  0  0  0  0  0
   -1.2544   -1.7250   -0.4342 H   0  0  0  0  0  0  0  0  0  0  0  0
   -1.3559   -1.0911    1.2459 H   0  0  0  0  0  0  0  0  0  0  0  0
    1.0024   -1.6135   -1.1971 H   0  0  0  0  0  0  0  0  0  0  0  0
  1  2  1  0
  2  3  2  0
  2  4  1  0
  4  5  1  0
  5  6  2  0
  6  7  1  0
  7  8  1  0
  7  9  2  0
  5 10  1  0
 10 11  1  0
 10 12  2  0
  4 13  1  0
  4 14  1  0
  6 15  1  0
M  CHG  3   1  -1   8  -1  11  -1
M  END
$$$$
