@<TRIPOS>MOLECULE
*****
 15 14 0 0 0
SMALL
GASTEIGER

@<TRIPOS>ATOM
      1 O          -3.2802    0.7122    0.4157 O.co2   1  UNL1       -0.5495
      2 C          -2.2080    0.1678   -0.2698 C.2     1  UNL1        0.0461
      3 O          -2.0838    0.5861   -1.4895 O.co2   1  UNL1       -0.5495
      4 C          -1.1983   -0.8100    0.1856 C.3     1  UNL1        0.0138
      5 C           0.2049   -0.2966    0.0426 C.2     1  UNL1       -0.0179
      6 C           1.2628   -0.7044   -0.6379 C.2     1  UNL1       -0.0341
      7 C           2.5456   -0.0241   -0.6209 C.2     1  UNL1        0.0649
      8 O           3.5216   -0.6409   -1.4165 O.co2   1  UNL1       -0.5452
      9 O           2.5725    0.9899    0.0912 O.co2   1  UNL1       -0.5452
     10 C           0.3072    0.8926    0.8589 C.2     1  UNL1        0.0681
     11 O          -0.5673    1.5963    1.6825 O.co2   1  UNL1       -0.5449
     12 O           0.5310    1.9606    1.5436 O.co2   1  UNL1       -0.5449
     13 H          -1.2544   -1.7250   -0.4342 H       1  UNL1        0.0374
     14 H          -1.3559   -1.0911    1.2459 H       1  UNL1        0.0374
     15 H           1.0024   -1.6135   -1.1971 H       1  UNL1        0.0639
@<TRIPOS>UNITY_ATOM_ATTR
1 1
charge -1
8 1
charge -1
11 1
charge -1
@<TRIPOS>BOND
     1     1     2   ar
     2     2     3   ar
     3     2     4    1
     4     4     5    1
     5     5     6    2
     6     6     7    1
     7     7     8   ar
     8     7     9   ar
     9     5    10    1
    10    10    11   ar
    11    10    12   ar
    12     4    13    1
    13     4    14    1
    14     6    15    1
