@<TRIPOS>MOLECULE
*****
 55 57 0 0 0
SMALL
GASTEIGER

@<TRIPOS>ATOM
      1 C          -2.4644    0.3827   -2.0901 C.3     0  UNK0        0.0011
      2 N          -1.6631    0.8017   -0.9420 N.pl3   0  UNK0       -0.3271
      3 C          -2.2456    1.6981   -0.0085 C.3     0  UNK0        0.0555
      4 C          -3.5147    1.0880    0.5036 C.ar    0  UNK0        0.0774
      5 C          -3.5377    0.2897    1.6172 C.ar    0  UNK0        0.0528
      6 N          -4.7262   -0.2417    2.0223 N.ar    0  UNK0       -0.2324
      7 C          -5.8830   -0.0064    1.3611 C.ar    0  UNK0        0.1851
      8 N          -7.0592   -0.5138    1.7293 N.ar    0  UNK0       -0.1932
      9 C          -8.2248   -0.2962    1.0838 C.ar    0  UNK0        0.2163
     10 N          -9.4441   -0.8620    1.5161 N.pl3   0  UNK0       -0.3274
     11 N          -8.1570    0.5030   -0.0169 N.ar    0  UNK0       -0.1978
     12 C          -7.0084    1.0478   -0.4459 C.ar    0  UNK0        0.1491
     13 N          -6.9894    1.8752   -1.5978 N.pl3   0  UNK0       -0.3413
     14 C          -5.8390    0.7966    0.2469 C.ar    0  UNK0        0.1477
     15 N          -4.6549    1.3317   -0.1647 N.ar    0  UNK0       -0.2419
     16 C          -0.3520    0.2887   -0.8301 C.ar    0  UNK0        0.0298
     17 C           0.1520   -0.6092   -1.7820 C.ar    0  UNK0       -0.0399
     18 C           1.4218   -1.1265   -1.7236 C.ar    0  UNK0       -0.0479
     19 C           2.2801   -0.7758   -0.6977 C.ar    0  UNK0        0.0368
     20 C           3.6407   -1.3261   -0.6592 C.2     0  UNK0        0.2447
     21 O           3.9987   -2.0864   -1.5642 O.2     0  UNK0       -0.2702
     22 N           4.5834   -1.0414    0.3559 N.am    1  GLU1       -0.2983
     23 CA          5.8827   -1.5979    0.3382 C.3     1  GLU1        0.1209
     24 CB          7.0233   -0.7071    0.0738 C.3     1  GLU1       -0.0140
     25 CG          7.3210    0.4262    0.9742 C.3     1  GLU1        0.0470
     26 CD          6.3395    1.4657    1.1875 C.2     1  GLU1        0.3048
     27 OE1         5.6952    1.5321    2.2627 O.2     1  GLU1       -0.2510
     28 OE2         6.0165    2.4534    0.2750 O.3     1  GLU1       -0.4806
     29 C           6.0928   -2.4903    1.5258 C.2     1  GLU1        0.3253
     30 O           7.1620   -3.1117    1.7336 O.2     1  GLU1       -0.2489
     31 OXT         5.0755   -2.6516    2.4486 O.3     1  GLU1       -0.4793
     32 C           1.8092    0.1002    0.2456 C.ar    0  UNK0       -0.0479
     33 C           0.5128    0.6240    0.1796 C.ar    0  UNK0       -0.0399
     34 H          -3.3958    0.9616   -2.1540 H       0  UNK0        0.0428
     35 H          -1.9145    0.5542   -3.0360 H       0  UNK0        0.0428
     36 H          -2.7226   -0.6872   -1.9752 H       0  UNK0        0.0428
     37 H          -2.4898    2.6416   -0.5811 H       0  UNK0        0.0529
     38 H          -1.6132    1.9774    0.8318 H       0  UNK0        0.0529
     39 H          -2.6218    0.0938    2.1556 H       0  UNK0        0.0849
     40 H         -10.3095   -0.6684    0.9938 H       0  UNK0        0.1452
     41 H          -9.4678   -1.4650    2.3509 H       0  UNK0        0.1452
     42 H          -7.8399    2.3099   -2.0143 H       0  UNK0        0.1438
     43 H          -6.0802    2.0877   -2.0921 H       0  UNK0        0.1438
     44 H          -0.5228   -0.8798   -2.5804 H       0  UNK0        0.0636
     45 H           1.7903   -1.8202   -2.4707 H       0  UNK0        0.0626
     46 H           4.2886   -0.4147    1.1251 H       1  GLU1        0.1498
     47 HA          5.8855   -2.3521   -0.5168 H       1  GLU1        0.0614
     48 HB1         7.0119   -0.3948   -1.0200 H       1  GLU1        0.0294
     49 HB2         7.9724   -1.3404    0.0893 H       1  GLU1        0.0294
     50 HG1         8.2410    0.9291    0.5192 H       1  GLU1        0.0378
     51 HG2         7.7679    0.0773    1.9650 H       1  GLU1        0.0378
     52 HE2         5.0621    2.8148    0.2610 H       1  GLU1        0.2951
     53 HXT         5.0512   -3.4017    3.1278 H       1  GLU1        0.2951
     54 H           2.4401    0.4002    1.0602 H       0  UNK0        0.0626
     55 H           0.2231    1.3161    0.9722 H       0  UNK0        0.0636
@<TRIPOS>BOND
     1     1     2    1
     2     2     3    1
     3     3     4    1
     4     4     5   ar
     5     5     6   ar
     6     6     7   ar
     7     7     8   ar
     8     8     9   ar
     9     9    10    1
    10     9    11   ar
    11    11    12   ar
    12    12    13    1
    13    12    14   ar
    14    14    15   ar
    15     2    16    1
    16    16    17   ar
    17    17    18   ar
    18    18    19   ar
    19    19    20    1
    20    20    21    2
    21    20    22   am
    22    22    23    1
    23    23    24    1
    24    24    25    1
    25    25    26    1
    26    26    27    2
    27    26    28    1
    28    23    29    1
    29    29    30    2
    30    29    31    1
    31    19    32   ar
    32    32    33   ar
    33    15     4   ar
    34    33    16   ar
    35    14     7   ar
    36     1    34    1
    37     1    35    1
    38     1    36    1
    39     3    37    1
    40     3    38    1
    41     5    39    1
    42    10    40    1
    43    10    41    1
    44    13    42    1
    45    13    43    1
    46    17    44    1
    47    18    45    1
    48    22    46    1
    49    23    47    1
    50    24    48    1
    51    24    49    1
    52    25    50    1
    53    25    51    1
    54    28    52    1
    55    31    53    1
    56    32    54    1
    57    33    55    1
