
     RDKit          3D

 44 47  0  0  0  0  0  0  0  0999 V2000
   -7.1934   -2.4025    0.0986 Cl  0  0  0  0  0  0  0  0  0  0  0  0
   -5.8690   -1.2483    0.2910 C   0  0  0  0  0  0  0  0  0  0  0  0
   -5.3119   -0.7892   -0.8824 C   0  0  0  0  0  0  0  0  0  0  0  0
   -4.2700    0.1172   -0.8361 C   0  0  0  0  0  0  0  0  0  0  0  0
   -3.8178    0.5367    0.4185 C   0  0  0  0  0  0  0  0  0  0  0  0
   -4.3803    0.0728    1.5886 C   0  0  0  0  0  0  0  0  0  0  0  0
   -5.4190   -0.8312    1.5130 C   0  0  0  0  0  0  0  0  0  0  0  0
   -3.5159    0.7486   -1.9118 C   0  0  0  0  0  0  0  0  0  0  0  0
   -4.0146    1.5705   -2.9138 C   0  0  0  0  0  0  0  0  0  0  0  0
   -2.9864    1.9507   -3.7162 N   0  0  0  0  0  0  0  0  0  0  0  0
   -1.8821    1.4018   -3.2546 N   0  0  0  0  0  0  0  0  0  0  0  0
   -2.1638    0.6545   -2.1454 C   0  0  0  0  0  0  0  0  0  0  0  0
   -1.2573   -0.1327   -1.3014 C   0  0  0  0  0  0  0  0  0  0  0  0
   -1.3135   -1.5184   -1.1262 C   0  0  0  0  0  0  0  0  0  0  0  0
   -0.3255   -1.9267   -0.2769 N   0  0  0  0  0  0  0  0  0  0  0  0
    0.3625   -0.8438    0.0976 C   0  0  0  0  0  0  0  0  0  0  0  0
   -0.1924    0.2684   -0.5195 C   0  0  0  0  0  0  0  0  0  0  0  0
    1.5033   -0.8489    1.0021 C   0  0  0  0  0  0  0  0  0  0  0  0
    1.8526   -1.9651    1.4437 O   0  0  0  0  0  0  0  0  0  0  0  0
    2.1949    0.3331    1.3758 N   0  0  0  0  0  0  0  0  0  0  0  0
    3.3312    0.4423    2.2595 C   0  0  0  0  0  0  0  0  0  0  0  0
    4.5569    0.0034    1.5572 C   0  0  0  0  0  0  0  0  0  0  0  0
    5.0740   -1.2624    1.5127 C   0  0  0  0  0  0  0  0  0  0  0  0
    6.2365   -1.5572    0.8185 C   0  0  0  0  0  0  0  0  0  0  0  0
    6.8548   -0.5280    0.1732 C   0  0  0  0  0  0  0  0  0  0  0  0
    6.3863    0.7713    0.1781 C   0  0  0  0  0  0  0  0  0  0  0  0
    5.2134    1.0280    0.8878 C   0  0  0  0  0  0  0  0  0  0  0  0
   -5.5740   -1.0383   -1.9037 H   0  0  0  0  0  0  0  0  0  0  0  0
   -2.9994    1.2512    0.5954 H   0  0  0  0  0  0  0  0  0  0  0  0
   -4.0503    0.3803    2.5710 H   0  0  0  0  0  0  0  0  0  0  0  0
   -5.8994   -1.2290    2.4129 H   0  0  0  0  0  0  0  0  0  0  0  0
   -5.0464    1.8787   -3.0619 H   0  0  0  0  0  0  0  0  0  0  0  0
   -3.0360    2.5751   -4.5657 H   0  0  0  0  0  0  0  0  0  0  0  0
   -2.0433   -2.1587   -1.6038 H   0  0  0  0  0  0  0  0  0  0  0  0
   -0.2073   -2.9462   -0.0217 H   0  0  0  0  0  0  0  0  0  0  0  0
    0.1225    1.2953   -0.4327 H   0  0  0  0  0  0  0  0  0  0  0  0
    1.7926    1.2049    0.9285 H   0  0  0  0  0  0  0  0  0  0  0  0
    3.3962    1.4814    2.6130 H   0  0  0  0  0  0  0  0  0  0  0  0
    3.2311   -0.2372    3.1424 H   0  0  0  0  0  0  0  0  0  0  0  0
    4.5291   -2.0235    2.0484 H   0  0  0  0  0  0  0  0  0  0  0  0
    6.6230   -2.5743    0.8014 H   0  0  0  0  0  0  0  0  0  0  0  0
    7.7666   -0.6703   -0.3923 H   0  0  0  0  0  0  0  0  0  0  0  0
    6.8810    1.6027   -0.3401 H   0  0  0  0  0  0  0  0  0  0  0  0
    4.8600    2.0690    0.8774 H   0  0  0  0  0  0  0  0  0  0  0  0
  1  2  1  0
  2  3  2  0
  3  4  1  0
  4  5  2  0
  5  6  1  0
  6  7  2  0
  4  8  1  0
  8  9  2  0
  9 10  1  0
 10 11  1  0
 11 12  2  0
 12 13  1  0
 13 14  2  0
 14 15  1  0
 15 16  1  0
 16 17  2  0
 16 18  1  0
 18 19  2  0
 18 20  1  0
 20 21  1  0
 21 22  1  0
 22 23  2  0
 23 24  1  0
 24 25  2  0
 25 26  1  0
 26 27  2  0
  7  2  1  0
 12  8  1  0
 17 13  1  0
 27 22  1  0
  3 28  1  0
  5 29  1  0
  6 30  1  0
  7 31  1  0
  9 32  1  0
 10 33  1  0
 14 34  1  0
 15 35  1  0
 17 36  1  0
 20 37  1  0
 21 38  1  0
 21 39  1  0
 23 40  1  0
 24 41  1  0
 25 42  1  0
 26 43  1  0
 27 44  1  0
M  END
$$$$
