@<TRIPOS>MOLECULE
*****
 26 25 0 0 0
SMALL
GASTEIGER

@<TRIPOS>ATOM
      1 CA         -1.5688   -1.0410   -0.0200 C.3     1  ASP1        0.1604
      2 CB         -2.1779    0.3450   -0.1642 C.3     1  ASP1        0.0775
      3 CG         -2.2774    1.0005    1.1627 C.2     1  ASP1        0.3073
      4 OD1        -2.0587    2.0050    2.0777 O.3     1  ASP1       -0.4806
      5 OD2        -2.9011    0.3599    2.0609 O.2     1  ASP1       -0.2509
      6 N          -0.2544   -0.9794    0.5465 N.2     1  ASP1       -0.2390
      7 C           0.8591   -0.7504   -0.0356 C.2     0  UNK0        0.1951
      8 O           0.9406   -0.5117   -1.4099 O.2     0  UNK0       -0.4952
      9 C           2.1097   -0.7362    0.7692 C.3     0  UNK0        0.1246
     10 P           2.8533    0.9147    0.6246 P.3     0  UNK0        0.3367
     11 O           3.3222    1.1034   -1.0207 O.3     0  UNK0       -0.3237
     12 O           1.6520    2.0482    0.9358 O.3     0  UNK0       -0.3237
     13 O           4.0708    1.0544    1.4867 O.2     0  UNK0       -0.2583
     14 C          -1.5391   -1.7244   -1.3311 C.2     1  ASP1        0.3301
     15 O          -0.7365   -2.3971   -2.2271 O.3     1  ASP1       -0.4791
     16 OXT        -2.6767   -1.7360   -1.9148 O.2     1  ASP1       -0.2486
     17 HA         -2.1785   -1.6461    0.7074 H       1  ASP1        0.0667
     18 HB1        -1.6327    0.9656   -0.8766 H       1  ASP1        0.0404
     19 HB2        -3.2087    0.2129   -0.6061 H       1  ASP1        0.0404
     20 HD1        -2.4209    2.9274    1.9517 H       1  ASP1        0.2951
     21 H           0.2646    0.0682   -1.8940 H       0  UNK0        0.2934
     22 H           2.8119   -1.5235    0.4376 H       0  UNK0        0.0484
     23 H           1.8545   -0.9010    1.8399 H       0  UNK0        0.0484
     24 H           3.4792    0.2571   -1.4706 H       0  UNK0        0.2198
     25 H           1.9742    2.7814    1.5451 H       0  UNK0        0.2198
     26 H          -0.5608   -2.0966   -3.1748 H       1  ASP1        0.2951
@<TRIPOS>BOND
     1     1     2    1
     2     2     3    1
     3     3     4    1
     4     3     5    2
     5     1     6    1
     6     6     7    2
     7     7     8    1
     8     7     9    1
     9     9    10    1
    10    10    11    1
    11    10    12    1
    12    10    13    2
    13     1    14    1
    14    14    15    1
    15    14    16    2
    16     1    17    1
    17     2    18    1
    18     2    19    1
    19     4    20    1
    20     8    21    1
    21     9    22    1
    22     9    23    1
    23    11    24    1
    24    12    25    1
    25    15    26    1
