
     RDKit          3D

 26 25  0  0  0  0  0  0  0  0999 V2000
   -1.5688   -1.0410   -0.0200 C   0  0  2  0  0  0  0  0  0  0  0  0
   -2.1779    0.3450   -0.1642 C   0  0  0  0  0  0  0  0  0  0  0  0
   -2.2774    1.0005    1.1627 C   0  0  0  0  0  0  0  0  0  0  0  0
   -2.0587    2.0050    2.0777 O   0  0  0  0  0  0  0  0  0  0  0  0
   -2.9011    0.3599    2.0609 O   0  0  0  0  0  0  0  0  0  0  0  0
   -0.2544   -0.9794    0.5465 N   0  0  0  0  0  0  0  0  0  0  0  0
    0.8591   -0.7504   -0.0356 C   0  0  0  0  0  0  0  0  0  0  0  0
    0.9406   -0.5117   -1.4099 O   0  0  0  0  0  0  0  0  0  0  0  0
    2.1097   -0.7362    0.7692 C   0  0  0  0  0  0  0  0  0  0  0  0
    2.8533    0.9147    0.6246 P   0  0  0  0  0  0  0  0  0  0  0  0
    3.3222    1.1034   -1.0207 O   0  0  0  0  0  0  0  0  0  0  0  0
    1.6520    2.0482    0.9358 O   0  0  0  0  0  0  0  0  0  0  0  0
    4.0708    1.0544    1.4867 O   0  0  0  0  0  0  0  0  0  0  0  0
   -1.5391   -1.7244   -1.3311 C   0  0  0  0  0  0  0  0  0  0  0  0
   -0.7365   -2.3971   -2.2271 O   0  0  0  0  0  0  0  0  0  0  0  0
   -2.6767   -1.7360   -1.9148 O   0  0  0  0  0  0  0  0  0  0  0  0
   -2.1785   -1.6461    0.7074 H   0  0  0  0  0  0  0  0  0  0  0  0
   -1.6327    0.9656   -0.8766 H   0  0  0  0  0  0  0  0  0  0  0  0
   -3.2087    0.2129   -0.6061 H   0  0  0  0  0  0  0  0  0  0  0  0
   -2.4209    2.9274    1.9517 H   0  0  0  0  0  0  0  0  0  0  0  0
    0.2646    0.0682   -1.8940 H   0  0  0  0  0  0  0  0  0  0  0  0
    2.8119   -1.5235    0.4376 H   0  0  0  0  0  0  0  0  0  0  0  0
    1.8545   -0.9010    1.8399 H   0  0  0  0  0  0  0  0  0  0  0  0
    3.4792    0.2571   -1.4706 H   0  0  0  0  0  0  0  0  0  0  0  0
    1.9742    2.7814    1.5451 H   0  0  0  0  0  0  0  0  0  0  0  0
   -0.5608   -2.0966   -3.1748 H   0  0  0  0  0  0  0  0  0  0  0  0
  1  2  1  0
  2  3  1  0
  3  4  1  0
  3  5  2  0
  1  6  1  0
  6  7  2  3
  7  8  1  0
  7  9  1  0
  9 10  1  0
 10 11  1  0
 10 12  1  0
 10 13  2  0
  1 14  1  0
 14 15  1  0
 14 16  2  0
  1 17  1  1
  2 18  1  0
  2 19  1  0
  4 20  1  0
  8 21  1  0
  9 22  1  0
  9 23  1  0
 11 24  1  0
 12 25  1  0
 15 26  1  0
M  END
$$$$
