@<TRIPOS>MOLECULE
*****
 37 37 0 0 0
SMALL
GASTEIGER

@<TRIPOS>ATOM
      1 C          -3.9252   -1.7873    0.3557 C.3     1  UNL1       -0.0524
      2 C          -3.4981   -0.9383   -0.7828 C.3     1  UNL1       -0.0038
      3 N          -2.9787    0.3324   -0.5300 N.3     1  UNL1       -0.2996
      4 C          -3.7973    1.3573   -0.0334 C.3     1  UNL1       -0.0038
      5 C          -4.3195    1.2414    1.3514 C.3     1  UNL1       -0.0524
      6 C          -1.5864    0.4267   -0.2172 C.3     1  UNL1        0.0332
      7 C          -0.7368    0.0751   -1.4254 C.3     1  UNL1        0.1054
      8 O           0.6397    0.1597   -1.1526 O.3     1  UNL1       -0.4599
      9 C           1.3091   -0.5654   -0.1949 C.2     1  UNL1        0.3392
     10 O           0.7446   -1.3825    0.5412 O.2     1  UNL1       -0.2450
     11 C           2.7522   -0.3415   -0.0610 C.ar    1  UNL1        0.0591
     12 C           3.5578   -0.9711    0.8456 C.ar    1  UNL1       -0.0460
     13 C           4.9218   -0.7164    0.9136 C.ar    1  UNL1       -0.0403
     14 C           5.5212    0.1783    0.0737 C.ar    1  UNL1        0.0246
     15 N           6.9147    0.5143    0.0554 N.pl3   1  UNL1       -0.3580
     16 C           4.7541    0.8498   -0.8689 C.ar    1  UNL1       -0.0403
     17 C           3.4154    0.5598   -0.8912 C.ar    1  UNL1       -0.0460
     18 H          -4.5417   -1.3327    1.1233 H       1  UNL1        0.0242
     19 H          -4.5714   -2.6064   -0.0860 H       1  UNL1        0.0242
     20 H          -3.0690   -2.3772    0.8004 H       1  UNL1        0.0242
     21 H          -4.4106   -0.8082   -1.4377 H       1  UNL1        0.0424
     22 H          -2.8308   -1.5865   -1.4246 H       1  UNL1        0.0424
     23 H          -3.2078    2.3214   -0.1154 H       1  UNL1        0.0424
     24 H          -4.6673    1.4762   -0.7283 H       1  UNL1        0.0424
     25 H          -4.3783    2.2871    1.7854 H       1  UNL1        0.0242
     26 H          -3.7053    0.6882    2.0676 H       1  UNL1        0.0242
     27 H          -5.3669    0.8809    1.4296 H       1  UNL1        0.0242
     28 H          -1.3683    1.5081    0.0072 H       1  UNL1        0.0460
     29 H          -1.2725   -0.2183    0.6341 H       1  UNL1        0.0460
     30 H          -0.9215   -0.9809   -1.7506 H       1  UNL1        0.0710
     31 H          -0.9233    0.7762   -2.2562 H       1  UNL1        0.0710
     32 H           3.1043   -1.6898    1.5273 H       1  UNL1        0.0626
     33 H           5.5563   -1.2184    1.6329 H       1  UNL1        0.0636
     34 H           7.4951    0.9499    0.8018 H       1  UNL1        0.1423
     35 H           7.4167    0.2850   -0.8428 H       1  UNL1        0.1423
     36 H           5.1672    1.5703   -1.5614 H       1  UNL1        0.0636
     37 H           2.8067    1.0825   -1.6263 H       1  UNL1        0.0626
@<TRIPOS>BOND
     1     1     2    1
     2     2     3    1
     3     3     4    1
     4     4     5    1
     5     3     6    1
     6     6     7    1
     7     7     8    1
     8     8     9    1
     9     9    10    2
    10     9    11    1
    11    11    12   ar
    12    12    13   ar
    13    13    14   ar
    14    14    15    1
    15    14    16   ar
    16    16    17   ar
    17    17    11   ar
    18     1    18    1
    19     1    19    1
    20     1    20    1
    21     2    21    1
    22     2    22    1
    23     4    23    1
    24     4    24    1
    25     5    25    1
    26     5    26    1
    27     5    27    1
    28     6    28    1
    29     6    29    1
    30     7    30    1
    31     7    31    1
    32    12    32    1
    33    13    33    1
    34    15    34    1
    35    15    35    1
    36    16    36    1
    37    17    37    1
