@<TRIPOS>MOLECULE
*****
 41 42 0 0 0
SMALL
GASTEIGER

@<TRIPOS>ATOM
      1 C          -2.3328    2.0089    1.5416 C.3     1  UNL1       -0.0483
      2 C          -2.5223    0.7702    0.7400 C.3     1  UNL1        0.0201
      3 C          -3.4044    0.9704   -0.4726 C.3     1  UNL1        0.0116
      4 N          -3.6858   -0.3016   -1.0402 N.3     1  UNL1       -0.3108
      5 C          -2.7941   -1.3614   -0.7680 C.3     1  UNL1        0.0176
      6 C          -3.3108   -2.3194    0.2810 C.3     1  UNL1       -0.0485
      7 C          -1.3635   -0.9588   -0.4414 C.3     1  UNL1        0.0144
      8 N          -1.2606    0.2795    0.2118 N.3     1  UNL1       -0.2970
      9 C          -0.3744    1.2669   -0.2067 C.3     1  UNL1       -0.0004
     10 C           1.0614    0.9994    0.0729 C.3     1  UNL1       -0.0362
     11 C           1.6087   -0.2202   -0.5545 C.3     1  UNL1       -0.0265
     12 C           3.0788   -0.2573   -0.2075 C.ar    1  UNL1       -0.0473
     13 C           3.9551    0.3442   -1.0594 C.ar    1  UNL1       -0.0586
     14 C           5.3013    0.2942   -0.7160 C.ar    1  UNL1       -0.0615
     15 C           5.7167   -0.3331    0.4273 C.ar    1  UNL1       -0.0617
     16 C           4.7885   -0.9275    1.2571 C.ar    1  UNL1       -0.0615
     17 C           3.4473   -0.8898    0.9359 C.ar    1  UNL1       -0.0586
     18 H          -1.3710    1.9943    2.1034 H       1  UNL1        0.0245
     19 H          -3.1320    2.0603    2.3333 H       1  UNL1        0.0245
     20 H          -2.4469    2.9493    0.9599 H       1  UNL1        0.0245
     21 H          -2.9576   -0.0455    1.3497 H       1  UNL1        0.0472
     22 H          -4.3089    1.5204   -0.1795 H       1  UNL1        0.0439
     23 H          -2.8661    1.6143   -1.2256 H       1  UNL1        0.0439
     24 H          -4.6519   -0.5952   -0.6998 H       1  UNL1        0.1223
     25 H          -2.7242   -1.9745   -1.7135 H       1  UNL1        0.0470
     26 H          -3.4366   -3.3570   -0.0955 H       1  UNL1        0.0245
     27 H          -2.5924   -2.4041    1.1485 H       1  UNL1        0.0245
     28 H          -4.2530   -1.9472    0.6841 H       1  UNL1        0.0245
     29 H          -0.7519   -1.0368   -1.3812 H       1  UNL1        0.0442
     30 H          -1.0024   -1.7641    0.2283 H       1  UNL1        0.0442
     31 H          -0.6570    2.3086    0.1806 H       1  UNL1        0.0427
     32 H          -0.5158    1.4457   -1.3353 H       1  UNL1        0.0427
     33 H           1.6473    1.9255   -0.2072 H       1  UNL1        0.0281
     34 H           1.2538    0.9329    1.1953 H       1  UNL1        0.0281
     35 H           1.5177   -0.2847   -1.6446 H       1  UNL1        0.0314
     36 H           1.1554   -1.1425   -0.1188 H       1  UNL1        0.0314
     37 H           3.6635    0.8400   -1.9561 H       1  UNL1        0.0620
     38 H           6.0176    0.7596   -1.3671 H       1  UNL1        0.0618
     39 H           6.7693   -0.3737    0.6942 H       1  UNL1        0.0618
     40 H           5.0448   -1.4424    2.1769 H       1  UNL1        0.0618
     41 H           2.6892   -1.3476    1.5655 H       1  UNL1        0.0620
@<TRIPOS>BOND
     1     1     2    1
     2     2     3    1
     3     3     4    1
     4     4     5    1
     5     5     6    1
     6     5     7    1
     7     7     8    1
     8     8     9    1
     9     9    10    1
    10    10    11    1
    11    11    12    1
    12    12    13   ar
    13    13    14   ar
    14    14    15   ar
    15    15    16   ar
    16    16    17   ar
    17     8     2    1
    18    17    12   ar
    19     1    18    1
    20     1    19    1
    21     1    20    1
    22     2    21    1
    23     3    22    1
    24     3    23    1
    25     4    24    1
    26     5    25    1
    27     6    26    1
    28     6    27    1
    29     6    28    1
    30     7    29    1
    31     7    30    1
    32     9    31    1
    33     9    32    1
    34    10    33    1
    35    10    34    1
    36    11    35    1
    37    11    36    1
    38    13    37    1
    39    14    38    1
    40    15    39    1
    41    16    40    1
    42    17    41    1
