
     RDKit          3D

 64 68  0  0  0  0  0  0  0  0999 V2000
   -2.2790   -0.9513   -0.1066 O   0  0  0  0  0  0  0  0  0  0  0  0
   -1.7565   -0.5165    0.9663 C   0  0  0  0  0  0  0  0  0  0  0  0
   -2.6334   -0.2299    2.1296 C   0  0  0  0  0  0  0  0  0  0  0  0
   -4.0270   -0.5048    1.7964 N   0  0  0  0  0  0  0  0  0  0  0  0
   -4.6980    0.2794    0.8457 C   0  0  0  0  0  0  0  0  0  0  0  0
   -4.0087    1.3438    0.2548 C   0  0  0  0  0  0  0  0  0  0  0  0
   -4.6935    2.1025   -0.6597 C   0  0  0  0  0  0  0  0  0  0  0  0
   -3.9843    3.2465   -1.3087 C   0  0  0  0  0  0  0  0  0  0  0  0
   -3.1539    2.7620   -2.3196 F   0  0  0  0  0  0  0  0  0  0  0  0
   -3.2342    3.9675   -0.4116 F   0  0  0  0  0  0  0  0  0  0  0  0
   -4.8995    4.0978   -1.8948 F   0  0  0  0  0  0  0  0  0  0  0  0
   -5.9713    1.8377   -0.9761 N   0  0  0  0  0  0  0  0  0  0  0  0
   -6.6415    0.8262   -0.4204 C   0  0  0  0  0  0  0  0  0  0  0  0
   -7.9393    0.5690   -0.7518 C   0  0  0  0  0  0  0  0  0  0  0  0
   -8.6513   -0.4645   -0.1960 C   0  0  0  0  0  0  0  0  0  0  0  0
   -8.0551   -1.2862    0.7330 C   0  0  0  0  0  0  0  0  0  0  0  0
   -8.8027   -2.4127    1.3509 C   0  0  0  0  0  0  0  0  0  0  0  0
   -9.4672   -1.9574    2.4734 F   0  0  0  0  0  0  0  0  0  0  0  0
   -9.6502   -2.9231    0.4005 F   0  0  0  0  0  0  0  0  0  0  0  0
   -7.8911   -3.3480    1.7654 F   0  0  0  0  0  0  0  0  0  0  0  0
   -6.7343   -1.0324    1.0769 C   0  0  0  0  0  0  0  0  0  0  0  0
   -6.0170    0.0171    0.5101 C   0  0  0  0  0  0  0  0  0  0  0  0
   -0.3569   -0.3143    1.0337 N   0  0  0  0  0  0  0  0  0  0  0  0
    0.4991   -0.5878   -0.0834 C   0  0  0  0  0  0  0  0  0  0  0  0
    1.4697    0.5338   -0.4219 C   0  0  0  0  0  0  0  0  0  0  0  0
    2.5536   -0.3241   -0.0290 N   0  0  0  0  0  0  0  0  0  0  0  0
    3.5850   -0.5357   -1.0171 C   0  0  1  0  0  0  0  0  0  0  0  0
    4.2682    0.7072   -1.4518 C   0  0  0  0  0  0  0  0  0  0  0  0
    5.3680    1.0086   -0.4309 C   0  0  0  0  0  0  0  0  0  0  0  0
    6.5472    0.1415   -0.8401 C   0  0  1  0  0  0  0  0  0  0  0  0
    6.8682    0.5799   -2.1500 O   0  0  0  0  0  0  0  0  0  0  0  0
    7.6506    0.2244    0.0625 C   0  0  0  0  0  0  0  0  0  0  0  0
    7.8934    0.9432    1.2676 C   0  0  0  0  0  0  0  0  0  0  0  0
    9.0052    0.7899    1.8369 N   0  0  0  0  0  0  0  0  0  0  0  0
    9.9720    0.0862    1.5126 C   0  0  0  0  0  0  0  0  0  0  0  0
    9.2686   -0.6538   -0.0499 S   0  0  0  0  0  0  0  0  0  0  0  0
    5.9851   -1.2559   -1.0216 C   0  0  0  0  0  0  0  0  0  0  0  0
    4.6422   -1.4239   -0.3479 C   0  0  0  0  0  0  0  0  0  0  0  0
    1.7129   -1.4474    0.2467 C   0  0  0  0  0  0  0  0  0  0  0  0
   -2.3111   -0.8478    2.9880 H   0  0  0  0  0  0  0  0  0  0  0  0
   -2.5165    0.8275    2.4538 H   0  0  0  0  0  0  0  0  0  0  0  0
   -4.4629   -1.2950    2.2997 H   0  0  0  0  0  0  0  0  0  0  0  0
   -2.9855    1.5809    0.4984 H   0  0  0  0  0  0  0  0  0  0  0  0
   -8.4108    1.2188   -1.4865 H   0  0  0  0  0  0  0  0  0  0  0  0
   -9.6882   -0.6659   -0.4641 H   0  0  0  0  0  0  0  0  0  0  0  0
   -6.2644   -1.6757    1.8048 H   0  0  0  0  0  0  0  0  0  0  0  0
    0.0439    0.0486    1.9425 H   0  0  0  0  0  0  0  0  0  0  0  0
   -0.0834   -0.9588   -0.9506 H   0  0  0  0  0  0  0  0  0  0  0  0
    1.3763    1.3737    0.3087 H   0  0  0  0  0  0  0  0  0  0  0  0
    1.3884    0.7972   -1.4743 H   0  0  0  0  0  0  0  0  0  0  0  0
    3.2311   -1.0981   -1.9030 H   0  0  0  0  0  0  0  0  0  0  0  0
    3.6197    1.5907   -1.5606 H   0  0  0  0  0  0  0  0  0  0  0  0
    4.7582    0.5460   -2.4366 H   0  0  0  0  0  0  0  0  0  0  0  0
    5.0161    0.7957    0.5852 H   0  0  0  0  0  0  0  0  0  0  0  0
    5.6330    2.0863   -0.4609 H   0  0  0  0  0  0  0  0  0  0  0  0
    6.7992    1.5630   -2.2205 H   0  0  0  0  0  0  0  0  0  0  0  0
    7.0713    1.6048    1.6341 H   0  0  0  0  0  0  0  0  0  0  0  0
   10.9600   -0.1914    1.8156 H   0  0  0  0  0  0  0  0  0  0  0  0
    6.6816   -1.9532   -0.5453 H   0  0  0  0  0  0  0  0  0  0  0  0
    5.8644   -1.5530   -2.0740 H   0  0  0  0  0  0  0  0  0  0  0  0
    4.6969   -1.2138    0.7319 H   0  0  0  0  0  0  0  0  0  0  0  0
    4.3496   -2.4780   -0.4708 H   0  0  0  0  0  0  0  0  0  0  0  0
    1.7302   -1.6897    1.3461 H   0  0  0  0  0  0  0  0  0  0  0  0
    1.7602   -2.3070   -0.4208 H   0  0  0  0  0  0  0  0  0  0  0  0
  1  2  2  0
  2  3  1  0
  3  4  1  0
  4  5  1  0
  5  6  2  0
  6  7  1  0
  7  8  1  0
  8  9  1  0
  8 10  1  0
  8 11  1  0
  7 12  2  0
 12 13  1  0
 13 14  2  0
 14 15  1  0
 15 16  2  0
 16 17  1  0
 17 18  1  0
 17 19  1  0
 17 20  1  0
 16 21  1  0
 21 22  2  0
  2 23  1  0
 23 24  1  0
 24 25  1  0
 25 26  1  0
 26 27  1  0
 27 28  1  0
 28 29  1  0
 29 30  1  0
 30 31  1  6
 30 32  1  0
 32 33  2  0
 33 34  1  0
 34 35  2  0
 35 36  1  0
 30 37  1  0
 37 38  1  0
 26 39  1  0
 22  5  1  0
 39 24  1  0
 22 13  1  0
 38 27  1  0
 36 32  1  0
  3 40  1  0
  3 41  1  0
  4 42  1  0
  6 43  1  0
 14 44  1  0
 15 45  1  0
 21 46  1  0
 23 47  1  0
 24 48  1  0
 25 49  1  0
 25 50  1  0
 27 51  1  6
 28 52  1  0
 28 53  1  0
 29 54  1  0
 29 55  1  0
 31 56  1  0
 33 57  1  0
 35 58  1  0
 37 59  1  0
 37 60  1  0
 38 61  1  0
 38 62  1  0
 39 63  1  0
 39 64  1  0
M  END
$$$$
