@<TRIPOS>MOLECULE
*****
 64 68 0 0 0
SMALL
GASTEIGER

@<TRIPOS>ATOM
      1 O          -2.2790   -0.9513   -0.1066 O.2     1  UNL1       -0.2741
      2 C          -1.7565   -0.5165    0.9663 C.2     1  UNL1        0.2304
      3 C          -2.6334   -0.2299    2.1296 C.3     1  UNL1        0.0858
      4 N          -4.0270   -0.5048    1.7964 N.pl3   1  UNL1       -0.3348
      5 C          -4.6980    0.2794    0.8457 C.ar    1  UNL1        0.0388
      6 C          -4.0087    1.3438    0.2548 C.ar    1  UNL1       -0.0102
      7 C          -4.6935    2.1025   -0.6597 C.ar    1  UNL1        0.1460
      8 C          -3.9843    3.2465   -1.3087 C.3     1  UNL1        0.4343
      9 F          -3.1539    2.7620   -2.3196 F       1  UNL1       -0.1644
     10 F          -3.2342    3.9675   -0.4116 F       1  UNL1       -0.1644
     11 F          -4.8995    4.0978   -1.8948 F       1  UNL1       -0.1644
     12 N          -5.9713    1.8377   -0.9761 N.ar    1  UNL1       -0.2426
     13 C          -6.6415    0.8262   -0.4204 C.ar    1  UNL1        0.0734
     14 C          -7.9393    0.5690   -0.7518 C.ar    1  UNL1       -0.0351
     15 C          -8.6513   -0.4645   -0.1960 C.ar    1  UNL1       -0.0481
     16 C          -8.0551   -1.2862    0.7330 C.ar    1  UNL1        0.0556
     17 C          -8.8027   -2.4127    1.3509 C.3     1  UNL1        0.4174
     18 F          -9.4672   -1.9574    2.4734 F       1  UNL1       -0.1659
     19 F          -9.6502   -2.9231    0.4005 F       1  UNL1       -0.1659
     20 F          -7.8911   -3.3480    1.7654 F       1  UNL1       -0.1659
     21 C          -6.7343   -1.0324    1.0769 C.ar    1  UNL1       -0.0392
     22 C          -6.0170    0.0171    0.5101 C.ar    1  UNL1        0.0218
     23 N          -0.3569   -0.3143    1.0337 N.am    1  UNL1       -0.3087
     24 C           0.4991   -0.5878   -0.0834 C.3     1  UNL1        0.0486
     25 C           1.4697    0.5338   -0.4219 C.3     1  UNL1        0.0189
     26 N           2.5536   -0.3241   -0.0290 N.3     1  UNL1       -0.2958
     27 C           3.5850   -0.5357   -1.0171 C.3     1  UNL1        0.0107
     28 C           4.2682    0.7072   -1.4518 C.3     1  UNL1       -0.0344
     29 C           5.3680    1.0086   -0.4309 C.3     1  UNL1       -0.0179
     30 C           6.5472    0.1415   -0.8401 C.3     1  UNL1        0.0985
     31 O           6.8682    0.5799   -2.1500 O.3     1  UNL1       -0.3834
     32 C           7.6506    0.2244    0.0625 C.ar    1  UNL1        0.0405
     33 C           7.8934    0.9432    1.2676 C.ar    1  UNL1        0.0406
     34 N           9.0052    0.7899    1.8369 N.ar    1  UNL1       -0.2553
     35 C           9.9720    0.0862    1.5126 C.ar    1  UNL1        0.0650
     36 S           9.2686   -0.6538   -0.0499 S.2     1  UNL1       -0.0775
     37 C           5.9851   -1.2559   -1.0216 C.3     1  UNL1       -0.0179
     38 C           4.6422   -1.4239   -0.3479 C.3     1  UNL1       -0.0344
     39 C           1.7129   -1.4474    0.2467 C.3     1  UNL1        0.0189
     40 H          -2.3111   -0.8478    2.9880 H       1  UNL1        0.0557
     41 H          -2.5165    0.8275    2.4538 H       1  UNL1        0.0557
     42 H          -4.4629   -1.2950    2.2997 H       1  UNL1        0.1466
     43 H          -2.9855    1.5809    0.4984 H       1  UNL1        0.0657
     44 H          -8.4108    1.2188   -1.4865 H       1  UNL1        0.0639
     45 H          -9.6882   -0.6659   -0.4641 H       1  UNL1        0.0624
     46 H          -6.2644   -1.6757    1.8048 H       1  UNL1        0.0630
     47 H           0.0439    0.0486    1.9425 H       1  UNL1        0.1491
     48 H          -0.0834   -0.9588   -0.9506 H       1  UNL1        0.0523
     49 H           1.3763    1.3737    0.3087 H       1  UNL1        0.0445
     50 H           1.3884    0.7972   -1.4743 H       1  UNL1        0.0445
     51 H           3.2311   -1.0981   -1.9030 H       1  UNL1        0.0462
     52 H           3.6197    1.5907   -1.5606 H       1  UNL1        0.0281
     53 H           4.7582    0.5460   -2.4366 H       1  UNL1        0.0281
     54 H           5.0161    0.7957    0.5852 H       1  UNL1        0.0297
     55 H           5.6330    2.0863   -0.4609 H       1  UNL1        0.0297
     56 H           6.7992    1.5630   -2.2205 H       1  UNL1        0.2106
     57 H           7.0713    1.6048    1.6341 H       1  UNL1        0.0839
     58 H          10.9600   -0.1914    1.8156 H       1  UNL1        0.0907
     59 H           6.6816   -1.9532   -0.5453 H       1  UNL1        0.0297
     60 H           5.8644   -1.5530   -2.0740 H       1  UNL1        0.0297
     61 H           4.6969   -1.2138    0.7319 H       1  UNL1        0.0281
     62 H           4.3496   -2.4780   -0.4708 H       1  UNL1        0.0281
     63 H           1.7302   -1.6897    1.3461 H       1  UNL1        0.0445
     64 H           1.7602   -2.3070   -0.4208 H       1  UNL1        0.0445
@<TRIPOS>BOND
     1     1     2    2
     2     2     3    1
     3     3     4    1
     4     4     5    1
     5     5     6   ar
     6     6     7   ar
     7     7     8    1
     8     8     9    1
     9     8    10    1
    10     8    11    1
    11     7    12   ar
    12    12    13   ar
    13    13    14   ar
    14    14    15   ar
    15    15    16   ar
    16    16    17    1
    17    17    18    1
    18    17    19    1
    19    17    20    1
    20    16    21   ar
    21    21    22   ar
    22     2    23   am
    23    23    24    1
    24    24    25    1
    25    25    26    1
    26    26    27    1
    27    27    28    1
    28    28    29    1
    29    29    30    1
    30    30    31    1
    31    30    32    1
    32    32    33   ar
    33    33    34   ar
    34    34    35   ar
    35    35    36   ar
    36    30    37    1
    37    37    38    1
    38    26    39    1
    39    22     5   ar
    40    39    24    1
    41    22    13   ar
    42    38    27    1
    43    36    32   ar
    44     3    40    1
    45     3    41    1
    46     4    42    1
    47     6    43    1
    48    14    44    1
    49    15    45    1
    50    21    46    1
    51    23    47    1
    52    24    48    1
    53    25    49    1
    54    25    50    1
    55    27    51    1
    56    28    52    1
    57    28    53    1
    58    29    54    1
    59    29    55    1
    60    31    56    1
    61    33    57    1
    62    35    58    1
    63    37    59    1
    64    37    60    1
    65    38    61    1
    66    38    62    1
    67    39    63    1
    68    39    64    1
