@<TRIPOS>MOLECULE
*****
 58 62 0 0 0
SMALL
GASTEIGER

@<TRIPOS>ATOM
      1 C          -1.4002   -1.4425   -1.1454 C.3     1  UNL1       -0.0351
      2 C          -0.7895   -0.3674   -0.2780 C.3     1  UNL1        0.0935
      3 C           0.5735   -0.0935   -0.8403 C.ar    1  UNL1        0.0158
      4 C           1.7076   -0.3229   -0.0966 C.ar    1  UNL1       -0.0463
      5 C           2.9825   -0.0451   -0.6111 C.ar    1  UNL1       -0.0217
      6 C           4.1675   -0.3051    0.1978 C.2     1  UNL1       -0.0172
      7 C           5.1807    0.5235    0.2282 C.2     1  UNL1        0.1492
      8 F           5.0914    1.6534   -0.5306 F       1  UNL1       -0.2032
      9 C           6.3995    0.3223    1.0214 C.ar    1  UNL1        0.0990
     10 C           6.5833   -0.7881    1.8151 C.ar    1  UNL1       -0.0322
     11 C           7.7631   -0.8967    2.5368 C.ar    1  UNL1       -0.0408
     12 C           8.7479    0.0646    2.4840 C.ar    1  UNL1        0.0699
     13 C           9.9677   -0.0718    3.2510 C.1     1  UNL1        0.1007
     14 N          10.9640   -0.1775    3.8539 N.1     1  UNL1       -0.1908
     15 C           8.5118    1.1457    1.6795 C.ar    1  UNL1        0.0457
     16 N           7.3724    1.2420    0.9879 N.ar    1  UNL1       -0.2514
     17 C           3.0880    0.4654   -1.8840 C.ar    1  UNL1       -0.0518
     18 C           1.9570    0.6879   -2.6107 C.ar    1  UNL1       -0.0255
     19 C           0.6845    0.4120   -2.1011 C.ar    1  UNL1        0.1289
     20 F          -0.3986    0.6499   -2.9157 F       1  UNL1       -0.2051
     21 N          -0.6154   -0.9305    1.0722 N.2     1  UNL1       -0.2521
     22 C          -1.6434   -1.2177    1.7711 C.2     1  UNL1        0.1485
     23 N          -1.6102   -1.7612    3.0686 N.pl3   1  UNL1       -0.3380
     24 S          -3.2307   -0.8609    1.0309 S.3     1  UNL1       -0.0746
     25 C          -2.9874    0.7401    0.1550 C.3     1  UNL1        0.1054
     26 C          -4.1307    1.3678   -0.5071 C.2     1  UNL1        0.2325
     27 O          -4.2178    2.6430   -0.3620 O.2     1  UNL1       -0.2741
     28 N          -5.0825    0.6688   -1.2530 N.am    1  UNL1       -0.2978
     29 C          -6.2402    1.2786   -1.9288 C.3     1  UNL1        0.0172
     30 C          -7.3514    0.3775   -1.3745 C.3     1  UNL1       -0.0095
     31 C          -6.6610   -0.9754   -1.1790 C.3     1  UNL1        0.0723
     32 O          -6.7051   -1.3345    0.1717 O.3     1  UNL1       -0.3902
     33 C          -5.1913   -0.7205   -1.5473 C.3     1  UNL1        0.0408
     34 C          -2.0079    1.6281    0.9108 C.3     1  UNL1       -0.0220
     35 C          -1.5942    0.8873   -0.2971 C.3     1  UNL1        0.0134
     36 H          -1.5176   -2.4112   -0.5902 H       1  UNL1        0.0256
     37 H          -2.3384   -1.0826   -1.6055 H       1  UNL1        0.0256
     38 H          -0.7408   -1.7074   -2.0244 H       1  UNL1        0.0256
     39 H           1.6478   -0.7279    0.9166 H       1  UNL1        0.0628
     40 H           4.1945   -1.2122    0.7845 H       1  UNL1        0.0653
     41 H           5.8201   -1.5739    1.8807 H       1  UNL1        0.0640
     42 H           7.9098   -1.7768    3.1660 H       1  UNL1        0.0631
     43 H           9.2829    1.9167    1.6265 H       1  UNL1        0.0843
     44 H           4.0928    0.6802   -2.2948 H       1  UNL1        0.0624
     45 H           2.0160    1.0897   -3.6160 H       1  UNL1        0.0646
     46 H          -1.7893   -2.7811    3.2801 H       1  UNL1        0.1442
     47 H          -1.3993   -1.1642    3.9134 H       1  UNL1        0.1442
     48 H          -6.1846    1.0721   -3.0167 H       1  UNL1        0.0465
     49 H          -6.3643    2.3243   -1.6539 H       1  UNL1        0.0465
     50 H          -7.6231    0.7944   -0.3666 H       1  UNL1        0.0306
     51 H          -8.2098    0.2975   -2.0609 H       1  UNL1        0.0306
     52 H          -7.0376   -1.7426   -1.8529 H       1  UNL1        0.0609
     53 H          -6.6817   -0.5152    0.7328 H       1  UNL1        0.2098
     54 H          -4.6188   -1.4141   -0.9437 H       1  UNL1        0.0490
     55 H          -5.0455   -0.8630   -2.6442 H       1  UNL1        0.0490
     56 H          -1.6824    1.3351    1.9268 H       1  UNL1        0.0287
     57 H          -2.2289    2.7061    0.8433 H       1  UNL1        0.0287
     58 H          -1.3869    1.5699   -1.1745 H       1  UNL1        0.0346
@<TRIPOS>BOND
     1     2     1    1
     2     2     3    1
     3     3     4   ar
     4     4     5   ar
     5     5     6    1
     6     6     7    2
     7     7     8    1
     8     7     9    1
     9     9    10   ar
    10    10    11   ar
    11    11    12   ar
    12    12    13    1
    13    13    14    3
    14    12    15   ar
    15    15    16   ar
    16     5    17   ar
    17    17    18   ar
    18    18    19   ar
    19    19    20    1
    20     2    21    1
    21    21    22    2
    22    22    23    1
    23    22    24    1
    24    24    25    1
    25    25    26    1
    26    26    27    2
    27    26    28   am
    28    28    29    1
    29    29    30    1
    30    30    31    1
    31    31    32    1
    32    31    33    1
    33    25    34    1
    34    34    35    1
    35    35     2    1
    36    19     3   ar
    37    35    25    1
    38    16     9   ar
    39    33    28    1
    40     1    36    1
    41     1    37    1
    42     1    38    1
    43     4    39    1
    44     6    40    1
    45    10    41    1
    46    11    42    1
    47    15    43    1
    48    17    44    1
    49    18    45    1
    50    23    46    1
    51    23    47    1
    52    29    48    1
    53    29    49    1
    54    30    50    1
    55    30    51    1
    56    31    52    1
    57    32    53    1
    58    33    54    1
    59    33    55    1
    60    34    56    1
    61    34    57    1
    62    35    58    1
