@<TRIPOS>MOLECULE
*****
 40 40 0 0 0
SMALL
GASTEIGER

@<TRIPOS>ATOM
      1 C          -0.1393   -0.1062   -0.7800 C.3     1  UNL1        0.0996
      2 C           0.6136    0.2765    0.4703 C.3     1  UNL1       -0.0226
      3 C           2.0971    0.3971    0.2851 C.3     1  UNL1       -0.0147
      4 C           2.7877    0.8084    1.5855 C.3     1  UNL1        0.0779
      5 N           4.1950    0.8962    1.3155 N.pl3   1  UNL1       -0.2381
      6 C           4.8598   -0.3425    1.0374 C.2     1  UNL1        0.2750
      7 C           6.1398   -0.3858    0.2811 C.3     1  UNL1        0.0384
      8 N           4.3497   -1.4507    1.4451 N.2     1  UNL1       -0.1042
      9 N          -1.5647   -0.1859   -0.4624 N.am    1  UNL1       -0.3000
     10 C          -2.6401    0.5891   -0.9574 C.2     1  UNL1        0.2447
     11 O          -2.2525    1.4403   -1.7745 O.2     1  UNL1       -0.2702
     12 C          -3.9777    0.2928   -0.4632 C.ar    1  UNL1        0.0367
     13 C          -4.3680   -0.6683    0.4505 C.ar    1  UNL1       -0.0496
     14 C          -5.6833   -0.7848    0.7832 C.ar    1  UNL1       -0.0610
     15 C          -6.6883   -0.0018    0.2703 C.ar    1  UNL1       -0.0617
     16 C          -6.2989    0.9647   -0.6482 C.ar    1  UNL1       -0.0610
     17 C          -4.9714    1.1107   -1.0090 C.ar    1  UNL1       -0.0496
     18 C           0.3126   -1.3386   -1.4289 C.2     1  UNL1        0.2308
     19 N           1.6152   -1.5555   -1.9136 N.am    1  UNL1       -0.3278
     20 O          -0.5344   -2.2694   -1.5612 O.2     1  UNL1       -0.2740
     21 H          -0.0557    0.7270   -1.5253 H       1  UNL1        0.0594
     22 H           0.3569   -0.4319    1.2864 H       1  UNL1        0.0289
     23 H           0.2448    1.2843    0.8119 H       1  UNL1        0.0289
     24 H           2.4812   -0.6297    0.0131 H       1  UNL1        0.0302
     25 H           2.3400    1.0603   -0.5492 H       1  UNL1        0.0302
     26 H           2.4259    1.8474    1.8046 H       1  UNL1        0.0724
     27 H           2.4934    0.1451    2.3913 H       1  UNL1        0.0724
     28 H           4.8187    1.7344    1.2902 H       1  UNL1        0.2910
     29 H           6.8433    0.4115    0.6346 H       1  UNL1        0.0351
     30 H           6.0017   -0.2416   -0.8033 H       1  UNL1        0.0351
     31 H           6.6287   -1.3528    0.4208 H       1  UNL1        0.0351
     32 H           3.4851   -1.5868    1.9717 H       1  UNL1        0.3629
     33 H          -1.6255   -0.9680    0.2360 H       1  UNL1        0.1498
     34 H          -3.5530   -1.2613    0.8293 H       1  UNL1        0.0625
     35 H          -5.9090   -1.5706    1.5146 H       1  UNL1        0.0618
     36 H          -7.7208   -0.1436    0.5762 H       1  UNL1        0.0618
     37 H          -7.0792    1.5947   -1.0666 H       1  UNL1        0.0618
     38 H          -4.7856    1.9018   -1.7380 H       1  UNL1        0.0625
     39 H           2.5744   -1.7203   -2.2362 H       1  UNL1        0.1450
     40 H           2.1829   -1.5494   -2.7877 H       1  UNL1        0.1450
@<TRIPOS>BOND
     1     1     2    1
     2     2     3    1
     3     3     4    1
     4     4     5    1
     5     5     6    1
     6     6     7    1
     7     6     8    2
     8     1     9    1
     9     9    10   am
    10    10    11    2
    11    10    12    1
    12    12    13   ar
    13    13    14   ar
    14    14    15   ar
    15    15    16   ar
    16    16    17   ar
    17     1    18    1
    18    18    19   am
    19    18    20    2
    20    17    12   ar
    21     1    21    1
    22     2    22    1
    23     2    23    1
    24     3    24    1
    25     3    25    1
    26     4    26    1
    27     4    27    1
    28     5    28    1
    29     7    29    1
    30     7    30    1
    31     7    31    1
    32     8    32    1
    33     9    33    1
    34    13    34    1
    35    14    35    1
    36    15    36    1
    37    16    37    1
    38    17    38    1
    39    19    39    1
    40    19    40    1
