
     RDKit          3D

 40 40  0  0  0  0  0  0  0  0999 V2000
   -0.1393   -0.1062   -0.7800 C   0  0  2  0  0  0  0  0  0  0  0  0
    0.6136    0.2765    0.4703 C   0  0  0  0  0  0  0  0  0  0  0  0
    2.0971    0.3971    0.2851 C   0  0  0  0  0  0  0  0  0  0  0  0
    2.7877    0.8084    1.5855 C   0  0  0  0  0  0  0  0  0  0  0  0
    4.1950    0.8962    1.3155 N   0  0  0  0  0  0  0  0  0  0  0  0
    4.8598   -0.3425    1.0374 C   0  0  0  0  0  0  0  0  0  0  0  0
    6.1398   -0.3858    0.2811 C   0  0  0  0  0  0  0  0  0  0  0  0
    4.3497   -1.4507    1.4451 N   0  0  0  0  0  0  0  0  0  0  0  0
   -1.5647   -0.1859   -0.4624 N   0  0  0  0  0  0  0  0  0  0  0  0
   -2.6401    0.5891   -0.9574 C   0  0  0  0  0  0  0  0  0  0  0  0
   -2.2525    1.4403   -1.7745 O   0  0  0  0  0  0  0  0  0  0  0  0
   -3.9777    0.2928   -0.4632 C   0  0  0  0  0  0  0  0  0  0  0  0
   -4.3680   -0.6683    0.4505 C   0  0  0  0  0  0  0  0  0  0  0  0
   -5.6833   -0.7848    0.7832 C   0  0  0  0  0  0  0  0  0  0  0  0
   -6.6883   -0.0018    0.2703 C   0  0  0  0  0  0  0  0  0  0  0  0
   -6.2989    0.9647   -0.6482 C   0  0  0  0  0  0  0  0  0  0  0  0
   -4.9714    1.1107   -1.0090 C   0  0  0  0  0  0  0  0  0  0  0  0
    0.3126   -1.3386   -1.4289 C   0  0  0  0  0  0  0  0  0  0  0  0
    1.6152   -1.5555   -1.9136 N   0  0  0  0  0  0  0  0  0  0  0  0
   -0.5344   -2.2694   -1.5612 O   0  0  0  0  0  0  0  0  0  0  0  0
   -0.0557    0.7270   -1.5253 H   0  0  0  0  0  0  0  0  0  0  0  0
    0.3569   -0.4319    1.2864 H   0  0  0  0  0  0  0  0  0  0  0  0
    0.2448    1.2843    0.8119 H   0  0  0  0  0  0  0  0  0  0  0  0
    2.4812   -0.6297    0.0131 H   0  0  0  0  0  0  0  0  0  0  0  0
    2.3400    1.0603   -0.5492 H   0  0  0  0  0  0  0  0  0  0  0  0
    2.4259    1.8474    1.8046 H   0  0  0  0  0  0  0  0  0  0  0  0
    2.4934    0.1451    2.3913 H   0  0  0  0  0  0  0  0  0  0  0  0
    4.8187    1.7344    1.2902 H   0  0  0  0  0  0  0  0  0  0  0  0
    6.8433    0.4115    0.6346 H   0  0  0  0  0  0  0  0  0  0  0  0
    6.0017   -0.2416   -0.8033 H   0  0  0  0  0  0  0  0  0  0  0  0
    6.6287   -1.3528    0.4208 H   0  0  0  0  0  0  0  0  0  0  0  0
    3.4851   -1.5868    1.9717 H   0  0  0  0  0  0  0  0  0  0  0  0
   -1.6255   -0.9680    0.2360 H   0  0  0  0  0  0  0  0  0  0  0  0
   -3.5530   -1.2613    0.8293 H   0  0  0  0  0  0  0  0  0  0  0  0
   -5.9090   -1.5706    1.5146 H   0  0  0  0  0  0  0  0  0  0  0  0
   -7.7208   -0.1436    0.5762 H   0  0  0  0  0  0  0  0  0  0  0  0
   -7.0792    1.5947   -1.0666 H   0  0  0  0  0  0  0  0  0  0  0  0
   -4.7856    1.9018   -1.7380 H   0  0  0  0  0  0  0  0  0  0  0  0
    2.5744   -1.7203   -2.2362 H   0  0  0  0  0  0  0  0  0  0  0  0
    2.1829   -1.5494   -2.7877 H   0  0  0  0  0  0  0  0  0  0  0  0
  1  2  1  0
  2  3  1  0
  3  4  1  0
  4  5  1  0
  5  6  1  0
  6  7  1  0
  6  8  2  3
  1  9  1  0
  9 10  1  0
 10 11  2  0
 10 12  1  0
 12 13  2  0
 13 14  1  0
 14 15  2  0
 15 16  1  0
 16 17  2  0
  1 18  1  0
 18 19  1  0
 18 20  2  0
 17 12  1  0
  1 21  1  6
  2 22  1  0
  2 23  1  0
  3 24  1  0
  3 25  1  0
  4 26  1  0
  4 27  1  0
  5 28  1  0
  7 29  1  0
  7 30  1  0
  7 31  1  0
  8 32  1  0
  9 33  1  0
 13 34  1  0
 14 35  1  0
 15 36  1  0
 16 37  1  0
 17 38  1  0
 19 39  1  0
 19 40  1  0
M  END
$$$$
