
     RDKit          3D

 43 45  0  0  0  0  0  0  0  0999 V2000
   -2.0508   -1.9592    0.5717 C   0  0  1  0  0  0  0  0  0  0  0  0
   -3.1795   -2.2797   -0.4158 C   0  0  0  0  0  0  0  0  0  0  0  0
   -3.1566   -1.0331   -1.2652 C   0  0  0  0  0  0  0  0  0  0  0  0
   -2.5118   -0.0035   -0.3822 C   0  0  2  0  0  0  0  0  0  0  0  0
   -1.0928    0.3368   -0.8343 C   0  0  2  0  0  0  0  0  0  0  0  0
   -0.1549   -0.8212   -0.6668 C   0  0  2  0  0  0  0  0  0  0  0  0
   -0.7523   -2.0741   -0.1348 C   0  0  0  0  0  0  0  0  0  0  0  0
    1.0642   -0.4480   -0.0434 O   0  0  0  0  0  0  0  0  0  0  0  0
    2.2920   -0.4267   -0.6445 C   0  0  0  0  0  0  0  0  0  0  0  0
    2.4176   -0.7568   -1.8572 O   0  0  0  0  0  0  0  0  0  0  0  0
    3.5083   -0.0314    0.0569 C   0  0  0  0  0  0  0  0  0  0  0  0
    4.7107   -0.0408   -0.6363 C   0  0  0  0  0  0  0  0  0  0  0  0
    5.8303    0.3453    0.0863 C   0  0  0  0  0  0  0  0  0  0  0  0
    5.7217    0.7099    1.4092 C   0  0  0  0  0  0  0  0  0  0  0  0
    4.5193    0.7142    2.0848 C   0  0  0  0  0  0  0  0  0  0  0  0
    3.3959    0.3329    1.3813 C   0  0  0  0  0  0  0  0  0  0  0  0
   -0.6947    1.5158   -0.0265 C   0  0  0  0  0  0  0  0  0  0  0  0
    0.2013    1.7724    0.7837 O   0  0  0  0  0  0  0  0  0  0  0  0
   -1.5444    2.6175   -0.2292 O   0  0  0  0  0  0  0  0  0  0  0  0
   -1.3173    3.8523    0.4680 C   0  0  0  0  0  0  0  0  0  0  0  0
   -2.3702   -0.6123    0.9159 N   0  0  0  0  0  0  0  0  0  0  0  0
   -3.5582   -0.4622    1.6838 C   0  0  0  0  0  0  0  0  0  0  0  0
   -2.1102   -2.6606    1.4351 H   0  0  0  0  0  0  0  0  0  0  0  0
   -2.8215   -3.1740   -0.9970 H   0  0  0  0  0  0  0  0  0  0  0  0
   -4.1283   -2.4815    0.0784 H   0  0  0  0  0  0  0  0  0  0  0  0
   -2.4857   -1.2339   -2.1277 H   0  0  0  0  0  0  0  0  0  0  0  0
   -4.1664   -0.7255   -1.5980 H   0  0  0  0  0  0  0  0  0  0  0  0
   -3.1025    0.9011   -0.2474 H   0  0  0  0  0  0  0  0  0  0  0  0
   -1.2071    0.6914   -1.8807 H   0  0  0  0  0  0  0  0  0  0  0  0
    0.2056   -1.0625   -1.7010 H   0  0  0  0  0  0  0  0  0  0  0  0
   -0.8854   -2.8706   -0.9134 H   0  0  0  0  0  0  0  0  0  0  0  0
   -0.0159   -2.5635    0.5700 H   0  0  0  0  0  0  0  0  0  0  0  0
    4.7770   -0.3299   -1.6745 H   0  0  0  0  0  0  0  0  0  0  0  0
    6.8164    0.3664   -0.3826 H   0  0  0  0  0  0  0  0  0  0  0  0
    6.5946    1.0057    1.9544 H   0  0  0  0  0  0  0  0  0  0  0  0
    4.3798    0.9908    3.1201 H   0  0  0  0  0  0  0  0  0  0  0  0
    2.4127    0.3199    1.8763 H   0  0  0  0  0  0  0  0  0  0  0  0
   -0.2925    4.2133    0.3596 H   0  0  0  0  0  0  0  0  0  0  0  0
   -1.9923    4.5888   -0.0155 H   0  0  0  0  0  0  0  0  0  0  0  0
   -1.6581    3.7674    1.5233 H   0  0  0  0  0  0  0  0  0  0  0  0
   -3.6700   -1.1863    2.5041 H   0  0  0  0  0  0  0  0  0  0  0  0
   -4.4627   -0.3413    1.0493 H   0  0  0  0  0  0  0  0  0  0  0  0
   -3.4658    0.5369    2.2031 H   0  0  0  0  0  0  0  0  0  0  0  0
  1  2  1  0
  2  3  1  0
  3  4  1  0
  4  5  1  0
  5  6  1  0
  6  7  1  0
  6  8  1  0
  8  9  1  0
  9 10  2  0
  9 11  1  0
 11 12  2  0
 12 13  1  0
 13 14  2  0
 14 15  1  0
 15 16  2  0
  5 17  1  0
 17 18  2  0
 17 19  1  0
 19 20  1  0
  4 21  1  0
 21 22  1  0
  7  1  1  0
 16 11  1  0
 21  1  1  0
  1 23  1  1
  2 24  1  0
  2 25  1  0
  3 26  1  0
  3 27  1  0
  4 28  1  1
  5 29  1  6
  6 30  1  6
  7 31  1  0
  7 32  1  0
 12 33  1  0
 13 34  1  0
 14 35  1  0
 15 36  1  0
 16 37  1  0
 20 38  1  0
 20 39  1  0
 20 40  1  0
 22 41  1  0
 22 42  1  0
 22 43  1  0
M  END
$$$$
