
     RDKit          3D

 47 50  0  0  0  0  0  0  0  0999 V2000
   -2.0507    0.7754    0.6012 C   0  0  1  0  0  0  0  0  0  0  0  0
   -1.5054   -0.1987   -0.8586 S   0  0  0  0  0  0  0  0  0  0  0  0
   -2.3688   -1.6979   -0.2488 C   0  0  0  0  0  0  0  0  0  0  0  0
   -3.6741   -1.7426   -1.0497 C   0  0  0  0  0  0  0  0  0  0  0  0
   -1.5795   -2.9453   -0.4607 C   0  0  0  0  0  0  0  0  0  0  0  0
   -2.6805   -1.3653    1.1629 C   0  0  1  0  0  0  0  0  0  0  0  0
   -1.9641   -0.2468    1.6039 N   0  0  0  0  0  0  0  0  0  0  0  0
   -1.1730    0.6598    2.3599 C   0  0  0  0  0  0  0  0  0  0  0  0
   -0.8247    0.6442    3.5899 O   0  0  0  0  0  0  0  0  0  0  0  0
   -0.9388    1.5590    1.2188 C   0  0  1  0  0  0  0  0  0  0  0  0
    0.3801    1.3914    0.6557 N   0  0  0  0  0  0  0  0  0  0  0  0
    1.2947    2.4372    0.4935 C   0  0  0  0  0  0  0  0  0  0  0  0
    0.8524    3.5521    0.8903 O   0  0  0  0  0  0  0  0  0  0  0  0
    2.6375    2.3904   -0.0555 C   0  0  0  0  0  0  0  0  0  0  0  0
    3.4695    3.4823   -0.1770 C   0  0  0  0  0  0  0  0  0  0  0  0
    3.1459    4.8847    0.2256 C   0  0  0  0  0  0  0  0  0  0  0  0
    4.5949    3.0989   -0.7033 O   0  0  0  0  0  0  0  0  0  0  0  0
    4.5372    1.8263   -0.9277 N   0  0  0  0  0  0  0  0  0  0  0  0
    3.3517    1.3263   -0.5492 C   0  0  0  0  0  0  0  0  0  0  0  0
    2.9395   -0.0642   -0.6544 C   0  0  0  0  0  0  0  0  0  0  0  0
    2.3041   -0.4489   -1.8418 C   0  0  0  0  0  0  0  0  0  0  0  0
    2.0692    0.4200   -2.8550 F   0  0  0  0  0  0  0  0  0  0  0  0
    1.9357   -1.7655   -1.9096 C   0  0  0  0  0  0  0  0  0  0  0  0
    2.1409   -2.7104   -0.9189 C   0  0  0  0  0  0  0  0  0  0  0  0
    2.7745   -2.2941    0.2466 C   0  0  0  0  0  0  0  0  0  0  0  0
    3.1638   -0.9930    0.3693 C   0  0  0  0  0  0  0  0  0  0  0  0
    3.9611   -0.4549    1.8276 Cl  0  0  0  0  0  0  0  0  0  0  0  0
   -4.1358   -1.1317    1.3572 C   0  0  0  0  0  0  0  0  0  0  0  0
   -5.1964   -1.9682    1.0619 O   0  0  0  0  0  0  0  0  0  0  0  0
   -4.6245   -0.0731    1.8480 O   0  0  0  0  0  0  0  0  0  0  0  0
   -3.0031    1.2787    0.4418 H   0  0  0  0  0  0  0  0  0  0  0  0
   -3.4704   -1.6326   -2.1403 H   0  0  0  0  0  0  0  0  0  0  0  0
   -4.2452   -0.8368   -0.7481 H   0  0  0  0  0  0  0  0  0  0  0  0
   -4.2059   -2.6868   -0.9293 H   0  0  0  0  0  0  0  0  0  0  0  0
   -2.2734   -3.7336   -0.8681 H   0  0  0  0  0  0  0  0  0  0  0  0
   -0.7469   -2.8008   -1.1714 H   0  0  0  0  0  0  0  0  0  0  0  0
   -1.2471   -3.3233    0.5310 H   0  0  0  0  0  0  0  0  0  0  0  0
   -2.4581   -2.3161    1.7338 H   0  0  0  0  0  0  0  0  0  0  0  0
   -1.1833    2.5963    1.5223 H   0  0  0  0  0  0  0  0  0  0  0  0
    0.6755    0.4463    0.3514 H   0  0  0  0  0  0  0  0  0  0  0  0
    3.0145    4.9767    1.3224 H   0  0  0  0  0  0  0  0  0  0  0  0
    2.1379    5.1681   -0.1970 H   0  0  0  0  0  0  0  0  0  0  0  0
    3.9084    5.5508   -0.1939 H   0  0  0  0  0  0  0  0  0  0  0  0
    1.4410   -2.0953   -2.8169 H   0  0  0  0  0  0  0  0  0  0  0  0
    1.8123   -3.7401   -1.0612 H   0  0  0  0  0  0  0  0  0  0  0  0
    2.9596   -2.9930    1.0531 H   0  0  0  0  0  0  0  0  0  0  0  0
   -5.9525   -2.2058    1.6910 H   0  0  0  0  0  0  0  0  0  0  0  0
  1  2  1  0
  2  3  1  0
  3  4  1  0
  3  5  1  0
  3  6  1  0
  6  7  1  0
  7  8  1  0
  8  9  2  0
  8 10  1  0
 10 11  1  0
 11 12  1  0
 12 13  2  0
 12 14  1  0
 14 15  2  0
 15 16  1  0
 15 17  1  0
 17 18  1  0
 18 19  2  0
 19 20  1  0
 20 21  2  0
 21 22  1  0
 21 23  1  0
 23 24  2  0
 24 25  1  0
 25 26  2  0
 26 27  1  0
  6 28  1  0
 28 29  1  0
 28 30  2  0
  7  1  1  0
 19 14  1  0
 26 20  1  0
 10  1  1  0
  1 31  1  6
  4 32  1  0
  4 33  1  0
  4 34  1  0
  5 35  1  0
  5 36  1  0
  5 37  1  0
  6 38  1  1
 10 39  1  1
 11 40  1  0
 16 41  1  0
 16 42  1  0
 16 43  1  0
 23 44  1  0
 24 45  1  0
 25 46  1  0
 29 47  1  0
M  END
$$$$
