@<TRIPOS>MOLECULE
*****
 47 50 0 0 0
SMALL
GASTEIGER

@<TRIPOS>ATOM
      1 C          -2.0507    0.7754    0.6012 C.3     1  UNL1        0.1005
      2 S          -1.5054   -0.1987   -0.8586 S.3     1  UNL1       -0.1273
      3 C          -2.3688   -1.6979   -0.2488 C.3     1  UNL1        0.0417
      4 C          -3.6741   -1.7426   -1.0497 C.3     1  UNL1       -0.0484
      5 C          -1.5795   -2.9453   -0.4607 C.3     1  UNL1       -0.0484
      6 CA         -2.6805   -1.3653    1.1629 C.3     1  UNL1        0.1379
      7 N          -1.9641   -0.2468    1.6039 N.am    1  UNL1       -0.2708
      8 C          -1.1730    0.6598    2.3599 C.2     1  UNL1        0.2402
      9 O          -0.8247    0.6442    3.5899 O.2     1  UNL1       -0.2734
     10 CA         -0.9388    1.5590    1.2188 C.3     1  UNL1        0.1279
     11 N           0.3801    1.3914    0.6557 N.am    1  UNL1       -0.2976
     12 C           1.2947    2.4372    0.4935 C.2     1  UNL1        0.2502
     13 O           0.8524    3.5521    0.8903 O.2     1  UNL1       -0.2700
     14 C           2.6375    2.3904   -0.0555 C.ar    1  UNL1        0.1061
     15 C           3.4695    3.4823   -0.1770 C.ar    1  UNL1        0.1469
     16 C           3.1459    4.8847    0.2256 C.3     1  UNL1       -0.0029
     17 O           4.5949    3.0989   -0.7033 O.2     1  UNL1       -0.3586
     18 N           4.5372    1.8263   -0.9277 N.ar    1  UNL1       -0.0771
     19 C           3.3517    1.3263   -0.5492 C.ar    1  UNL1        0.1298
     20 C           2.9395   -0.0642   -0.6544 C.ar    1  UNL1        0.0578
     21 C           2.3041   -0.4489   -1.8418 C.ar    1  UNL1        0.1341
     22 F           2.0692    0.4200   -2.8550 F       1  UNL1       -0.2048
     23 C           1.9357   -1.7655   -1.9096 C.ar    1  UNL1       -0.0257
     24 C           2.1409   -2.7104   -0.9189 C.ar    1  UNL1       -0.0576
     25 C           2.7745   -2.2941    0.2466 C.ar    1  UNL1       -0.0426
     26 C           3.1638   -0.9930    0.3693 C.ar    1  UNL1        0.0530
     27 CL          3.9611   -0.4549    1.8276 Cl      1  UNL1       -0.0828
     28 C          -4.1358   -1.1317    1.3572 C.2     1  UNL1        0.3269
     29 O          -5.1964   -1.9682    1.0619 O.3     1  UNL1       -0.4793
     30 OXT        -4.6245   -0.0731    1.8480 O.2     1  UNL1       -0.2489
     31 H          -3.0031    1.2787    0.4418 H       1  UNL1        0.0640
     32 H          -3.4704   -1.6326   -2.1403 H       1  UNL1        0.0244
     33 H          -4.2452   -0.8368   -0.7481 H       1  UNL1        0.0244
     34 H          -4.2059   -2.6868   -0.9293 H       1  UNL1        0.0244
     35 H          -2.2734   -3.7336   -0.8681 H       1  UNL1        0.0244
     36 H          -0.7469   -2.8008   -1.1714 H       1  UNL1        0.0244
     37 H          -1.2471   -3.3233    0.5310 H       1  UNL1        0.0244
     38 HA         -2.4581   -2.3161    1.7338 H       1  UNL1        0.0631
     39 HA         -1.1833    2.5963    1.5223 H       1  UNL1        0.0622
     40 H           0.6755    0.4463    0.3514 H       1  UNL1        0.1499
     41 H           3.0145    4.9767    1.3224 H       1  UNL1        0.0309
     42 H           2.1379    5.1681   -0.1970 H       1  UNL1        0.0309
     43 H           3.9084    5.5508   -0.1939 H       1  UNL1        0.0309
     44 H           1.4410   -2.0953   -2.8169 H       1  UNL1        0.0646
     45 H           1.8123   -3.7401   -1.0612 H       1  UNL1        0.0619
     46 H           2.9596   -2.9930    1.0531 H       1  UNL1        0.0632
     47 H          -5.9525   -2.2058    1.6910 H       1  UNL1        0.2951
@<TRIPOS>BOND
     1     1     2    1
     2     2     3    1
     3     3     4    1
     4     3     5    1
     5     3     6    1
     6     6     7    1
     7     7     8   am
     8     8     9    2
     9     8    10    1
    10    10    11    1
    11    11    12   am
    12    12    13    2
    13    12    14    1
    14    14    15   ar
    15    15    16    1
    16    15    17   ar
    17    17    18   ar
    18    18    19   ar
    19    19    20    1
    20    20    21   ar
    21    21    22    1
    22    21    23   ar
    23    23    24   ar
    24    24    25   ar
    25    25    26   ar
    26    26    27    1
    27     6    28    1
    28    28    29    1
    29    28    30    2
    30     7     1    1
    31    19    14   ar
    32    26    20   ar
    33    10     1    1
    34     1    31    1
    35     4    32    1
    36     4    33    1
    37     4    34    1
    38     5    35    1
    39     5    36    1
    40     5    37    1
    41     6    38    1
    42    10    39    1
    43    11    40    1
    44    16    41    1
    45    16    42    1
    46    16    43    1
    47    23    44    1
    48    24    45    1
    49    25    46    1
    50    29    47    1
