@<TRIPOS>MOLECULE
*****
 53 56 0 0 0
SMALL
GASTEIGER

@<TRIPOS>ATOM
      1 C          -1.2029    2.8784   -1.2514 C.3     1  UNL1       -0.0379
      2 C          -1.7787    2.0187   -0.1767 C.3     1  UNL1        0.0996
      3 N          -0.9349    2.0675    0.9776 N.am    1  UNL1       -0.2888
      4 C          -1.3111    2.5994    2.3007 C.3     1  UNL1        0.0174
      5 C          -0.5427    1.7280    3.2758 C.3     1  UNL1       -0.0116
      6 C           0.6327    1.1587    2.5517 C.3     1  UNL1        0.1064
      7 N           1.9108    1.4539    3.1132 N.3     1  UNL1       -0.1767
      8 S           2.8444    0.0419    3.4401 S.O2    1  UNL1        0.0745
      9 O           4.1787    0.4420    3.9572 O.2     1  UNL1       -0.1516
     10 O           2.1219   -0.9263    4.3113 O.2     1  UNL1       -0.1516
     11 C           3.0926   -0.7460    1.8802 C.ar    1  UNL1        0.1731
     12 C           2.3147   -1.6984    1.2476 C.ar    1  UNL1       -0.0093
     13 C           2.9219   -1.9996    0.0477 C.ar    1  UNL1        0.0030
     14 C           4.0749   -1.2416   -0.0741 C.ar    1  UNL1        0.0480
     15 N           4.1198   -0.5142    1.0523 N.ar    1  UNL1       -0.3388
     16 C           4.8505   -1.3755   -1.1999 C.ar    1  UNL1       -0.0364
     17 C           4.4737   -2.2668   -2.2031 C.ar    1  UNL1       -0.0414
     18 C           3.3308   -3.0265   -2.0957 C.ar    1  UNL1        0.0417
     19 CL          2.9163   -4.1277   -3.3953 Cl      1  UNL1       -0.0835
     20 C           2.5642   -2.8797   -0.9599 C.ar    1  UNL1       -0.0342
     21 C           0.4329    1.6360    1.1587 C.2     1  UNL1        0.2349
     22 O           1.2687    1.7001    0.1889 O.2     1  UNL1       -0.2738
     23 C          -2.0233    0.6310   -0.5922 C.2     1  UNL1        0.2360
     24 O          -1.3026    0.2490    0.3689 O.2     1  UNL1       -0.2736
     25 N          -2.6897   -0.1491   -1.5481 N.am    1  UNL1       -0.2956
     26 C          -3.4634    0.5327   -2.5647 C.3     1  UNL1        0.0382
     27 C          -4.4690   -0.3947   -3.1552 C.3     1  UNL1        0.0635
     28 O          -4.1333   -1.7248   -3.1578 O.3     1  UNL1       -0.3767
     29 C          -3.7842   -2.2131   -1.9104 C.3     1  UNL1        0.0635
     30 C          -2.5101   -1.5809   -1.3881 C.3     1  UNL1        0.0382
     31 H          -1.9910    3.4597   -1.7761 H       1  UNL1        0.0252
     32 H          -0.6055    2.2609   -1.9761 H       1  UNL1        0.0252
     33 H          -0.5084    3.6081   -0.7886 H       1  UNL1        0.0252
     34 H          -2.7857    2.4581    0.0804 H       1  UNL1        0.0594
     35 H          -2.3854    2.6291    2.4619 H       1  UNL1        0.0465
     36 H          -0.8163    3.5934    2.3361 H       1  UNL1        0.0465
     37 H          -1.2499    0.9028    3.5775 H       1  UNL1        0.0301
     38 H          -0.2171    2.3208    4.1638 H       1  UNL1        0.0301
     39 H           0.5734    0.0324    2.4784 H       1  UNL1        0.0573
     40 H           2.4483    2.0364    2.4338 H       1  UNL1        0.1489
     41 H           1.4035   -2.0819    1.6918 H       1  UNL1        0.0659
     42 H           4.8852    0.1642    1.2547 H       1  UNL1        0.1672
     43 H           5.7223   -0.7408   -1.1921 H       1  UNL1        0.0639
     44 H           5.1455   -2.2973   -3.0389 H       1  UNL1        0.0633
     45 H           1.6533   -3.4746   -0.8570 H       1  UNL1        0.0639
     46 H          -4.0451    1.3337   -2.0278 H       1  UNL1        0.0487
     47 H          -2.8250    1.0414   -3.3121 H       1  UNL1        0.0487
     48 H          -5.5164   -0.2262   -2.7716 H       1  UNL1        0.0575
     49 H          -4.5565   -0.1062   -4.2442 H       1  UNL1        0.0575
     50 H          -3.5879   -3.2976   -2.0128 H       1  UNL1        0.0575
     51 H          -4.6192   -2.1105   -1.1784 H       1  UNL1        0.0575
     52 H          -2.3520   -1.8579   -0.3301 H       1  UNL1        0.0487
     53 H          -1.6741   -1.9204   -2.0403 H       1  UNL1        0.0487
@<TRIPOS>BOND
     1     1     2    1
     2     2     3    1
     3     3     4    1
     4     4     5    1
     5     5     6    1
     6     6     7    1
     7     7     8    1
     8     8     9    2
     9     8    10    2
    10     8    11    1
    11    11    12   ar
    12    12    13   ar
    13    13    14   ar
    14    14    15   ar
    15    14    16   ar
    16    16    17   ar
    17    17    18   ar
    18    18    19    1
    19    18    20   ar
    20     6    21    1
    21    21    22    2
    22     2    23    1
    23    23    24    2
    24    23    25   am
    25    25    26    1
    26    26    27    1
    27    27    28    1
    28    28    29    1
    29    29    30    1
    30    21     3   am
    31    30    25    1
    32    15    11   ar
    33    20    13   ar
    34     1    31    1
    35     1    32    1
    36     1    33    1
    37     2    34    1
    38     4    35    1
    39     4    36    1
    40     5    37    1
    41     5    38    1
    42     6    39    1
    43     7    40    1
    44    12    41    1
    45    15    42    1
    46    16    43    1
    47    17    44    1
    48    20    45    1
    49    26    46    1
    50    26    47    1
    51    27    48    1
    52    27    49    1
    53    29    50    1
    54    29    51    1
    55    30    52    1
    56    30    53    1
