
     RDKit          3D

 32 35  0  0  0  0  0  0  0  0999 V2000
    5.8307    1.0392    0.0640 C   0  0  0  0  0  0  0  0  0  0  0  0
    5.3742   -0.2933    0.1689 O   0  0  0  0  0  0  0  0  0  0  0  0
    4.0110   -0.5223    0.1851 C   0  0  0  0  0  0  0  0  0  0  0  0
    3.5611   -1.8426    0.2891 C   0  0  0  0  0  0  0  0  0  0  0  0
    2.1965   -2.0315    0.3021 C   0  0  0  0  0  0  0  0  0  0  0  0
    1.2904   -0.9997    0.2189 C   0  0  0  0  0  0  0  0  0  0  0  0
   -0.0920   -0.9655    0.2142 C   0  0  0  0  0  0  0  0  0  0  0  0
   -0.4620    0.3582    0.1087 C   0  0  0  0  0  0  0  0  0  0  0  0
   -1.8457    0.8716    0.0660 C   0  0  0  0  0  0  0  0  0  0  0  0
   -2.2428    2.1328   -0.0345 N   0  0  0  0  0  0  0  0  0  0  0  0
   -3.5565    2.2108   -0.0426 N   0  0  0  0  0  0  0  0  0  0  0  0
   -4.0479    0.9551    0.0562 C   0  0  0  0  0  0  0  0  0  0  0  0
   -5.3529    0.4832    0.0918 C   0  0  0  0  0  0  0  0  0  0  0  0
   -5.5156   -0.8808    0.1997 C   0  0  0  0  0  0  0  0  0  0  0  0
   -4.4334   -1.7297    0.2685 C   0  0  0  0  0  0  0  0  0  0  0  0
   -3.1778   -1.2491    0.2322 N   0  0  0  0  0  0  0  0  0  0  0  0
   -2.9720    0.0964    0.1259 C   0  0  0  0  0  0  0  0  0  0  0  0
    0.6663    1.0762    0.0535 N   0  0  0  0  0  0  0  0  0  0  0  0
    1.7509    0.2999    0.1166 C   0  0  0  0  0  0  0  0  0  0  0  0
    3.1254    0.5268    0.1006 C   0  0  0  0  0  0  0  0  0  0  0  0
    6.9301    1.1165    0.2215 H   0  0  0  0  0  0  0  0  0  0  0  0
    5.2881    1.6158    0.8698 H   0  0  0  0  0  0  0  0  0  0  0  0
    5.5292    1.4374   -0.9400 H   0  0  0  0  0  0  0  0  0  0  0  0
    4.2653   -2.6732    0.3559 H   0  0  0  0  0  0  0  0  0  0  0  0
    1.8475   -3.0610    0.3832 H   0  0  0  0  0  0  0  0  0  0  0  0
   -0.7135   -1.8463    0.2831 H   0  0  0  0  0  0  0  0  0  0  0  0
   -4.1235    3.0925   -0.1133 H   0  0  0  0  0  0  0  0  0  0  0  0
   -6.1608    1.1960    0.0341 H   0  0  0  0  0  0  0  0  0  0  0  0
   -6.5186   -1.2791    0.2298 H   0  0  0  0  0  0  0  0  0  0  0  0
   -4.5746   -2.8174    0.3545 H   0  0  0  0  0  0  0  0  0  0  0  0
    0.6879    2.1233   -0.0295 H   0  0  0  0  0  0  0  0  0  0  0  0
    3.4348    1.5600    0.0191 H   0  0  0  0  0  0  0  0  0  0  0  0
  1  2  1  0
  2  3  1  0
  3  4  2  0
  4  5  1  0
  5  6  2  0
  6  7  1  0
  7  8  2  0
  8  9  1  0
  9 10  2  0
 10 11  1  0
 11 12  1  0
 12 13  2  0
 13 14  1  0
 14 15  2  0
 15 16  1  0
 16 17  2  0
  8 18  1  0
 18 19  1  0
 19 20  2  0
 20  3  1  0
 19  6  1  0
 17  9  1  0
 17 12  1  0
  1 21  1  0
  1 22  1  0
  1 23  1  0
  4 24  1  0
  5 25  1  0
  7 26  1  0
 11 27  1  0
 13 28  1  0
 14 29  1  0
 15 30  1  0
 18 31  1  0
 20 32  1  0
M  END
$$$$
