@<TRIPOS>MOLECULE
*****
 32 35 0 0 0
SMALL
GASTEIGER

@<TRIPOS>ATOM
      1 C           5.8307    1.0392    0.0640 C.3     1  UNL1        0.0788
      2 O           5.3742   -0.2933    0.1689 O.3     1  UNL1       -0.4950
      3 C           4.0110   -0.5223    0.1851 C.ar    1  UNL1        0.1221
      4 C           3.5611   -1.8426    0.2891 C.ar    1  UNL1       -0.0193
      5 C           2.1965   -2.0315    0.3021 C.ar    1  UNL1       -0.0491
      6 C           1.2904   -0.9997    0.2189 C.ar    1  UNL1        0.0005
      7 C          -0.0920   -0.9655    0.2142 C.ar    1  UNL1       -0.0270
      8 C          -0.4620    0.3582    0.1087 C.ar    1  UNL1        0.0698
      9 C          -1.8457    0.8716    0.0660 C.ar    1  UNL1        0.1345
     10 N          -2.2428    2.1328   -0.0345 N.ar    1  UNL1       -0.1696
     11 N          -3.5565    2.2108   -0.0426 N.ar    1  UNL1       -0.2748
     12 C          -4.0479    0.9551    0.0562 C.ar    1  UNL1        0.0847
     13 C          -5.3529    0.4832    0.0918 C.ar    1  UNL1       -0.0333
     14 C          -5.5156   -0.8808    0.1997 C.ar    1  UNL1       -0.0416
     15 C          -4.4334   -1.7297    0.2685 C.ar    1  UNL1        0.0285
     16 N          -3.1778   -1.2491    0.2322 N.ar    1  UNL1       -0.2512
     17 C          -2.9720    0.0964    0.1259 C.ar    1  UNL1        0.1175
     18 N           0.6663    1.0762    0.0535 N.ar    1  UNL1       -0.3528
     19 C           1.7509    0.2999    0.1166 C.ar    1  UNL1        0.0504
     20 C           3.1254    0.5268    0.1006 C.ar    1  UNL1        0.0040
     21 H           6.9301    1.1165    0.2215 H       1  UNL1        0.0660
     22 H           5.2881    1.6158    0.8698 H       1  UNL1        0.0660
     23 H           5.5292    1.4374   -0.9400 H       1  UNL1        0.0660
     24 H           4.2653   -2.6732    0.3559 H       1  UNL1        0.0654
     25 H           1.8475   -3.0610    0.3832 H       1  UNL1        0.0625
     26 H          -0.7135   -1.8463    0.2831 H       1  UNL1        0.0645
     27 H          -4.1235    3.0925   -0.1133 H       1  UNL1        0.1890
     28 H          -6.1608    1.1960    0.0341 H       1  UNL1        0.0640
     29 H          -6.5186   -1.2791    0.2298 H       1  UNL1        0.0633
     30 H          -4.5746   -2.8174    0.3545 H       1  UNL1        0.0830
     31 H           0.6879    2.1233   -0.0295 H       1  UNL1        0.1660
     32 H           3.4348    1.5600    0.0191 H       1  UNL1        0.0675
@<TRIPOS>BOND
     1     1     2    1
     2     2     3    1
     3     3     4   ar
     4     4     5   ar
     5     5     6   ar
     6     6     7   ar
     7     7     8   ar
     8     8     9    1
     9     9    10   ar
    10    10    11   ar
    11    11    12   ar
    12    12    13   ar
    13    13    14   ar
    14    14    15   ar
    15    15    16   ar
    16    16    17   ar
    17     8    18   ar
    18    18    19   ar
    19    19    20   ar
    20    20     3   ar
    21    19     6   ar
    22    17     9   ar
    23    17    12   ar
    24     1    21    1
    25     1    22    1
    26     1    23    1
    27     4    24    1
    28     5    25    1
    29     7    26    1
    30    11    27    1
    31    13    28    1
    32    14    29    1
    33    15    30    1
    34    18    31    1
    35    20    32    1
