
     RDKit          3D

 68 71  0  0  0  0  0  0  0  0999 V2000
   -2.5310    0.2089    0.8038 C   0  0  1  0  0  0  0  0  0  0  0  0
   -2.4279   -0.6868    2.0268 C   0  0  0  0  0  0  0  0  0  0  0  0
   -0.9298   -0.7832    2.3208 C   0  0  0  0  0  0  0  0  0  0  0  0
   -0.3328   -0.1385    1.1357 C   0  0  1  0  0  0  0  0  0  0  0  0
    1.0269   -0.5667    0.7469 C   0  0  2  0  0  0  0  0  0  0  0  0
    1.9453   -0.2165    1.9266 C   0  0  1  0  0  0  0  0  0  0  0  0
    1.5645   -0.8855    3.0915 O   0  0  0  0  0  0  0  0  0  0  0  0
    3.2728   -0.8258    1.5222 C   0  0  0  0  0  0  0  0  0  0  0  0
    3.8340   -0.3185    0.2533 C   0  0  2  0  0  0  0  0  0  0  0  0
    4.7919    0.8221    0.6257 C   0  0  0  0  0  0  0  0  0  0  0  0
    5.6202    0.9773   -0.6341 C   0  0  2  0  0  0  0  0  0  0  0  0
    6.7426    1.7671   -0.4158 O   0  0  0  0  0  0  0  0  0  0  0  0
    4.7133    1.6736   -1.6071 C   0  0  0  0  0  0  0  0  0  0  0  0
    3.3448    1.1495   -1.7428 C   0  0  0  0  0  0  0  0  0  0  0  0
    2.9029    0.0447   -0.8306 C   0  0  1  0  0  0  0  0  0  0  0  0
    2.7336   -1.1944   -1.7189 C   0  0  0  0  0  0  0  0  0  0  0  0
    1.4928    0.3351   -0.3579 C   0  0  1  0  0  0  0  0  0  0  0  0
    0.5014    0.2280   -1.4907 C   0  0  0  0  0  0  0  0  0  0  0  0
   -0.8432    0.7664   -0.9856 C   0  0  0  0  0  0  0  0  0  0  0  0
   -1.3668   -0.2156    0.0158 C   0  0  2  0  0  0  0  0  0  0  0  0
   -1.4210   -1.5990   -0.5770 C   0  0  0  0  0  0  0  0  0  0  0  0
   -3.8757    0.2880    0.2339 C   0  0  2  0  0  0  0  0  0  0  0  0
   -4.8482    0.8405    1.2677 C   0  0  0  0  0  0  0  0  0  0  0  0
   -4.4924   -0.9288   -0.3264 C   0  0  0  0  0  0  0  0  0  0  0  0
   -5.8769   -0.6590   -0.8658 C   0  0  0  0  0  0  0  0  0  0  0  0
   -5.9090    0.3432   -1.9686 C   0  0  0  0  0  0  0  0  0  0  0  0
   -7.2385    0.5433   -2.3914 O   0  0  0  0  0  0  0  0  0  0  0  0
   -5.0049    1.0196   -2.5713 O   0  0  0  0  0  0  0  0  0  0  0  0
   -2.2703    1.2112    1.2149 H   0  0  0  0  0  0  0  0  0  0  0  0
   -2.7506   -1.7217    1.8139 H   0  0  0  0  0  0  0  0  0  0  0  0
   -2.8919   -0.2568    2.9252 H   0  0  0  0  0  0  0  0  0  0  0  0
   -0.5775   -1.8158    2.4379 H   0  0  0  0  0  0  0  0  0  0  0  0
   -0.6618   -0.1924    3.2454 H   0  0  0  0  0  0  0  0  0  0  0  0
   -0.2618    0.9681    1.3543 H   0  0  0  0  0  0  0  0  0  0  0  0
    1.1886   -1.6317    0.6012 H   0  0  0  0  0  0  0  0  0  0  0  0
    1.9970    0.8737    2.0650 H   0  0  0  0  0  0  0  0  0  0  0  0
    1.8535   -0.3307    3.8538 H   0  0  0  0  0  0  0  0  0  0  0  0
    3.1174   -1.9299    1.4796 H   0  0  0  0  0  0  0  0  0  0  0  0
    3.9607   -0.6308    2.3689 H   0  0  0  0  0  0  0  0  0  0  0  0
    4.5373   -1.1190   -0.1241 H   0  0  0  0  0  0  0  0  0  0  0  0
    4.1493    1.7065    0.7830 H   0  0  0  0  0  0  0  0  0  0  0  0
    5.3749    0.5065    1.4990 H   0  0  0  0  0  0  0  0  0  0  0  0
    5.9145   -0.0438   -0.9857 H   0  0  0  0  0  0  0  0  0  0  0  0
    7.4864    1.1459   -0.1973 H   0  0  0  0  0  0  0  0  0  0  0  0
    5.2814    1.6664   -2.5846 H   0  0  0  0  0  0  0  0  0  0  0  0
    4.7449    2.7562   -1.3156 H   0  0  0  0  0  0  0  0  0  0  0  0
    2.6463    2.0335   -1.6247 H   0  0  0  0  0  0  0  0  0  0  0  0
    3.1840    0.8978   -2.8355 H   0  0  0  0  0  0  0  0  0  0  0  0
    2.2608   -0.9155   -2.6903 H   0  0  0  0  0  0  0  0  0  0  0  0
    2.2561   -2.0324   -1.2130 H   0  0  0  0  0  0  0  0  0  0  0  0
    3.7763   -1.5355   -1.9643 H   0  0  0  0  0  0  0  0  0  0  0  0
    1.4883    1.3640    0.0151 H   0  0  0  0  0  0  0  0  0  0  0  0
    0.3654   -0.7876   -1.8666 H   0  0  0  0  0  0  0  0  0  0  0  0
    0.7738    0.8602   -2.3566 H   0  0  0  0  0  0  0  0  0  0  0  0
   -0.6899    1.7275   -0.4746 H   0  0  0  0  0  0  0  0  0  0  0  0
   -1.4608    0.9239   -1.8633 H   0  0  0  0  0  0  0  0  0  0  0  0
   -1.5922   -1.5596   -1.6859 H   0  0  0  0  0  0  0  0  0  0  0  0
   -2.1061   -2.2787   -0.0627 H   0  0  0  0  0  0  0  0  0  0  0  0
   -0.4298   -2.1405   -0.5258 H   0  0  0  0  0  0  0  0  0  0  0  0
   -3.8751    1.0576   -0.5655 H   0  0  0  0  0  0  0  0  0  0  0  0
   -4.3744    1.6486    1.8717 H   0  0  0  0  0  0  0  0  0  0  0  0
   -5.1931    0.0964    2.0002 H   0  0  0  0  0  0  0  0  0  0  0  0
   -5.7523    1.2891    0.8300 H   0  0  0  0  0  0  0  0  0  0  0  0
   -3.9305   -1.2686   -1.2459 H   0  0  0  0  0  0  0  0  0  0  0  0
   -4.6230   -1.7636    0.3889 H   0  0  0  0  0  0  0  0  0  0  0  0
   -6.5843   -0.3574   -0.0379 H   0  0  0  0  0  0  0  0  0  0  0  0
   -6.3558   -1.5757   -1.2707 H   0  0  0  0  0  0  0  0  0  0  0  0
   -7.3645    1.1654   -3.1792 H   0  0  0  0  0  0  0  0  0  0  0  0
  1  2  1  0
  2  3  1  0
  3  4  1  0
  4  5  1  0
  5  6  1  0
  6  7  1  0
  6  8  1  0
  8  9  1  0
  9 10  1  0
 10 11  1  0
 11 12  1  0
 11 13  1  0
 13 14  1  0
 14 15  1  0
 15 16  1  6
 15 17  1  0
 17 18  1  0
 18 19  1  0
 19 20  1  0
 20 21  1  6
  1 22  1  0
 22 23  1  0
 22 24  1  0
 24 25  1  0
 25 26  1  0
 26 27  1  0
 26 28  2  0
 20  1  1  0
 20  4  1  0
 17  5  1  0
 15  9  1  0
  1 29  1  1
  2 30  1  0
  2 31  1  0
  3 32  1  0
  3 33  1  0
  4 34  1  1
  5 35  1  6
  6 36  1  1
  7 37  1  0
  8 38  1  0
  8 39  1  0
  9 40  1  6
 10 41  1  0
 10 42  1  0
 11 43  1  6
 12 44  1  0
 13 45  1  0
 13 46  1  0
 14 47  1  0
 14 48  1  0
 16 49  1  0
 16 50  1  0
 16 51  1  0
 17 52  1  1
 18 53  1  0
 18 54  1  0
 19 55  1  0
 19 56  1  0
 21 57  1  0
 21 58  1  0
 21 59  1  0
 22 60  1  6
 23 61  1  0
 23 62  1  0
 23 63  1  0
 24 64  1  0
 24 65  1  0
 25 66  1  0
 25 67  1  0
 27 68  1  0
M  END
$$$$
