@<TRIPOS>MOLECULE
*****
 68 71 0 0 0
SMALL
GASTEIGER

@<TRIPOS>ATOM
      1 C          -2.5310    0.2089    0.8038 C.3     1  UNL1       -0.0328
      2 C          -2.4279   -0.6868    2.0268 C.3     1  UNL1       -0.0492
      3 C          -0.9298   -0.7832    2.3208 C.3     1  UNL1       -0.0491
      4 C          -0.3328   -0.1385    1.1357 C.3     1  UNL1       -0.0299
      5 C           1.0269   -0.5667    0.7469 C.3     1  UNL1       -0.0083
      6 C           1.9453   -0.2165    1.9266 C.3     1  UNL1        0.0589
      7 O           1.5645   -0.8855    3.0915 O.3     1  UNL1       -0.3915
      8 C           3.2728   -0.8258    1.5222 C.3     1  UNL1       -0.0232
      9 C           3.8340   -0.3185    0.2533 C.3     1  UNL1       -0.0307
     10 C           4.7919    0.8221    0.6257 C.3     1  UNL1       -0.0234
     11 C           5.6202    0.9773   -0.6341 C.3     1  UNL1        0.0555
     12 O           6.7426    1.7671   -0.4158 O.3     1  UNL1       -0.3918
     13 C           4.7133    1.6736   -1.6071 C.3     1  UNL1       -0.0263
     14 C           3.3448    1.1495   -1.7428 C.3     1  UNL1       -0.0448
     15 C           2.9029    0.0447   -0.8306 C.3     1  UNL1       -0.0258
     16 C           2.7336   -1.1944   -1.7189 C.3     1  UNL1       -0.0590
     17 C           1.4928    0.3351   -0.3579 C.3     1  UNL1       -0.0299
     18 C           0.5014    0.2280   -1.4907 C.3     1  UNL1       -0.0489
     19 C          -0.8432    0.7664   -0.9856 C.3     1  UNL1       -0.0468
     20 C          -1.3668   -0.2156    0.0158 C.3     1  UNL1       -0.0258
     21 C          -1.4210   -1.5990   -0.5770 C.3     1  UNL1       -0.0590
     22 C          -3.8757    0.2880    0.2339 C.3     1  UNL1       -0.0400
     23 C          -4.8482    0.8405    1.2677 C.3     1  UNL1       -0.0621
     24 C          -4.4924   -0.9288   -0.3264 C.3     1  UNL1       -0.0401
     25 C          -5.8769   -0.6590   -0.8658 C.3     1  UNL1        0.0450
     26 C          -5.9090    0.3432   -1.9686 C.2     1  UNL1        0.3047
     27 O          -7.2385    0.5433   -2.3914 O.3     1  UNL1       -0.4806
     28 O          -5.0049    1.0196   -2.5713 O.2     1  UNL1       -0.2510
     29 H          -2.2703    1.2112    1.2149 H       1  UNL1        0.0309
     30 H          -2.7506   -1.7217    1.8139 H       1  UNL1        0.0268
     31 H          -2.8919   -0.2568    2.9252 H       1  UNL1        0.0268
     32 H          -0.5775   -1.8158    2.4379 H       1  UNL1        0.0268
     33 H          -0.6618   -0.1924    3.2454 H       1  UNL1        0.0268
     34 H          -0.2618    0.9681    1.3543 H       1  UNL1        0.0310
     35 H           1.1886   -1.6317    0.6012 H       1  UNL1        0.0331
     36 H           1.9970    0.8737    2.0650 H       1  UNL1        0.0596
     37 H           1.8535   -0.3307    3.8538 H       1  UNL1        0.2098
     38 H           3.1174   -1.9299    1.4796 H       1  UNL1        0.0293
     39 H           3.9607   -0.6308    2.3689 H       1  UNL1        0.0293
     40 H           4.5373   -1.1190   -0.1241 H       1  UNL1        0.0308
     41 H           4.1493    1.7065    0.7830 H       1  UNL1        0.0293
     42 H           5.3749    0.5065    1.4990 H       1  UNL1        0.0293
     43 H           5.9145   -0.0438   -0.9857 H       1  UNL1        0.0593
     44 H           7.4864    1.1459   -0.1973 H       1  UNL1        0.2098
     45 H           5.2814    1.6664   -2.5846 H       1  UNL1        0.0290
     46 H           4.7449    2.7562   -1.3156 H       1  UNL1        0.0290
     47 H           2.6463    2.0335   -1.6247 H       1  UNL1        0.0271
     48 H           3.1840    0.8978   -2.8355 H       1  UNL1        0.0271
     49 H           2.2608   -0.9155   -2.6903 H       1  UNL1        0.0235
     50 H           2.2561   -2.0324   -1.2130 H       1  UNL1        0.0235
     51 H           3.7763   -1.5355   -1.9643 H       1  UNL1        0.0235
     52 H           1.4883    1.3640    0.0151 H       1  UNL1        0.0310
     53 H           0.3654   -0.7876   -1.8666 H       1  UNL1        0.0268
     54 H           0.7738    0.8602   -2.3566 H       1  UNL1        0.0268
     55 H          -0.6899    1.7275   -0.4746 H       1  UNL1        0.0271
     56 H          -1.4608    0.9239   -1.8633 H       1  UNL1        0.0271
     57 H          -1.5922   -1.5596   -1.6859 H       1  UNL1        0.0235
     58 H          -2.1061   -2.2787   -0.0627 H       1  UNL1        0.0235
     59 H          -0.4298   -2.1405   -0.5258 H       1  UNL1        0.0235
     60 H          -3.8751    1.0576   -0.5655 H       1  UNL1        0.0301
     61 H          -4.3744    1.6486    1.8717 H       1  UNL1        0.0233
     62 H          -5.1931    0.0964    2.0002 H       1  UNL1        0.0233
     63 H          -5.7523    1.2891    0.8300 H       1  UNL1        0.0233
     64 H          -3.9305   -1.2686   -1.2459 H       1  UNL1        0.0273
     65 H          -4.6230   -1.7636    0.3889 H       1  UNL1        0.0273
     66 H          -6.5843   -0.3574   -0.0379 H       1  UNL1        0.0378
     67 H          -6.3558   -1.5757   -1.2707 H       1  UNL1        0.0378
     68 H          -7.3645    1.1654   -3.1792 H       1  UNL1        0.2951
@<TRIPOS>BOND
     1     1     2    1
     2     2     3    1
     3     3     4    1
     4     4     5    1
     5     5     6    1
     6     6     7    1
     7     6     8    1
     8     8     9    1
     9     9    10    1
    10    10    11    1
    11    11    12    1
    12    11    13    1
    13    13    14    1
    14    14    15    1
    15    15    16    1
    16    15    17    1
    17    17    18    1
    18    18    19    1
    19    19    20    1
    20    20    21    1
    21     1    22    1
    22    22    23    1
    23    22    24    1
    24    24    25    1
    25    25    26    1
    26    26    27    1
    27    26    28    2
    28    20     1    1
    29    20     4    1
    30    17     5    1
    31    15     9    1
    32     1    29    1
    33     2    30    1
    34     2    31    1
    35     3    32    1
    36     3    33    1
    37     4    34    1
    38     5    35    1
    39     6    36    1
    40     7    37    1
    41     8    38    1
    42     8    39    1
    43     9    40    1
    44    10    41    1
    45    10    42    1
    46    11    43    1
    47    12    44    1
    48    13    45    1
    49    13    46    1
    50    14    47    1
    51    14    48    1
    52    16    49    1
    53    16    50    1
    54    16    51    1
    55    17    52    1
    56    18    53    1
    57    18    54    1
    58    19    55    1
    59    19    56    1
    60    21    57    1
    61    21    58    1
    62    21    59    1
    63    22    60    1
    64    23    61    1
    65    23    62    1
    66    23    63    1
    67    24    64    1
    68    24    65    1
    69    25    66    1
    70    25    67    1
    71    27    68    1
