
     RDKit          3D

 57 61  0  0  0  0  0  0  0  0999 V2000
   10.1826   -1.3168   -0.4105 C   0  0  0  0  0  0  0  0  0  0  0  0
    8.7893   -1.7046   -0.0732 C   0  0  0  0  0  0  0  0  0  0  0  0
    8.3990   -2.7656    0.6418 N   0  0  0  0  0  0  0  0  0  0  0  0
    7.0605   -2.7256    0.6972 C   0  0  0  0  0  0  0  0  0  0  0  0
    6.6046   -1.6535    0.0263 N   0  0  0  0  0  0  0  0  0  0  0  0
    5.2711   -1.2011   -0.1872 C   0  0  0  0  0  0  0  0  0  0  0  0
    4.9205    0.1194   -0.0835 C   0  0  0  0  0  0  0  0  0  0  0  0
    3.6063    0.5797   -0.2912 C   0  0  0  0  0  0  0  0  0  0  0  0
    3.3078    2.3059   -0.1726 Cl  0  0  0  0  0  0  0  0  0  0  0  0
    2.5920   -0.2762   -0.6109 C   0  0  0  0  0  0  0  0  0  0  0  0
    1.2113    0.0985   -0.7912 C   0  0  0  0  0  0  0  0  0  0  0  0
    0.4795   -0.7550   -1.4141 O   0  0  0  0  0  0  0  0  0  0  0  0
    0.5439    1.2585   -0.3827 N   0  0  0  0  0  0  0  0  0  0  0  0
   -0.8595    1.5229   -0.6301 C   0  0  0  0  0  0  0  0  0  0  0  0
   -1.7928    0.5311   -0.0221 C   0  0  1  0  0  0  0  0  0  0  0  0
   -1.7179    0.4182    1.4439 C   0  0  0  0  0  0  0  0  0  0  0  0
   -1.3968    1.4891    2.2496 C   0  0  0  0  0  0  0  0  0  0  0  0
   -1.3504    1.2918    3.6106 C   0  0  0  0  0  0  0  0  0  0  0  0
   -1.6090    0.0785    4.2028 C   0  0  0  0  0  0  0  0  0  0  0  0
   -1.9329   -1.0050    3.4018 C   0  0  0  0  0  0  0  0  0  0  0  0
   -2.1976   -2.2221    3.9296 F   0  0  0  0  0  0  0  0  0  0  0  0
   -1.9765   -0.7957    2.0388 C   0  0  0  0  0  0  0  0  0  0  0  0
   -3.1865    0.9026   -0.4125 C   0  0  0  0  0  0  0  0  0  0  0  0
   -3.6748    2.1856   -0.3256 C   0  0  0  0  0  0  0  0  0  0  0  0
   -4.9893    2.4791   -0.7105 C   0  0  0  0  0  0  0  0  0  0  0  0
   -5.8368    1.5070   -1.1858 C   0  0  0  0  0  0  0  0  0  0  0  0
   -7.1220    1.5102   -1.6177 N   0  0  0  0  0  0  0  0  0  0  0  0
   -7.4645    0.2580   -1.9779 C   0  0  0  0  0  0  0  0  0  0  0  0
   -8.8052   -0.1505   -2.5090 C   0  0  0  0  0  0  0  0  0  0  0  0
   -6.3886   -0.5125   -1.7666 N   0  0  0  0  0  0  0  0  0  0  0  0
   -5.3558    0.2195   -1.2758 C   0  0  0  0  0  0  0  0  0  0  0  0
   -4.0652   -0.0722   -0.8987 C   0  0  0  0  0  0  0  0  0  0  0  0
    2.9717   -1.6293   -0.7138 C   0  0  0  0  0  0  0  0  0  0  0  0
    1.6800   -2.7608   -1.1242 Cl  0  0  0  0  0  0  0  0  0  0  0  0
    4.2542   -2.0684   -0.5105 C   0  0  0  0  0  0  0  0  0  0  0  0
    7.6769   -1.0467   -0.4343 N   0  0  0  0  0  0  0  0  0  0  0  0
   10.3014   -0.2234   -0.4830 H   0  0  0  0  0  0  0  0  0  0  0  0
   10.5209   -1.8107   -1.3437 H   0  0  0  0  0  0  0  0  0  0  0  0
   10.8215   -1.6850    0.4339 H   0  0  0  0  0  0  0  0  0  0  0  0
    6.4514   -3.4445    1.2026 H   0  0  0  0  0  0  0  0  0  0  0  0
    5.6782    0.8406    0.1674 H   0  0  0  0  0  0  0  0  0  0  0  0
    1.0541    1.9780    0.1479 H   0  0  0  0  0  0  0  0  0  0  0  0
   -1.1333    2.5360   -0.2833 H   0  0  0  0  0  0  0  0  0  0  0  0
   -1.0813    1.5265   -1.7334 H   0  0  0  0  0  0  0  0  0  0  0  0
   -1.6072   -0.4830   -0.4812 H   0  0  0  0  0  0  0  0  0  0  0  0
   -1.1812    2.4810    1.8251 H   0  0  0  0  0  0  0  0  0  0  0  0
   -1.0948    2.1465    4.2509 H   0  0  0  0  0  0  0  0  0  0  0  0
   -1.5702   -0.0712    5.2863 H   0  0  0  0  0  0  0  0  0  0  0  0
   -2.2378   -1.6845    1.4436 H   0  0  0  0  0  0  0  0  0  0  0  0
   -3.0394    2.9839    0.0495 H   0  0  0  0  0  0  0  0  0  0  0  0
   -5.3359    3.4930   -0.6288 H   0  0  0  0  0  0  0  0  0  0  0  0
   -7.7638    2.3319   -1.6729 H   0  0  0  0  0  0  0  0  0  0  0  0
   -8.8829    0.0062   -3.5874 H   0  0  0  0  0  0  0  0  0  0  0  0
   -8.9772   -1.2281   -2.2303 H   0  0  0  0  0  0  0  0  0  0  0  0
   -9.5744    0.4143   -1.9300 H   0  0  0  0  0  0  0  0  0  0  0  0
   -3.6821   -1.0753   -0.9659 H   0  0  0  0  0  0  0  0  0  0  0  0
    4.5050   -3.1261   -0.5998 H   0  0  0  0  0  0  0  0  0  0  0  0
  1  2  1  0
  2  3  1  0
  3  4  2  0
  4  5  1  0
  5  6  1  0
  6  7  2  0
  7  8  1  0
  8  9  1  0
  8 10  2  0
 10 11  1  0
 11 12  2  0
 11 13  1  0
 13 14  1  0
 14 15  1  0
 15 16  1  0
 16 17  2  0
 17 18  1  0
 18 19  2  0
 19 20  1  0
 20 21  1  0
 20 22  2  0
 15 23  1  0
 23 24  2  0
 24 25  1  0
 25 26  2  0
 26 27  1  0
 27 28  1  0
 28 29  1  0
 28 30  2  0
 30 31  1  0
 31 32  2  0
 10 33  1  0
 33 34  1  0
 33 35  2  0
  5 36  1  0
 36  2  2  0
 35  6  1  0
 22 16  1  0
 32 23  1  0
 31 26  1  0
  1 37  1  0
  1 38  1  0
  1 39  1  0
  4 40  1  0
  7 41  1  0
 13 42  1  0
 14 43  1  0
 14 44  1  0
 15 45  1  6
 17 46  1  0
 18 47  1  0
 19 48  1  0
 22 49  1  0
 24 50  1  0
 25 51  1  0
 27 52  1  0
 29 53  1  0
 29 54  1  0
 29 55  1  0
 32 56  1  0
 35 57  1  0
M  END
$$$$
