@<TRIPOS>MOLECULE
*****
 57 61 0 0 0
SMALL
GASTEIGER

@<TRIPOS>ATOM
      1 C          10.1826   -1.3168   -0.4105 C.3     1  UNL1       -0.0028
      2 C           8.7893   -1.7046   -0.0732 C.ar    1  UNL1        0.1483
      3 N           8.3990   -2.7656    0.6418 N.ar    1  UNL1       -0.2193
      4 C           7.0605   -2.7256    0.6972 C.ar    1  UNL1        0.1202
      5 N           6.6046   -1.6535    0.0263 N.ar    1  UNL1       -0.2199
      6 C           5.2711   -1.2011   -0.1872 C.ar    1  UNL1        0.0699
      7 C           4.9205    0.1194   -0.0835 C.ar    1  UNL1       -0.0170
      8 C           3.6063    0.5797   -0.2912 C.ar    1  UNL1        0.0565
      9 CL          3.3078    2.3059   -0.1726 Cl      1  UNL1       -0.0827
     10 C           2.5920   -0.2762   -0.6109 C.ar    1  UNL1        0.0733
     11 C           1.2113    0.0985   -0.7912 C.2     1  UNL1        0.2469
     12 O           0.4795   -0.7550   -1.4141 O.2     1  UNL1       -0.2701
     13 N           0.5439    1.2585   -0.3827 N.am    1  UNL1       -0.3104
     14 C          -0.8595    1.5229   -0.6301 C.3     1  UNL1        0.0227
     15 C          -1.7928    0.5311   -0.0221 C.3     1  UNL1        0.0249
     16 C          -1.7179    0.4182    1.4439 C.ar    1  UNL1       -0.0358
     17 C          -1.3968    1.4891    2.2496 C.ar    1  UNL1       -0.0578
     18 C          -1.3504    1.2918    3.6106 C.ar    1  UNL1       -0.0588
     19 C          -1.6090    0.0785    4.2028 C.ar    1  UNL1       -0.0264
     20 C          -1.9329   -1.0050    3.4018 C.ar    1  UNL1        0.1237
     21 F          -2.1976   -2.2221    3.9296 F       1  UNL1       -0.2055
     22 C          -1.9765   -0.7957    2.0388 C.ar    1  UNL1       -0.0226
     23 C          -3.1865    0.9026   -0.4125 C.ar    1  UNL1       -0.0363
     24 C          -3.6748    2.1856   -0.3256 C.ar    1  UNL1       -0.0559
     25 C          -4.9893    2.4791   -0.7105 C.ar    1  UNL1       -0.0360
     26 C          -5.8368    1.5070   -1.1858 C.ar    1  UNL1        0.0662
     27 N          -7.1220    1.5102   -1.6177 N.ar    1  UNL1       -0.3420
     28 C          -7.4645    0.2580   -1.9779 C.ar    1  UNL1        0.1051
     29 C          -8.8052   -0.1505   -2.5090 C.3     1  UNL1       -0.0064
     30 N          -6.3886   -0.5125   -1.7666 N.ar    1  UNL1       -0.2328
     31 C          -5.3558    0.2195   -1.2758 C.ar    1  UNL1        0.0894
     32 C          -4.0652   -0.0722   -0.8987 C.ar    1  UNL1       -0.0304
     33 C           2.9717   -1.6293   -0.7138 C.ar    1  UNL1        0.0565
     34 CL          1.6800   -2.7608   -1.1242 Cl      1  UNL1       -0.0827
     35 C           4.2542   -2.0684   -0.5105 C.ar    1  UNL1       -0.0170
     36 N           7.6769   -1.0467   -0.4343 N.ar    1  UNL1       -0.1504
     37 H          10.3014   -0.2234   -0.4830 H       1  UNL1        0.0309
     38 H          10.5209   -1.8107   -1.3437 H       1  UNL1        0.0309
     39 H          10.8215   -1.6850    0.4339 H       1  UNL1        0.0309
     40 H           6.4514   -3.4445    1.2026 H       1  UNL1        0.1048
     41 H           5.6782    0.8406    0.1674 H       1  UNL1        0.0654
     42 H           1.0541    1.9780    0.1479 H       1  UNL1        0.1490
     43 H          -1.1333    2.5360   -0.2833 H       1  UNL1        0.0471
     44 H          -1.0813    1.5265   -1.7334 H       1  UNL1        0.0471
     45 H          -1.6072   -0.4830   -0.4812 H       1  UNL1        0.0412
     46 H          -1.1812    2.4810    1.8251 H       1  UNL1        0.0621
     47 H          -1.0948    2.1465    4.2509 H       1  UNL1        0.0619
     48 H          -1.5702   -0.0712    5.2863 H       1  UNL1        0.0646
     49 H          -2.2378   -1.6845    1.4436 H       1  UNL1        0.0649
     50 H          -3.0394    2.9839    0.0495 H       1  UNL1        0.0621
     51 H          -5.3359    3.4930   -0.6288 H       1  UNL1        0.0639
     52 H          -7.7638    2.3319   -1.6729 H       1  UNL1        0.1671
     53 H          -8.8829    0.0062   -3.5874 H       1  UNL1        0.0307
     54 H          -8.9772   -1.2281   -2.2303 H       1  UNL1        0.0307
     55 H          -9.5744    0.4143   -1.9300 H       1  UNL1        0.0307
     56 H          -3.6821   -1.0753   -0.9659 H       1  UNL1        0.0642
     57 H           4.5050   -3.1261   -0.5998 H       1  UNL1        0.0654
@<TRIPOS>BOND
     1     1     2    1
     2     2     3   ar
     3     3     4   ar
     4     4     5   ar
     5     5     6    1
     6     6     7   ar
     7     7     8   ar
     8     8     9    1
     9     8    10   ar
    10    10    11    1
    11    11    12    2
    12    11    13   am
    13    13    14    1
    14    14    15    1
    15    15    16    1
    16    16    17   ar
    17    17    18   ar
    18    18    19   ar
    19    19    20   ar
    20    20    21    1
    21    20    22   ar
    22    15    23    1
    23    23    24   ar
    24    24    25   ar
    25    25    26   ar
    26    26    27   ar
    27    27    28   ar
    28    28    29    1
    29    28    30   ar
    30    30    31   ar
    31    31    32   ar
    32    10    33   ar
    33    33    34    1
    34    33    35   ar
    35     5    36   ar
    36    36     2   ar
    37    35     6   ar
    38    22    16   ar
    39    32    23   ar
    40    31    26   ar
    41     1    37    1
    42     1    38    1
    43     1    39    1
    44     4    40    1
    45     7    41    1
    46    13    42    1
    47    14    43    1
    48    14    44    1
    49    15    45    1
    50    17    46    1
    51    18    47    1
    52    19    48    1
    53    22    49    1
    54    24    50    1
    55    25    51    1
    56    27    52    1
    57    29    53    1
    58    29    54    1
    59    29    55    1
    60    32    56    1
    61    35    57    1
