@<TRIPOS>MOLECULE
*****
 46 49 0 0 0
SMALL
GASTEIGER

@<TRIPOS>ATOM
      1 N           4.3768   -2.6906   -2.0325 N.am    1  UNL1       -0.3241
      2 C           3.2182   -2.0844   -1.5038 C.2     1  UNL1        0.2599
      3 O           2.0970   -2.4512   -1.8941 O.2     1  UNL1       -0.2687
      4 C           3.3522   -1.0414   -0.5128 C.ar    1  UNL1        0.1280
      5 C           4.5528   -0.5307    0.0066 C.ar    1  UNL1        0.0588
      6 N           4.2545    0.4188    0.9053 N.ar    1  UNL1       -0.2353
      7 C           2.9076    0.5445    0.9906 C.ar    1  UNL1        0.1381
      8 C           2.0753    1.3585    1.7423 C.ar    1  UNL1       -0.0182
      9 C           0.6996    1.2742    1.6211 C.ar    1  UNL1       -0.0477
     10 C           0.1508    0.3671    0.7392 C.ar    1  UNL1        0.0173
     11 C          -1.2880    0.3073    0.6024 C.ar    1  UNL1        0.0779
     12 C          -2.0763    1.3213    0.0258 C.ar    1  UNL1        0.0967
     13 C          -1.5605    2.5742   -0.5080 C.ar    1  UNL1        0.0026
     14 C          -0.6585    2.4944   -1.5340 C.ar    1  UNL1       -0.0498
     15 C          -0.1078    3.6209   -2.1033 C.ar    1  UNL1       -0.0258
     16 C          -0.4880    4.8534   -1.6134 C.ar    1  UNL1        0.1234
     17 F           0.0499    5.9779   -2.1695 F       1  UNL1       -0.2055
     18 C          -1.4001    4.9366   -0.5769 C.ar    1  UNL1       -0.0258
     19 C          -1.9351    3.8002   -0.0254 C.ar    1  UNL1       -0.0498
     20 N          -3.3653    0.9778    0.0423 N.ar    1  UNL1       -0.2351
     21 C          -3.4158   -0.2357    0.6191 C.ar    1  UNL1        0.0972
     22 N          -2.1624   -0.6399    0.9572 N.ar    1  UNL1       -0.3268
     23 C          -1.9124   -1.9003    1.6053 C.3     1  UNL1        0.0592
     24 C          -1.6489   -3.0532    0.6961 C.3     1  UNL1        0.1676
     25 O          -1.4399   -4.1794    1.5093 O.3     1  UNL1       -0.3812
     26 C          -2.6992   -3.3334   -0.3185 C.3     1  UNL1        0.4170
     27 F          -2.8500   -2.2276   -1.1279 F       1  UNL1       -0.1679
     28 F          -2.2200   -4.3398   -1.1683 F       1  UNL1       -0.1679
     29 F          -3.8742   -3.7840    0.2105 F       1  UNL1       -0.1679
     30 C           1.0269   -0.4142    0.0200 C.ar    1  UNL1        0.0211
     31 N           2.3725   -0.3443    0.1273 N.ar    1  UNL1       -0.2949
     32 H           5.0022   -3.3232   -1.4753 H       1  UNL1        0.1453
     33 H           4.6610   -2.5244   -3.0284 H       1  UNL1        0.1453
     34 H           5.5172   -0.8952   -0.3186 H       1  UNL1        0.0853
     35 H           2.5017    2.0784    2.4404 H       1  UNL1        0.0654
     36 H           0.0284    1.9084    2.2045 H       1  UNL1        0.0626
     37 H          -0.3359    1.5211   -1.9452 H       1  UNL1        0.0625
     38 H           0.6042    3.5797   -2.9103 H       1  UNL1        0.0646
     39 H          -1.6692    5.9413   -0.2238 H       1  UNL1        0.0646
     40 H          -2.6389    3.8953    0.7747 H       1  UNL1        0.0625
     41 H          -4.3462   -0.7722    0.7699 H       1  UNL1        0.1029
     42 H          -2.8005   -2.1734    2.2542 H       1  UNL1        0.0521
     43 H          -1.0485   -1.8212    2.3286 H       1  UNL1        0.0521
     44 H          -0.6398   -2.8816    0.2186 H       1  UNL1        0.0702
     45 H          -1.5113   -4.9794    0.9108 H       1  UNL1        0.2102
     46 H           0.6440   -1.1305   -0.6868 H       1  UNL1        0.0820
@<TRIPOS>BOND
     1     1     2   am
     2     2     3    2
     3     2     4    1
     4     4     5   ar
     5     5     6   ar
     6     6     7   ar
     7     7     8   ar
     8     8     9   ar
     9     9    10   ar
    10    10    11    1
    11    11    12   ar
    12    12    13    1
    13    13    14   ar
    14    14    15   ar
    15    15    16   ar
    16    16    17    1
    17    16    18   ar
    18    18    19   ar
    19    12    20   ar
    20    20    21   ar
    21    21    22   ar
    22    22    23    1
    23    23    24    1
    24    24    25    1
    25    24    26    1
    26    26    27    1
    27    26    28    1
    28    26    29    1
    29    10    30   ar
    30    30    31   ar
    31    31     4   ar
    32    31     7   ar
    33    22    11   ar
    34    19    13   ar
    35     1    32    1
    36     1    33    1
    37     5    34    1
    38     8    35    1
    39     9    36    1
    40    14    37    1
    41    15    38    1
    42    18    39    1
    43    19    40    1
    44    21    41    1
    45    23    42    1
    46    23    43    1
    47    24    44    1
    48    25    45    1
    49    30    46    1
