
     RDKit          3D

 46 49  0  0  0  0  0  0  0  0999 V2000
    4.3768   -2.6906   -2.0325 N   0  0  0  0  0  0  0  0  0  0  0  0
    3.2182   -2.0844   -1.5038 C   0  0  0  0  0  0  0  0  0  0  0  0
    2.0970   -2.4512   -1.8941 O   0  0  0  0  0  0  0  0  0  0  0  0
    3.3522   -1.0414   -0.5128 C   0  0  0  0  0  0  0  0  0  0  0  0
    4.5528   -0.5307    0.0066 C   0  0  0  0  0  0  0  0  0  0  0  0
    4.2545    0.4188    0.9053 N   0  0  0  0  0  0  0  0  0  0  0  0
    2.9076    0.5445    0.9906 C   0  0  0  0  0  0  0  0  0  0  0  0
    2.0753    1.3585    1.7423 C   0  0  0  0  0  0  0  0  0  0  0  0
    0.6996    1.2742    1.6211 C   0  0  0  0  0  0  0  0  0  0  0  0
    0.1508    0.3671    0.7392 C   0  0  0  0  0  0  0  0  0  0  0  0
   -1.2880    0.3073    0.6024 C   0  0  0  0  0  0  0  0  0  0  0  0
   -2.0763    1.3213    0.0258 C   0  0  0  0  0  0  0  0  0  0  0  0
   -1.5605    2.5742   -0.5080 C   0  0  0  0  0  0  0  0  0  0  0  0
   -0.6585    2.4944   -1.5340 C   0  0  0  0  0  0  0  0  0  0  0  0
   -0.1078    3.6209   -2.1033 C   0  0  0  0  0  0  0  0  0  0  0  0
   -0.4880    4.8534   -1.6134 C   0  0  0  0  0  0  0  0  0  0  0  0
    0.0499    5.9779   -2.1695 F   0  0  0  0  0  0  0  0  0  0  0  0
   -1.4001    4.9366   -0.5769 C   0  0  0  0  0  0  0  0  0  0  0  0
   -1.9351    3.8002   -0.0254 C   0  0  0  0  0  0  0  0  0  0  0  0
   -3.3653    0.9778    0.0423 N   0  0  0  0  0  0  0  0  0  0  0  0
   -3.4158   -0.2357    0.6191 C   0  0  0  0  0  0  0  0  0  0  0  0
   -2.1624   -0.6399    0.9572 N   0  0  0  0  0  0  0  0  0  0  0  0
   -1.9124   -1.9003    1.6053 C   0  0  0  0  0  0  0  0  0  0  0  0
   -1.6489   -3.0532    0.6961 C   0  0  0  0  0  0  0  0  0  0  0  0
   -1.4399   -4.1794    1.5093 O   0  0  0  0  0  0  0  0  0  0  0  0
   -2.6992   -3.3334   -0.3185 C   0  0  0  0  0  0  0  0  0  0  0  0
   -2.8500   -2.2276   -1.1279 F   0  0  0  0  0  0  0  0  0  0  0  0
   -2.2200   -4.3398   -1.1683 F   0  0  0  0  0  0  0  0  0  0  0  0
   -3.8742   -3.7840    0.2105 F   0  0  0  0  0  0  0  0  0  0  0  0
    1.0269   -0.4142    0.0200 C   0  0  0  0  0  0  0  0  0  0  0  0
    2.3725   -0.3443    0.1273 N   0  0  0  0  0  0  0  0  0  0  0  0
    5.0022   -3.3232   -1.4753 H   0  0  0  0  0  0  0  0  0  0  0  0
    4.6610   -2.5244   -3.0284 H   0  0  0  0  0  0  0  0  0  0  0  0
    5.5172   -0.8952   -0.3186 H   0  0  0  0  0  0  0  0  0  0  0  0
    2.5017    2.0784    2.4404 H   0  0  0  0  0  0  0  0  0  0  0  0
    0.0284    1.9084    2.2045 H   0  0  0  0  0  0  0  0  0  0  0  0
   -0.3359    1.5211   -1.9452 H   0  0  0  0  0  0  0  0  0  0  0  0
    0.6042    3.5797   -2.9103 H   0  0  0  0  0  0  0  0  0  0  0  0
   -1.6692    5.9413   -0.2238 H   0  0  0  0  0  0  0  0  0  0  0  0
   -2.6389    3.8953    0.7747 H   0  0  0  0  0  0  0  0  0  0  0  0
   -4.3462   -0.7722    0.7699 H   0  0  0  0  0  0  0  0  0  0  0  0
   -2.8005   -2.1734    2.2542 H   0  0  0  0  0  0  0  0  0  0  0  0
   -1.0485   -1.8212    2.3286 H   0  0  0  0  0  0  0  0  0  0  0  0
   -0.6398   -2.8816    0.2186 H   0  0  0  0  0  0  0  0  0  0  0  0
   -1.5113   -4.9794    0.9108 H   0  0  0  0  0  0  0  0  0  0  0  0
    0.6440   -1.1305   -0.6868 H   0  0  0  0  0  0  0  0  0  0  0  0
  1  2  1  0
  2  3  2  0
  2  4  1  0
  4  5  2  0
  5  6  1  0
  6  7  2  0
  7  8  1  0
  8  9  2  0
  9 10  1  0
 10 11  1  0
 11 12  2  0
 12 13  1  0
 13 14  2  0
 14 15  1  0
 15 16  2  0
 16 17  1  0
 16 18  1  0
 18 19  2  0
 12 20  1  0
 20 21  2  0
 21 22  1  0
 22 23  1  0
 23 24  1  0
 24 25  1  0
 24 26  1  0
 26 27  1  0
 26 28  1  0
 26 29  1  0
 10 30  2  0
 30 31  1  0
 31  4  1  0
 31  7  1  0
 22 11  1  0
 19 13  1  0
  1 32  1  0
  1 33  1  0
  5 34  1  0
  8 35  1  0
  9 36  1  0
 14 37  1  0
 15 38  1  0
 18 39  1  0
 19 40  1  0
 21 41  1  0
 23 42  1  0
 23 43  1  0
 24 44  1  0
 25 45  1  0
 30 46  1  0
M  END
$$$$
