@<TRIPOS>MOLECULE
*****
 46 48 0 0 0
SMALL
GASTEIGER

@<TRIPOS>ATOM
      1 N          -6.9827   -2.5467   -0.8984 N.pl3   1  UNL1       -0.3413
      2 C          -6.3852   -1.2591   -0.7890 C.ar    1  UNL1        0.1472
      3 N          -7.2457   -0.2067   -0.8300 N.ar    1  UNL1       -0.2188
      4 C          -6.7482    1.0608   -0.7311 C.ar    1  UNL1        0.1205
      5 N          -5.4199    1.2183   -0.5965 N.ar    1  UNL1       -0.2159
      6 C          -4.5756    0.1722   -0.5568 C.ar    1  UNL1        0.1673
      7 C          -5.0187   -1.1130   -0.6511 C.ar    1  UNL1        0.1473
      8 N          -3.9995   -1.9650   -0.5868 N.ar    1  UNL1       -0.2306
      9 C          -2.8711   -1.2077   -0.4474 C.ar    1  UNL1        0.1003
     10 N          -3.2304    0.0898   -0.4301 N.ar    1  UNL1       -0.2879
     11 C          -2.3564    1.2479   -0.2992 C.3     1  UNL1        0.1408
     12 C          -2.1933    1.6045    1.1726 C.3     1  UNL1        0.0213
     13 C          -0.6890    1.4971    1.3360 C.3     1  UNL1        0.0877
     14 O          -0.2056    2.3748    2.2915 O.3     1  UNL1       -0.3890
     15 C          -0.2749    1.8889   -0.0682 C.3     1  UNL1        0.1108
     16 C           1.1882    1.6403   -0.3098 C.3     1  UNL1        0.0878
     17 O           1.4405    0.3394    0.1318 O.3     1  UNL1       -0.2837
     18 P           3.0321   -0.1228   -0.0575 P.3     1  UNL1        0.4835
     19 O           3.9784    0.2871    1.3070 O.3     1  UNL1       -0.3022
     20 O           3.7068    0.4793   -1.2475 O.2     1  UNL1       -0.2269
     21 O           3.0673   -1.8300   -0.1150 O.3     1  UNL1       -0.1858
     22 P           4.6919   -2.2620   -0.2470 P.3     1  UNL1        0.4918
     23 O           4.9358   -3.9071    0.0259 O.3     1  UNL1       -0.3019
     24 O           5.0888   -1.9792   -1.6942 O.2     1  UNL1       -0.2265
     25 O           5.5548   -1.2864    0.8129 O.3     1  UNL1       -0.1859
     26 P           6.8700   -0.5296    0.0631 P.3     1  UNL1        0.4808
     27 O           7.1815   -1.2280   -1.4321 O.3     1  UNL1       -0.3023
     28 O           6.6518    1.1430   -0.0395 O.3     1  UNL1       -0.3023
     29 O           8.0851   -0.7738    0.9503 O.2     1  UNL1       -0.2271
     30 O          -1.0826    0.9701   -0.7772 O.3     1  UNL1       -0.3484
     31 H          -7.5190   -3.2995   -0.4131 H       1  UNL1        0.1438
     32 H          -7.0223   -3.1971   -1.7246 H       1  UNL1        0.1438
     33 H          -7.4865    1.8510   -0.7708 H       1  UNL1        0.1048
     34 H          -1.8466   -1.5966   -0.3639 H       1  UNL1        0.1030
     35 H          -2.7478    2.1106   -0.8515 H       1  UNL1        0.0840
     36 H          -2.7263    0.8497    1.7845 H       1  UNL1        0.0335
     37 H          -2.4944    2.6393    1.3758 H       1  UNL1        0.0335
     38 H          -0.3723    0.4565    1.4910 H       1  UNL1        0.0621
     39 H           0.4091    1.8350    2.8657 H       1  UNL1        0.2099
     40 H          -0.6195    2.9009   -0.3218 H       1  UNL1        0.0646
     41 H           1.7360    2.3362    0.3590 H       1  UNL1        0.0592
     42 H           1.4975    1.7941   -1.3430 H       1  UNL1        0.0592
     43 H           3.4041    0.6443    2.0242 H       1  UNL1        0.2220
     44 H           5.5849   -4.0686    0.7606 H       1  UNL1        0.2220
     45 H           7.4103   -0.5228   -2.0782 H       1  UNL1        0.2220
     46 H           6.5988    1.4707   -0.9584 H       1  UNL1        0.2220
@<TRIPOS>BOND
     1     1     2    1
     2     2     3   ar
     3     3     4   ar
     4     4     5   ar
     5     5     6   ar
     6     6     7   ar
     7     7     8   ar
     8     8     9   ar
     9     9    10   ar
    10    10    11    1
    11    11    12    1
    12    12    13    1
    13    13    14    1
    14    13    15    1
    15    15    16    1
    16    16    17    1
    17    17    18    1
    18    18    19    1
    19    18    20    2
    20    18    21    1
    21    21    22    1
    22    22    23    1
    23    22    24    2
    24    22    25    1
    25    25    26    1
    26    26    27    1
    27    26    28    1
    28    26    29    2
    29    15    30    1
    30     7     2   ar
    31    30    11    1
    32    10     6   ar
    33     1    31    1
    34     1    32    1
    35     4    33    1
    36     9    34    1
    37    11    35    1
    38    12    36    1
    39    12    37    1
    40    13    38    1
    41    14    39    1
    42    15    40    1
    43    16    41    1
    44    16    42    1
    45    19    43    1
    46    23    44    1
    47    27    45    1
    48    28    46    1
