@<TRIPOS>MOLECULE
*****
 52 55 0 0 0
SMALL
GASTEIGER

@<TRIPOS>ATOM
      1 C          -6.6318    2.6725   -1.4933 C.3     1  UNL1       -0.0206
      2 C          -6.0881    1.5131   -0.7295 C.ar    1  UNL1        0.0607
      3 C          -4.7791    1.3267   -0.3453 C.ar    1  UNL1       -0.0089
      4 C          -4.7613    0.1125    0.3367 C.ar    1  UNL1        0.1232
      5 C          -3.6118   -0.5361    0.9450 C.2     1  UNL1        0.2625
      6 O          -3.7425   -1.6380    1.5321 O.2     1  UNL1       -0.2685
      7 N          -2.3066    0.0308    0.9082 N.am    1  UNL1       -0.3032
      8 C          -1.1936   -0.6501    1.5267 C.3     1  UNL1        0.0519
      9 C          -0.6326    0.1804    2.6428 C.3     1  UNL1       -0.0299
     10 C           0.8575    0.2360    2.6900 C.3     1  UNL1       -0.0456
     11 C           1.3585    0.6831    1.3223 C.3     1  UNL1       -0.0099
     12 C           1.0531   -0.4318    0.3890 C.ar    1  UNL1        0.0499
     13 C          -0.1759   -1.0426    0.5192 C.ar    1  UNL1        0.0138
     14 C          -0.2070   -2.0206   -0.4420 C.ar    1  UNL1        0.0550
     15 N           0.9660   -1.9642   -1.0940 N.ar    1  UNL1       -0.1742
     16 N           1.7299   -1.0220   -0.6112 N.ar    1  UNL1       -0.2364
     17 C           3.0375   -0.6527   -1.0309 C.ar    1  UNL1        0.0659
     18 C           3.2272   -0.3148   -2.3724 C.ar    1  UNL1       -0.0360
     19 C           4.4745    0.0530   -2.8434 C.ar    1  UNL1       -0.0566
     20 C           5.5415    0.0815   -1.9580 C.ar    1  UNL1       -0.0474
     21 C           6.8609    0.4724   -2.4656 C.3     1  UNL1       -0.0395
     22 C           5.3869   -0.2425   -0.6457 C.ar    1  UNL1       -0.0455
     23 C           6.5318   -0.2038    0.2680 C.3     1  UNL1       -0.0394
     24 C           4.1250   -0.6090   -0.1945 C.ar    1  UNL1       -0.0331
     25 N          -6.0059   -0.3947    0.3536 N.ar    1  UNL1       -0.2620
     26 C          -6.3951   -1.6560    0.9747 C.3     1  UNL1        0.0310
     27 N          -6.7756    0.4570   -0.2868 N.ar    1  UNL1       -0.1761
     28 H          -5.9126    3.5099   -1.4623 H       1  UNL1        0.0293
     29 H          -7.6203    2.9836   -1.0529 H       1  UNL1        0.0293
     30 H          -6.8562    2.3614   -2.5291 H       1  UNL1        0.0293
     31 H          -3.9246    1.9615   -0.5170 H       1  UNL1        0.0659
     32 H          -2.2017    0.9501    0.4174 H       1  UNL1        0.1497
     33 H          -1.5649   -1.5917    1.9730 H       1  UNL1        0.0549
     34 H          -1.0160    1.2311    2.5620 H       1  UNL1        0.0286
     35 H          -0.9763   -0.1935    3.6518 H       1  UNL1        0.0286
     36 H           1.2814   -0.7596    2.9043 H       1  UNL1        0.0270
     37 H           1.1605    1.0204    3.4017 H       1  UNL1        0.0270
     38 H           2.4268    0.8874    1.4270 H       1  UNL1        0.0328
     39 H           0.8577    1.6217    1.0107 H       1  UNL1        0.0328
     40 H          -1.0149   -2.7331   -0.6680 H       1  UNL1        0.0851
     41 H           2.3950   -0.3338   -3.0778 H       1  UNL1        0.0639
     42 H           4.5936    0.3120   -3.8972 H       1  UNL1        0.0621
     43 H           6.9292    0.1090   -3.5313 H       1  UNL1        0.0278
     44 H           6.9103    1.5760   -2.5078 H       1  UNL1        0.0278
     45 H           7.7083    0.0121   -1.9322 H       1  UNL1        0.0278
     46 H           6.2402   -0.5604    1.2920 H       1  UNL1        0.0278
     47 H           7.3024   -0.9392   -0.0754 H       1  UNL1        0.0278
     48 H           6.9582    0.8073    0.4044 H       1  UNL1        0.0278
     49 H           4.0101   -0.8615    0.8337 H       1  UNL1        0.0641
     50 H          -5.9213   -2.5241    0.4867 H       1  UNL1        0.0473
     51 H          -7.4975   -1.7140    0.9386 H       1  UNL1        0.0473
     52 H          -6.1107   -1.5727    2.0522 H       1  UNL1        0.0473
@<TRIPOS>BOND
     1     1     2    1
     2     2     3   ar
     3     3     4   ar
     4     4     5    1
     5     5     6    2
     6     5     7   am
     7     7     8    1
     8     8     9    1
     9     9    10    1
    10    10    11    1
    11    11    12    1
    12    12    13   ar
    13    13    14   ar
    14    14    15   ar
    15    15    16   ar
    16    16    17    1
    17    17    18   ar
    18    18    19   ar
    19    19    20   ar
    20    20    21    1
    21    20    22   ar
    22    22    23    1
    23    22    24   ar
    24     4    25   ar
    25    25    26    1
    26    25    27   ar
    27    27     2   ar
    28    13     8    1
    29    24    17   ar
    30    16    12   ar
    31     1    28    1
    32     1    29    1
    33     1    30    1
    34     3    31    1
    35     7    32    1
    36     8    33    1
    37     9    34    1
    38     9    35    1
    39    10    36    1
    40    10    37    1
    41    11    38    1
    42    11    39    1
    43    14    40    1
    44    18    41    1
    45    19    42    1
    46    21    43    1
    47    21    44    1
    48    21    45    1
    49    23    46    1
    50    23    47    1
    51    23    48    1
    52    24    49    1
    53    26    50    1
    54    26    51    1
    55    26    52    1
