@<TRIPOS>MOLECULE
*****
 49 53 0 0 0
SMALL
GASTEIGER

@<TRIPOS>ATOM
      1 O           5.8925    1.7691   -1.6331 O.2     1  UNL1       -0.2490
      2 C           4.8057    1.4043   -1.1194 C.2     1  UNL1        0.3247
      3 O           3.8107    2.3379   -0.8670 O.3     1  UNL1       -0.4794
      4 C           4.6259   -0.0327   -0.7977 C.3     1  UNL1        0.1204
      5 N           3.3385   -0.2985   -0.2176 N.ar    1  UNL1       -0.3327
      6 C           2.2456   -0.6113   -0.9259 C.ar    1  UNL1        0.0266
      7 C           1.2108   -0.7918   -0.0012 C.ar    1  UNL1       -0.0015
      8 C           1.6996   -0.5831    1.2655 C.ar    1  UNL1        0.0075
      9 C           1.1302   -0.6285    2.5191 C.ar    1  UNL1       -0.0170
     10 C           1.8709   -0.3685    3.6623 C.ar    1  UNL1        0.1241
     11 F           1.2963   -0.4161    4.9018 F       1  UNL1       -0.2055
     12 C           3.2015   -0.0624    3.4948 C.ar    1  UNL1       -0.0245
     13 C           3.7749   -0.0170    2.2279 C.ar    1  UNL1       -0.0349
     14 C           3.0322   -0.2767    1.0950 C.ar    1  UNL1        0.0502
     15 C          -0.1051   -1.1474   -0.5608 C.3     1  UNL1        0.0423
     16 N          -0.3936   -0.3855   -1.7559 N.am    1  UNL1       -0.2928
     17 C          -1.7308   -0.0537   -2.0976 C.2     1  UNL1        0.2475
     18 O          -2.0185    0.6102   -3.1339 O.2     1  UNL1       -0.2700
     19 C          -2.8672   -0.4590   -1.2713 C.ar    1  UNL1        0.0446
     20 C          -3.5134   -1.6593   -1.4843 C.ar    1  UNL1       -0.0490
     21 C          -4.5896   -2.0447   -0.7026 C.ar    1  UNL1       -0.0605
     22 C          -5.0573   -1.2493    0.3152 C.ar    1  UNL1       -0.0540
     23 C          -4.4210   -0.0464    0.5398 C.ar    1  UNL1       -0.0172
     24 C          -4.8735    0.7702    1.5577 C.ar    1  UNL1       -0.0540
     25 C          -4.2683    1.9842    1.8204 C.ar    1  UNL1       -0.0612
     26 C          -3.1994    2.3413    1.0260 C.ar    1  UNL1       -0.0611
     27 C          -2.7286    1.5481    0.0067 C.ar    1  UNL1       -0.0533
     28 C          -3.3401    0.3320   -0.2515 C.ar    1  UNL1       -0.0058
     29 C           0.6738    0.0511   -2.6229 C.3     1  UNL1        0.0207
     30 C           1.8948   -0.7985   -2.3561 C.3     1  UNL1        0.0039
     31 H           4.1318    3.3182   -0.8501 H       1  UNL1        0.2951
     32 H           5.3971   -0.3464   -0.0627 H       1  UNL1        0.0607
     33 H           4.7357   -0.6250   -1.7284 H       1  UNL1        0.0607
     34 H           0.0720   -0.8751    2.6081 H       1  UNL1        0.0653
     35 H           3.8222    0.1482    4.3517 H       1  UNL1        0.0647
     36 H           4.8269    0.2237    2.0770 H       1  UNL1        0.0639
     37 H          -0.0489   -2.2451   -0.8217 H       1  UNL1        0.0515
     38 H          -0.8619   -0.9595    0.2228 H       1  UNL1        0.0515
     39 H          -3.2083   -2.3432   -2.2645 H       1  UNL1        0.0625
     40 H          -5.0938   -2.9956   -0.8790 H       1  UNL1        0.0618
     41 H          -5.9132   -1.5518    0.9397 H       1  UNL1        0.0624
     42 H          -5.7139    0.5012    2.1905 H       1  UNL1        0.0624
     43 H          -4.6189    2.6427    2.6273 H       1  UNL1        0.0618
     44 H          -2.7206    3.2924    1.2272 H       1  UNL1        0.0618
     45 H          -1.8764    1.8440   -0.6189 H       1  UNL1        0.0624
     46 H           0.3841    0.0581   -3.6987 H       1  UNL1        0.0468
     47 H           0.9711    1.1058   -2.3830 H       1  UNL1        0.0468
     48 H           2.7371   -0.5472   -3.0180 H       1  UNL1        0.0343
     49 H           1.5799   -1.8632   -2.5528 H       1  UNL1        0.0343
@<TRIPOS>BOND
     1     1     2    2
     2     2     3    1
     3     2     4    1
     4     4     5    1
     5     5     6   ar
     6     6     7   ar
     7     7     8   ar
     8     8     9   ar
     9     9    10   ar
    10    10    11    1
    11    10    12   ar
    12    12    13   ar
    13    13    14   ar
    14     7    15    1
    15    15    16    1
    16    16    17   am
    17    17    18    2
    18    17    19    1
    19    19    20   ar
    20    20    21   ar
    21    21    22   ar
    22    22    23   ar
    23    23    24   ar
    24    24    25   ar
    25    25    26   ar
    26    26    27   ar
    27    27    28   ar
    28    16    29    1
    29    29    30    1
    30    14     5   ar
    31    28    19   ar
    32    30     6    1
    33    14     8   ar
    34    28    23   ar
    35     3    31    1
    36     4    32    1
    37     4    33    1
    38     9    34    1
    39    12    35    1
    40    13    36    1
    41    15    37    1
    42    15    38    1
    43    20    39    1
    44    21    40    1
    45    22    41    1
    46    24    42    1
    47    25    43    1
    48    26    44    1
    49    27    45    1
    50    29    46    1
    51    29    47    1
    52    30    48    1
    53    30    49    1
