@<TRIPOS>MOLECULE
*****
 65 69 0 0 0
SMALL
GASTEIGER

@<TRIPOS>ATOM
      1 C          -3.5142    0.3981    1.2683 C.3     1  UNL1       -0.0373
      2 C          -3.6559    0.6801   -0.1627 C.ar    1  UNL1       -0.0202
      3 C          -3.2592   -0.1984   -1.1316 C.ar    1  UNL1        0.0350
      4 N          -2.6609   -1.4647   -0.9480 N.pl3   1  UNL1       -0.3127
      5 C          -3.2201   -2.4754   -0.1629 C.ar    1  UNL1        0.0591
      6 C          -4.4222   -3.0257   -0.6505 C.ar    1  UNL1        0.0914
      7 C          -5.0460   -2.5468   -1.8467 C.1     1  UNL1        0.1026
      8 N          -5.5634   -2.1645   -2.8266 N.1     1  UNL1       -0.1908
      9 C          -4.9684   -4.0654    0.0703 C.ar    1  UNL1        0.0467
     10 N          -4.4026   -4.5466    1.1822 N.ar    1  UNL1       -0.2613
     11 C          -3.2679   -4.0135    1.6253 C.ar    1  UNL1        0.0365
     12 C          -2.6176   -2.9510    0.9767 C.ar    1  UNL1        0.0155
     13 C          -1.3937   -2.4397    1.5487 C.2     1  UNL1       -0.0508
     14 C          -0.6628   -1.4209    1.2037 C.2     1  UNL1       -0.0539
     15 C           0.5798   -1.0062    1.8795 C.ar    1  UNL1       -0.0232
     16 C           1.1053   -1.6367    2.9582 C.ar    1  UNL1       -0.0545
     17 C           2.2945   -1.1651    3.5278 C.ar    1  UNL1       -0.0594
     18 C           2.9580   -0.0698    3.0251 C.ar    1  UNL1       -0.0353
     19 C           2.4269    0.5702    1.9323 C.ar    1  UNL1        0.1060
     20 S           3.2413    1.9802    1.2590 S.O2    1  UNL1        0.0609
     21 O           2.2420    2.9064    0.6350 O.2     1  UNL1       -0.1528
     22 O           3.9572    2.7248    2.3370 O.2     1  UNL1       -0.1528
     23 N           4.3978    1.4395    0.0956 N.3     1  UNL1       -0.1741
     24 C           3.8216    0.7360   -1.0069 C.3     1  UNL1        0.0333
     25 C           4.9041   -0.1917   -1.5640 C.3     1  UNL1        0.0131
     26 N           6.1997    0.4180   -1.5176 N.3     1  UNL1       -0.3028
     27 C           6.2589    1.6331   -2.2728 C.3     1  UNL1       -0.0127
     28 C           6.6342    0.5904   -0.1357 C.3     1  UNL1        0.0131
     29 C           5.4215    0.6322    0.7766 C.3     1  UNL1        0.0333
     30 C           1.2633    0.1056    1.3777 C.ar    1  UNL1       -0.0282
     31 C          -3.4823    0.2175   -2.4548 C.ar    1  UNL1       -0.0383
     32 C          -4.0480    1.4001   -2.8148 C.ar    1  UNL1       -0.0360
     33 C          -4.4390    2.2703   -1.8170 C.ar    1  UNL1        0.0468
     34 N          -5.0140    3.4931   -1.8550 N.ar    1  UNL1       -0.3606
     35 C          -5.2005    3.9441   -0.6056 C.ar    1  UNL1        0.0027
     36 C          -4.7218    2.9617    0.2453 C.ar    1  UNL1       -0.0364
     37 C          -4.2455    1.9153   -0.4995 C.ar    1  UNL1        0.0043
     38 H          -2.5318    0.6294    1.6965 H       1  UNL1        0.0278
     39 H          -4.2082    1.1151    1.8209 H       1  UNL1        0.0278
     40 H          -3.9365   -0.5877    1.5248 H       1  UNL1        0.0278
     41 H          -1.7550   -1.6117   -1.4945 H       1  UNL1        0.1522
     42 H          -5.9067   -4.4818   -0.3261 H       1  UNL1        0.0843
     43 H          -2.7804   -4.3894    2.5379 H       1  UNL1        0.0836
     44 H          -0.9870   -2.9901    2.4221 H       1  UNL1        0.0625
     45 H          -0.9785   -0.8067    0.3851 H       1  UNL1        0.0624
     46 H           0.6115   -2.5023    3.3836 H       1  UNL1        0.0623
     47 H           2.6590   -1.7264    4.3973 H       1  UNL1        0.0618
     48 H           3.8798    0.2644    3.4954 H       1  UNL1        0.0637
     49 H           2.9654    0.0885   -0.7112 H       1  UNL1        0.0456
     50 H           3.5255    1.4379   -1.8243 H       1  UNL1        0.0456
     51 H           4.6897   -0.4495   -2.6224 H       1  UNL1        0.0439
     52 H           4.9596   -1.1490   -1.0028 H       1  UNL1        0.0439
     53 H           6.4448    1.3466   -3.3434 H       1  UNL1        0.0391
     54 H           7.1113    2.2803   -1.9218 H       1  UNL1        0.0391
     55 H           5.3571    2.2581   -2.1765 H       1  UNL1        0.0391
     56 H           7.2292   -0.3305    0.1068 H       1  UNL1        0.0439
     57 H           7.2106    1.5214   -0.0413 H       1  UNL1        0.0439
     58 H           5.6203    1.1307    1.7337 H       1  UNL1        0.0456
     59 H           5.0164   -0.3979    0.8904 H       1  UNL1        0.0456
     60 H           0.8862    0.6497    0.5149 H       1  UNL1        0.0643
     61 H          -3.1614   -0.4916   -3.2373 H       1  UNL1        0.0637
     62 H          -4.1926    1.6574   -3.8761 H       1  UNL1        0.0639
     63 H          -5.2740    4.0104   -2.7182 H       1  UNL1        0.1653
     64 H          -5.6264    4.8683   -0.2440 H       1  UNL1        0.0807
     65 H          -4.7279    3.0215    1.3292 H       1  UNL1        0.0639
@<TRIPOS>BOND
     1     1     2    1
     2     2     3   ar
     3     3     4    1
     4     4     5    1
     5     5     6   ar
     6     6     7    1
     7     7     8    3
     8     6     9   ar
     9     9    10   ar
    10    10    11   ar
    11    11    12   ar
    12    12    13    1
    13    13    14    2
    14    14    15    1
    15    15    16   ar
    16    16    17   ar
    17    17    18   ar
    18    18    19   ar
    19    19    20    1
    20    20    21    2
    21    20    22    2
    22    20    23    1
    23    23    24    1
    24    24    25    1
    25    25    26    1
    26    26    27    1
    27    26    28    1
    28    28    29    1
    29    19    30   ar
    30     3    31   ar
    31    31    32   ar
    32    32    33   ar
    33    33    34   ar
    34    34    35   ar
    35    35    36   ar
    36    36    37   ar
    37    37     2   ar
    38    12     5   ar
    39    30    15   ar
    40    37    33   ar
    41    29    23    1
    42     1    38    1
    43     1    39    1
    44     1    40    1
    45     4    41    1
    46     9    42    1
    47    11    43    1
    48    13    44    1
    49    14    45    1
    50    16    46    1
    51    17    47    1
    52    18    48    1
    53    24    49    1
    54    24    50    1
    55    25    51    1
    56    25    52    1
    57    27    53    1
    58    27    54    1
    59    27    55    1
    60    28    56    1
    61    28    57    1
    62    29    58    1
    63    29    59    1
    64    30    60    1
    65    31    61    1
    66    32    62    1
    67    34    63    1
    68    35    64    1
    69    36    65    1
