@<TRIPOS>MOLECULE
*****
 55 57 0 0 0
SMALL
GASTEIGER

@<TRIPOS>ATOM
      1 C           5.7337    3.2229    0.4982 C.3     1  UNL1       -0.0638
      2 C           6.0536    1.8382   -0.0630 C.3     1  UNL1       -0.0350
      3 C           4.8868    0.8847    0.1473 C.3     1  UNL1        0.0817
      4 S           3.4767    1.5655   -0.6998 S.O2    1  UNL1        0.0318
      5 O           3.2275    2.9838   -0.2953 O.2     1  UNL1       -0.1580
      6 O           3.8387    1.5866   -2.1777 O.2     1  UNL1       -0.1580
      7 N           2.0873    0.5793   -0.5390 N.3     1  UNL1       -0.1811
      8 C           2.3802   -0.7072   -1.1378 C.3     1  UNL1        0.0210
      9 C           1.3409   -1.7233   -0.8721 C.3     1  UNL1       -0.0260
     10 C           0.0833   -1.2185   -0.2078 C.3     1  UNL1        0.0308
     11 C          -0.7611   -0.4948   -1.2532 C.3     1  UNL1        0.0230
     12 N          -1.9777   -0.0123   -0.6080 N.am    1  UNL1       -0.3104
     13 C          -2.9667    0.7113   -1.3469 C.2     1  UNL1        0.2455
     14 O          -2.7248    0.9062   -2.5832 O.2     1  UNL1       -0.2702
     15 C          -4.1930    1.2089   -0.7406 C.ar    1  UNL1        0.0550
     16 C          -5.4226    0.7971   -1.1529 C.ar    1  UNL1       -0.0468
     17 C          -6.5698    1.2917   -0.5529 C.ar    1  UNL1       -0.0426
     18 C          -6.4737    2.2128    0.4753 C.ar    1  UNL1        0.0424
     19 CL         -7.8995    2.8654    1.2634 Cl      1  UNL1       -0.0835
     20 C          -5.2386    2.6417    0.9066 C.ar    1  UNL1       -0.0243
     21 C          -4.1002    2.1266    0.2840 C.ar    1  UNL1        0.0544
     22 CL         -2.5320    2.6635    0.8225 Cl      1  UNL1       -0.0827
     23 C          -0.6868   -2.4187    0.2009 C.ar    1  UNL1        0.0490
     24 C          -0.5489   -3.0570    1.4129 C.ar    1  UNL1       -0.0398
     25 C          -1.2862   -4.1728    1.7560 C.ar    1  UNL1       -0.0586
     26 C          -2.2010   -4.6768    0.8547 C.ar    1  UNL1       -0.0436
     27 C          -2.3274   -4.0257   -0.3559 C.ar    1  UNL1        0.0279
     28 N          -1.5894   -2.9446   -0.6452 N.ar    1  UNL1       -0.2593
     29 C           0.3536   -0.2537    0.9071 C.3     1  UNL1       -0.0260
     30 C           1.7450    0.3351    0.8478 C.3     1  UNL1        0.0210
     31 H           6.6455    3.6088    1.0278 H       1  UNL1        0.0230
     32 H           4.9553    3.1275    1.2775 H       1  UNL1        0.0230
     33 H           5.3997    3.9041   -0.3022 H       1  UNL1        0.0230
     34 H           6.9412    1.4240    0.4636 H       1  UNL1        0.0279
     35 H           6.2838    1.8700   -1.1363 H       1  UNL1        0.0279
     36 H           4.6921    0.7312    1.2287 H       1  UNL1        0.0515
     37 H           5.1664   -0.0664   -0.3101 H       1  UNL1        0.0515
     38 H           3.3771   -1.0245   -0.7331 H       1  UNL1        0.0444
     39 H           2.5285   -0.5213   -2.2374 H       1  UNL1        0.0444
     40 H           1.7717   -2.5396   -0.2481 H       1  UNL1        0.0288
     41 H           1.0570   -2.2036   -1.8388 H       1  UNL1        0.0288
     42 H          -1.0714   -1.1884   -2.0539 H       1  UNL1        0.0471
     43 H          -0.2378    0.4023   -1.6356 H       1  UNL1        0.0471
     44 H          -2.1973   -0.1606    0.3996 H       1  UNL1        0.1490
     45 H          -5.5333    0.0809   -1.9512 H       1  UNL1        0.0626
     46 H          -7.5593    0.9914   -0.8499 H       1  UNL1        0.0632
     47 H          -5.1672    3.3667    1.7164 H       1  UNL1        0.0647
     48 H           0.1611   -2.6844    2.1360 H       1  UNL1        0.0636
     49 H          -1.1725   -4.6718    2.7144 H       1  UNL1        0.0619
     50 H          -2.8074   -5.5639    1.0905 H       1  UNL1        0.0633
     51 H          -3.0576   -4.4470   -1.0468 H       1  UNL1        0.0829
     52 H          -0.3668    0.5891    0.8527 H       1  UNL1        0.0288
     53 H           0.2345   -0.6724    1.9266 H       1  UNL1        0.0288
     54 H           2.4816   -0.3468    1.3198 H       1  UNL1        0.0444
     55 H           1.7668    1.2789    1.4331 H       1  UNL1        0.0444
@<TRIPOS>BOND
     1     1     2    1
     2     2     3    1
     3     3     4    1
     4     4     5    2
     5     4     6    2
     6     4     7    1
     7     7     8    1
     8     8     9    1
     9     9    10    1
    10    10    11    1
    11    11    12    1
    12    12    13   am
    13    13    14    2
    14    13    15    1
    15    15    16   ar
    16    16    17   ar
    17    17    18   ar
    18    18    19    1
    19    18    20   ar
    20    20    21   ar
    21    21    22    1
    22    10    23    1
    23    23    24   ar
    24    24    25   ar
    25    25    26   ar
    26    26    27   ar
    27    27    28   ar
    28    10    29    1
    29    29    30    1
    30    30     7    1
    31    21    15   ar
    32    28    23   ar
    33     1    31    1
    34     1    32    1
    35     1    33    1
    36     2    34    1
    37     2    35    1
    38     3    36    1
    39     3    37    1
    40     8    38    1
    41     8    39    1
    42     9    40    1
    43     9    41    1
    44    11    42    1
    45    11    43    1
    46    12    44    1
    47    16    45    1
    48    17    46    1
    49    20    47    1
    50    24    48    1
    51    25    49    1
    52    26    50    1
    53    27    51    1
    54    29    52    1
    55    29    53    1
    56    30    54    1
    57    30    55    1
