
     RDKit          3D

 55 57  0  0  0  0  0  0  0  0999 V2000
    5.7337    3.2229    0.4982 C   0  0  0  0  0  0  0  0  0  0  0  0
    6.0536    1.8382   -0.0630 C   0  0  0  0  0  0  0  0  0  0  0  0
    4.8868    0.8847    0.1473 C   0  0  0  0  0  0  0  0  0  0  0  0
    3.4767    1.5655   -0.6998 S   0  0  0  0  0  6  0  0  0  0  0  0
    3.2275    2.9838   -0.2953 O   0  0  0  0  0  0  0  0  0  0  0  0
    3.8387    1.5866   -2.1777 O   0  0  0  0  0  0  0  0  0  0  0  0
    2.0873    0.5793   -0.5390 N   0  0  0  0  0  0  0  0  0  0  0  0
    2.3802   -0.7072   -1.1378 C   0  0  0  0  0  0  0  0  0  0  0  0
    1.3409   -1.7233   -0.8721 C   0  0  0  0  0  0  0  0  0  0  0  0
    0.0833   -1.2185   -0.2078 C   0  0  0  0  0  0  0  0  0  0  0  0
   -0.7611   -0.4948   -1.2532 C   0  0  0  0  0  0  0  0  0  0  0  0
   -1.9777   -0.0123   -0.6080 N   0  0  0  0  0  0  0  0  0  0  0  0
   -2.9667    0.7113   -1.3469 C   0  0  0  0  0  0  0  0  0  0  0  0
   -2.7248    0.9062   -2.5832 O   0  0  0  0  0  0  0  0  0  0  0  0
   -4.1930    1.2089   -0.7406 C   0  0  0  0  0  0  0  0  0  0  0  0
   -5.4226    0.7971   -1.1529 C   0  0  0  0  0  0  0  0  0  0  0  0
   -6.5698    1.2917   -0.5529 C   0  0  0  0  0  0  0  0  0  0  0  0
   -6.4737    2.2128    0.4753 C   0  0  0  0  0  0  0  0  0  0  0  0
   -7.8995    2.8654    1.2634 Cl  0  0  0  0  0  0  0  0  0  0  0  0
   -5.2386    2.6417    0.9066 C   0  0  0  0  0  0  0  0  0  0  0  0
   -4.1002    2.1266    0.2840 C   0  0  0  0  0  0  0  0  0  0  0  0
   -2.5320    2.6635    0.8225 Cl  0  0  0  0  0  0  0  0  0  0  0  0
   -0.6868   -2.4187    0.2009 C   0  0  0  0  0  0  0  0  0  0  0  0
   -0.5489   -3.0570    1.4129 C   0  0  0  0  0  0  0  0  0  0  0  0
   -1.2862   -4.1728    1.7560 C   0  0  0  0  0  0  0  0  0  0  0  0
   -2.2010   -4.6768    0.8547 C   0  0  0  0  0  0  0  0  0  0  0  0
   -2.3274   -4.0257   -0.3559 C   0  0  0  0  0  0  0  0  0  0  0  0
   -1.5894   -2.9446   -0.6452 N   0  0  0  0  0  0  0  0  0  0  0  0
    0.3536   -0.2537    0.9071 C   0  0  0  0  0  0  0  0  0  0  0  0
    1.7450    0.3351    0.8478 C   0  0  0  0  0  0  0  0  0  0  0  0
    6.6455    3.6088    1.0278 H   0  0  0  0  0  0  0  0  0  0  0  0
    4.9553    3.1275    1.2775 H   0  0  0  0  0  0  0  0  0  0  0  0
    5.3997    3.9041   -0.3022 H   0  0  0  0  0  0  0  0  0  0  0  0
    6.9412    1.4240    0.4636 H   0  0  0  0  0  0  0  0  0  0  0  0
    6.2838    1.8700   -1.1363 H   0  0  0  0  0  0  0  0  0  0  0  0
    4.6921    0.7312    1.2287 H   0  0  0  0  0  0  0  0  0  0  0  0
    5.1664   -0.0664   -0.3101 H   0  0  0  0  0  0  0  0  0  0  0  0
    3.3771   -1.0245   -0.7331 H   0  0  0  0  0  0  0  0  0  0  0  0
    2.5285   -0.5213   -2.2374 H   0  0  0  0  0  0  0  0  0  0  0  0
    1.7717   -2.5396   -0.2481 H   0  0  0  0  0  0  0  0  0  0  0  0
    1.0570   -2.2036   -1.8388 H   0  0  0  0  0  0  0  0  0  0  0  0
   -1.0714   -1.1884   -2.0539 H   0  0  0  0  0  0  0  0  0  0  0  0
   -0.2378    0.4023   -1.6356 H   0  0  0  0  0  0  0  0  0  0  0  0
   -2.1973   -0.1606    0.3996 H   0  0  0  0  0  0  0  0  0  0  0  0
   -5.5333    0.0809   -1.9512 H   0  0  0  0  0  0  0  0  0  0  0  0
   -7.5593    0.9914   -0.8499 H   0  0  0  0  0  0  0  0  0  0  0  0
   -5.1672    3.3667    1.7164 H   0  0  0  0  0  0  0  0  0  0  0  0
    0.1611   -2.6844    2.1360 H   0  0  0  0  0  0  0  0  0  0  0  0
   -1.1725   -4.6718    2.7144 H   0  0  0  0  0  0  0  0  0  0  0  0
   -2.8074   -5.5639    1.0905 H   0  0  0  0  0  0  0  0  0  0  0  0
   -3.0576   -4.4470   -1.0468 H   0  0  0  0  0  0  0  0  0  0  0  0
   -0.3668    0.5891    0.8527 H   0  0  0  0  0  0  0  0  0  0  0  0
    0.2345   -0.6724    1.9266 H   0  0  0  0  0  0  0  0  0  0  0  0
    2.4816   -0.3468    1.3198 H   0  0  0  0  0  0  0  0  0  0  0  0
    1.7668    1.2789    1.4331 H   0  0  0  0  0  0  0  0  0  0  0  0
  1  2  1  0
  2  3  1  0
  3  4  1  0
  4  5  2  0
  4  6  2  0
  4  7  1  0
  7  8  1  0
  8  9  1  0
  9 10  1  0
 10 11  1  0
 11 12  1  0
 12 13  1  0
 13 14  2  0
 13 15  1  0
 15 16  2  0
 16 17  1  0
 17 18  2  0
 18 19  1  0
 18 20  1  0
 20 21  2  0
 21 22  1  0
 10 23  1  0
 23 24  2  0
 24 25  1  0
 25 26  2  0
 26 27  1  0
 27 28  2  0
 10 29  1  0
 29 30  1  0
 30  7  1  0
 21 15  1  0
 28 23  1  0
  1 31  1  0
  1 32  1  0
  1 33  1  0
  2 34  1  0
  2 35  1  0
  3 36  1  0
  3 37  1  0
  8 38  1  0
  8 39  1  0
  9 40  1  0
  9 41  1  0
 11 42  1  0
 11 43  1  0
 12 44  1  0
 16 45  1  0
 17 46  1  0
 20 47  1  0
 24 48  1  0
 25 49  1  0
 26 50  1  0
 27 51  1  0
 29 52  1  0
 29 53  1  0
 30 54  1  0
 30 55  1  0
M  END
$$$$
