
     RDKit          3D

 58 61  0  0  0  0  0  0  0  0999 V2000
   -3.2032   -1.6505    0.4519 O   0  0  0  0  0  0  0  0  0  0  0  0
   -3.2803   -0.6242   -0.1732 C   0  0  0  0  0  0  0  0  0  0  0  0
   -4.3994   -0.4609   -1.1388 C   0  0  0  0  0  0  0  0  0  0  0  0
   -4.8270    0.9635   -1.2851 C   0  0  0  0  0  0  0  0  0  0  0  0
   -5.6073    1.4852   -0.0975 C   0  0  0  0  0  0  0  0  0  0  0  0
   -6.8310    0.6802    0.0915 C   0  0  0  0  0  0  0  0  0  0  0  0
   -6.8356   -0.4267    0.9050 C   0  0  0  0  0  0  0  0  0  0  0  0
   -8.0020   -1.1326    1.0391 C   0  0  0  0  0  0  0  0  0  0  0  0
   -9.1566   -0.7688    0.3894 C   0  0  0  0  0  0  0  0  0  0  0  0
   -9.1548    0.3396   -0.4261 C   0  0  0  0  0  0  0  0  0  0  0  0
   -7.9865    1.0441   -0.5585 C   0  0  0  0  0  0  0  0  0  0  0  0
   -3.6954    1.8462   -1.5313 N   0  0  0  0  0  0  0  0  0  0  0  0
   -2.3828    1.4422   -1.0964 C   0  0  0  0  0  0  0  0  0  0  0  0
   -1.3634    1.9206   -1.6534 O   0  0  0  0  0  0  0  0  0  0  0  0
   -2.2896    0.4704   -0.0004 C   0  0  0  0  0  0  0  0  0  0  0  0
   -0.8892   -0.0865    0.0055 C   0  0  0  0  0  0  0  0  0  0  0  0
   -0.7284   -1.3149   -0.1368 O   0  0  0  0  0  0  0  0  0  0  0  0
    0.2014    0.7935    0.1716 N   0  0  0  0  0  0  0  0  0  0  0  0
    1.5723    0.4204    0.1983 C   0  0  0  0  0  0  0  0  0  0  0  0
    2.0670   -0.8454    0.0662 C   0  0  0  0  0  0  0  0  0  0  0  0
    3.4435   -1.1142    0.1064 C   0  0  0  0  0  0  0  0  0  0  0  0
    4.3694   -0.1141    0.2814 C   0  0  0  0  0  0  0  0  0  0  0  0
    5.8205   -0.4267    0.3198 C   0  0  0  0  0  0  0  0  0  0  0  0
    6.4261   -0.0202    1.6399 C   0  0  0  0  0  0  0  0  0  0  0  0
    7.9011   -0.3226    1.5801 C   0  0  0  0  0  0  0  0  0  0  0  0
    8.2673   -1.1781    0.3815 C   0  0  0  0  0  0  0  0  0  0  0  0
    7.9093   -0.4945   -0.9196 C   0  0  0  0  0  0  0  0  0  0  0  0
    6.5943    0.2820   -0.7671 C   0  0  0  0  0  0  0  0  0  0  0  0
    3.8814    1.1641    0.4155 C   0  0  0  0  0  0  0  0  0  0  0  0
    2.5307    1.4264    0.3758 C   0  0  0  0  0  0  0  0  0  0  0  0
   -5.2732   -1.0773   -0.8581 H   0  0  0  0  0  0  0  0  0  0  0  0
   -3.9867   -0.7796   -2.1330 H   0  0  0  0  0  0  0  0  0  0  0  0
   -5.4684    1.0333   -2.1900 H   0  0  0  0  0  0  0  0  0  0  0  0
   -5.8839    2.5559   -0.2368 H   0  0  0  0  0  0  0  0  0  0  0  0
   -4.9120    1.3750    0.7813 H   0  0  0  0  0  0  0  0  0  0  0  0
   -5.9448   -0.7402    1.4305 H   0  0  0  0  0  0  0  0  0  0  0  0
   -7.9899   -2.0032    1.6839 H   0  0  0  0  0  0  0  0  0  0  0  0
  -10.0548   -1.3668    0.5326 H   0  0  0  0  0  0  0  0  0  0  0  0
  -10.0800    0.5877   -0.9146 H   0  0  0  0  0  0  0  0  0  0  0  0
   -7.9934    1.9300   -1.2132 H   0  0  0  0  0  0  0  0  0  0  0  0
   -3.8597    2.7492   -2.0162 H   0  0  0  0  0  0  0  0  0  0  0  0
   -2.4989    0.9908    0.9539 H   0  0  0  0  0  0  0  0  0  0  0  0
   -0.0686    1.8241    0.2849 H   0  0  0  0  0  0  0  0  0  0  0  0
    1.4024   -1.6786   -0.0741 H   0  0  0  0  0  0  0  0  0  0  0  0
    3.8112   -2.1258   -0.0009 H   0  0  0  0  0  0  0  0  0  0  0  0
    6.0123   -1.5091    0.1964 H   0  0  0  0  0  0  0  0  0  0  0  0
    5.9972   -0.6015    2.4881 H   0  0  0  0  0  0  0  0  0  0  0  0
    6.3022    1.0430    1.8663 H   0  0  0  0  0  0  0  0  0  0  0  0
    8.2896   -0.8247    2.4685 H   0  0  0  0  0  0  0  0  0  0  0  0
    8.4944    0.6298    1.4615 H   0  0  0  0  0  0  0  0  0  0  0  0
    7.9115   -2.2038    0.4599 H   0  0  0  0  0  0  0  0  0  0  0  0
    9.3937   -1.2344    0.3930 H   0  0  0  0  0  0  0  0  0  0  0  0
    7.6888   -1.2710   -1.7054 H   0  0  0  0  0  0  0  0  0  0  0  0
    8.7271    0.1825   -1.2469 H   0  0  0  0  0  0  0  0  0  0  0  0
    6.8664    1.2809   -0.3900 H   0  0  0  0  0  0  0  0  0  0  0  0
    6.0183    0.2793   -1.6928 H   0  0  0  0  0  0  0  0  0  0  0  0
    4.5948    1.9534    0.5528 H   0  0  0  0  0  0  0  0  0  0  0  0
    2.1527    2.4514    0.4838 H   0  0  0  0  0  0  0  0  0  0  0  0
  1  2  2  0
  2  3  1  0
  3  4  1  0
  4  5  1  0
  5  6  1  0
  6  7  2  0
  7  8  1  0
  8  9  2  0
  9 10  1  0
 10 11  2  0
  4 12  1  0
 12 13  1  0
 13 14  2  0
 13 15  1  0
 15 16  1  0
 16 17  2  0
 16 18  1  0
 18 19  1  0
 19 20  2  0
 20 21  1  0
 21 22  2  0
 22 23  1  0
 23 24  1  0
 24 25  1  0
 25 26  1  0
 26 27  1  0
 27 28  1  0
 22 29  1  0
 29 30  2  0
 15  2  1  0
 30 19  1  0
 11  6  1  0
 28 23  1  0
  3 31  1  0
  3 32  1  0
  4 33  1  0
  5 34  1  0
  5 35  1  0
  7 36  1  0
  8 37  1  0
  9 38  1  0
 10 39  1  0
 11 40  1  0
 12 41  1  0
 15 42  1  0
 18 43  1  0
 20 44  1  0
 21 45  1  0
 23 46  1  0
 24 47  1  0
 24 48  1  0
 25 49  1  0
 25 50  1  0
 26 51  1  0
 26 52  1  0
 27 53  1  0
 27 54  1  0
 28 55  1  0
 28 56  1  0
 29 57  1  0
 30 58  1  0
M  END
$$$$
