@<TRIPOS>MOLECULE
*****
 58 61 0 0 0
SMALL
GASTEIGER

@<TRIPOS>ATOM
      1 O          -3.2032   -1.6505    0.4519 O.2     1  UNL1       -0.2960
      2 C          -3.2803   -0.6242   -0.1732 C.2     1  UNL1        0.1558
      3 C          -4.3994   -0.4609   -1.1388 C.3     1  UNL1        0.0258
      4 C          -4.8270    0.9635   -1.2851 C.3     1  UNL1        0.0338
      5 C          -5.6073    1.4852   -0.0975 C.3     1  UNL1       -0.0088
      6 C          -6.8310    0.6802    0.0915 C.ar    1  UNL1       -0.0456
      7 C          -6.8356   -0.4267    0.9050 C.ar    1  UNL1       -0.0585
      8 C          -8.0020   -1.1326    1.0391 C.ar    1  UNL1       -0.0615
      9 C          -9.1566   -0.7688    0.3894 C.ar    1  UNL1       -0.0617
     10 C          -9.1548    0.3396   -0.4261 C.ar    1  UNL1       -0.0615
     11 C          -7.9865    1.0441   -0.5585 C.ar    1  UNL1       -0.0585
     12 N          -3.6954    1.8462   -1.5313 N.am    1  UNL1       -0.3108
     13 C          -2.3828    1.4422   -1.0964 C.2     1  UNL1        0.2325
     14 O          -1.3634    1.9206   -1.6534 O.2     1  UNL1       -0.2745
     15 C          -2.2896    0.4704   -0.0004 C.3     1  UNL1        0.1695
     16 C          -0.8892   -0.0865    0.0055 C.2     1  UNL1        0.2364
     17 O          -0.7284   -1.3149   -0.1368 O.2     1  UNL1       -0.2742
     18 N           0.2014    0.7935    0.1716 N.am    1  UNL1       -0.2845
     19 C           1.5723    0.4204    0.1983 C.ar    1  UNL1        0.0334
     20 C           2.0670   -0.8454    0.0662 C.ar    1  UNL1       -0.0402
     21 C           3.4435   -1.1142    0.1064 C.ar    1  UNL1       -0.0566
     22 C           4.3694   -0.1141    0.2814 C.ar    1  UNL1       -0.0442
     23 C           5.8205   -0.4267    0.3198 C.3     1  UNL1       -0.0158
     24 C           6.4261   -0.0202    1.6399 C.3     1  UNL1       -0.0462
     25 C           7.9011   -0.3226    1.5801 C.3     1  UNL1       -0.0525
     26 C           8.2673   -1.1781    0.3815 C.3     1  UNL1       -0.0530
     27 C           7.9093   -0.4945   -0.9196 C.3     1  UNL1       -0.0525
     28 C           6.5943    0.2820   -0.7671 C.3     1  UNL1       -0.0462
     29 C           3.8814    1.1641    0.4155 C.ar    1  UNL1       -0.0566
     30 C           2.5307    1.4264    0.3758 C.ar    1  UNL1       -0.0402
     31 H          -5.2732   -1.0773   -0.8581 H       1  UNL1        0.0360
     32 H          -3.9867   -0.7796   -2.1330 H       1  UNL1        0.0360
     33 H          -5.4684    1.0333   -2.1900 H       1  UNL1        0.0505
     34 H          -5.8839    2.5559   -0.2368 H       1  UNL1        0.0331
     35 H          -4.9120    1.3750    0.7813 H       1  UNL1        0.0331
     36 H          -5.9448   -0.7402    1.4305 H       1  UNL1        0.0620
     37 H          -7.9899   -2.0032    1.6839 H       1  UNL1        0.0618
     38 H         -10.0548   -1.3668    0.5326 H       1  UNL1        0.0618
     39 H         -10.0800    0.5877   -0.9146 H       1  UNL1        0.0618
     40 H          -7.9934    1.9300   -1.2132 H       1  UNL1        0.0620
     41 H          -3.8597    2.7492   -2.0162 H       1  UNL1        0.1490
     42 H          -2.4989    0.9908    0.9539 H       1  UNL1        0.0569
     43 H          -0.0686    1.8241    0.2849 H       1  UNL1        0.1548
     44 H           1.4024   -1.6786   -0.0741 H       1  UNL1        0.0636
     45 H           3.8112   -2.1258   -0.0009 H       1  UNL1        0.0621
     46 H           6.0123   -1.5091    0.1964 H       1  UNL1        0.0349
     47 H           5.9972   -0.6015    2.4881 H       1  UNL1        0.0271
     48 H           6.3022    1.0430    1.8663 H       1  UNL1        0.0271
     49 H           8.2896   -0.8247    2.4685 H       1  UNL1        0.0265
     50 H           8.4944    0.6298    1.4615 H       1  UNL1        0.0265
     51 H           7.9115   -2.2038    0.4599 H       1  UNL1        0.0265
     52 H           9.3937   -1.2344    0.3930 H       1  UNL1        0.0265
     53 H           7.6888   -1.2710   -1.7054 H       1  UNL1        0.0265
     54 H           8.7271    0.1825   -1.2469 H       1  UNL1        0.0265
     55 H           6.8664    1.2809   -0.3900 H       1  UNL1        0.0271
     56 H           6.0183    0.2793   -1.6928 H       1  UNL1        0.0271
     57 H           4.5948    1.9534    0.5528 H       1  UNL1        0.0621
     58 H           2.1527    2.4514    0.4838 H       1  UNL1        0.0636
@<TRIPOS>BOND
     1     1     2    2
     2     2     3    1
     3     3     4    1
     4     4     5    1
     5     5     6    1
     6     6     7   ar
     7     7     8   ar
     8     8     9   ar
     9     9    10   ar
    10    10    11   ar
    11     4    12    1
    12    12    13   am
    13    13    14    2
    14    13    15    1
    15    15    16    1
    16    16    17    2
    17    16    18   am
    18    18    19    1
    19    19    20   ar
    20    20    21   ar
    21    21    22   ar
    22    22    23    1
    23    23    24    1
    24    24    25    1
    25    25    26    1
    26    26    27    1
    27    27    28    1
    28    22    29   ar
    29    29    30   ar
    30    15     2    1
    31    30    19   ar
    32    11     6   ar
    33    28    23    1
    34     3    31    1
    35     3    32    1
    36     4    33    1
    37     5    34    1
    38     5    35    1
    39     7    36    1
    40     8    37    1
    41     9    38    1
    42    10    39    1
    43    11    40    1
    44    12    41    1
    45    15    42    1
    46    18    43    1
    47    20    44    1
    48    21    45    1
    49    23    46    1
    50    24    47    1
    51    24    48    1
    52    25    49    1
    53    25    50    1
    54    26    51    1
    55    26    52    1
    56    27    53    1
    57    27    54    1
    58    28    55    1
    59    28    56    1
    60    29    57    1
    61    30    58    1
