@<TRIPOS>MOLECULE
*****
 54 57 0 0 0
SMALL
GASTEIGER

@<TRIPOS>ATOM
      1 C          -0.7522   -3.7918    2.7334 C.3     1  UNL1        0.0127
      2 C          -1.6004   -3.6275    1.5571 C.2     1  UNL1        0.2169
      3 O          -2.6472   -4.3588    1.5172 O.2     1  UNL1       -0.2756
      4 N          -1.4291   -2.7681    0.4576 N.am    1  UNL1       -0.2685
      5 C          -0.2333   -2.0093    0.3137 C.ar    1  UNL1        0.0415
      6 C           0.9965   -2.5234    0.7201 C.ar    1  UNL1       -0.0394
      7 C           2.1457   -1.7645    0.5813 C.ar    1  UNL1       -0.0523
      8 C           2.0515   -0.5027    0.0374 C.ar    1  UNL1       -0.0175
      9 C           3.2832    0.2978   -0.1043 C.ar    1  UNL1       -0.0178
     10 C           4.3127    0.1706    0.7954 C.ar    1  UNL1       -0.0533
     11 C           5.4639    0.9122    0.6663 C.ar    1  UNL1       -0.0472
     12 C           5.6470    1.8189   -0.3672 C.ar    1  UNL1        0.0589
     13 C           6.8576    2.6030   -0.5073 C.2     1  UNL1        0.3368
     14 O           6.9649    3.4012   -1.4593 O.2     1  UNL1       -0.2451
     15 O           7.8893    2.4791    0.3948 O.3     1  UNL1       -0.4771
     16 C           4.5885    1.9204   -1.2545 C.ar    1  UNL1       -0.0472
     17 C           3.4311    1.1890   -1.1432 C.ar    1  UNL1       -0.0533
     18 C           0.8317   -0.0011   -0.3636 C.ar    1  UNL1       -0.0473
     19 C          -0.3178   -0.7484   -0.2293 C.ar    1  UNL1       -0.0053
     20 C          -1.6063   -0.1490   -0.6953 C.3     1  UNL1        0.0493
     21 N          -1.7328    1.1177    0.0481 N.pl3   1  UNL1       -0.3369
     22 C          -2.6848    2.1006   -0.3259 C.ar    1  UNL1        0.0277
     23 C          -3.4969    2.0046   -1.4171 C.ar    1  UNL1       -0.0395
     24 C          -4.4265    2.9820   -1.7249 C.ar    1  UNL1       -0.0416
     25 C          -4.5407    4.0732   -0.9232 C.ar    1  UNL1        0.0411
     26 CL         -5.7129    5.3240   -1.2951 Cl      1  UNL1       -0.0835
     27 C          -3.7382    4.1926    0.1749 C.ar    1  UNL1       -0.0416
     28 C          -2.8229    3.2300    0.4782 C.ar    1  UNL1       -0.0395
     29 C          -2.7753   -1.0416   -0.4089 C.3     1  UNL1       -0.0115
     30 C          -2.4124   -2.5146   -0.5750 C.3     1  UNL1        0.0303
     31 C          -3.6295   -3.3832   -0.5107 C.3     1  UNL1       -0.0460
     32 H          -0.2090   -2.8378    2.9720 H       1  UNL1        0.0323
     33 H          -0.1330   -4.6865    2.7711 H       1  UNL1        0.0323
     34 H          -1.4746   -3.8594    3.6199 H       1  UNL1        0.0323
     35 H           1.0133   -3.5088    1.1152 H       1  UNL1        0.0636
     36 H           3.0954   -2.1955    0.9102 H       1  UNL1        0.0624
     37 H           4.1829   -0.5388    1.6146 H       1  UNL1        0.0624
     38 H           6.2607    0.7780    1.4080 H       1  UNL1        0.0626
     39 H           8.8709    2.6422    0.1291 H       1  UNL1        0.2954
     40 H           4.7230    2.6374   -2.0792 H       1  UNL1        0.0626
     41 H           2.6290    1.3000   -1.8602 H       1  UNL1        0.0624
     42 H           0.7584    0.9813   -0.7876 H       1  UNL1        0.0628
     43 H          -1.5148    0.0674   -1.7727 H       1  UNL1        0.0549
     44 H          -1.1220    1.3198    0.8703 H       1  UNL1        0.1467
     45 H          -3.4121    1.1396   -2.0914 H       1  UNL1        0.0636
     46 H          -5.0449    2.8521   -2.6037 H       1  UNL1        0.0633
     47 H          -3.8626    5.0814    0.7885 H       1  UNL1        0.0633
     48 H          -2.1870    3.3448    1.3660 H       1  UNL1        0.0636
     49 H          -2.9672   -0.9388    0.7028 H       1  UNL1        0.0304
     50 H          -3.6884   -0.8269   -0.9442 H       1  UNL1        0.0304
     51 H          -1.9669   -2.6246   -1.5618 H       1  UNL1        0.0502
     52 H          -3.3260   -4.4281   -0.6879 H       1  UNL1        0.0248
     53 H          -4.2476   -3.1109   -1.4064 H       1  UNL1        0.0248
     54 H          -4.2817   -3.2209    0.3565 H       1  UNL1        0.0248
@<TRIPOS>BOND
     1     1     2    1
     2     2     3    2
     3     2     4   am
     4     4     5    1
     5     5     6   ar
     6     6     7   ar
     7     7     8   ar
     8     8     9    1
     9     9    10   ar
    10    10    11   ar
    11    11    12   ar
    12    12    13    1
    13    13    14    2
    14    13    15    1
    15    12    16   ar
    16    16    17   ar
    17     8    18   ar
    18    18    19   ar
    19    19    20    1
    20    20    21    1
    21    21    22    1
    22    22    23   ar
    23    23    24   ar
    24    24    25   ar
    25    25    26    1
    26    25    27   ar
    27    27    28   ar
    28    20    29    1
    29    29    30    1
    30    30    31    1
    31    30     4    1
    32    19     5   ar
    33    28    22   ar
    34    17     9   ar
    35     1    32    1
    36     1    33    1
    37     1    34    1
    38     6    35    1
    39     7    36    1
    40    10    37    1
    41    11    38    1
    42    15    39    1
    43    16    40    1
    44    17    41    1
    45    18    42    1
    46    20    43    1
    47    21    44    1
    48    23    45    1
    49    24    46    1
    50    27    47    1
    51    28    48    1
    52    29    49    1
    53    29    50    1
    54    30    51    1
    55    31    52    1
    56    31    53    1
    57    31    54    1
