
     RDKit          3D

 54 57  0  0  0  0  0  0  0  0999 V2000
   -0.7522   -3.7918    2.7334 C   0  0  0  0  0  0  0  0  0  0  0  0
   -1.6004   -3.6275    1.5571 C   0  0  0  0  0  0  0  0  0  0  0  0
   -2.6472   -4.3588    1.5172 O   0  0  0  0  0  0  0  0  0  0  0  0
   -1.4291   -2.7681    0.4576 N   0  0  0  0  0  0  0  0  0  0  0  0
   -0.2333   -2.0093    0.3137 C   0  0  0  0  0  0  0  0  0  0  0  0
    0.9965   -2.5234    0.7201 C   0  0  0  0  0  0  0  0  0  0  0  0
    2.1457   -1.7645    0.5813 C   0  0  0  0  0  0  0  0  0  0  0  0
    2.0515   -0.5027    0.0374 C   0  0  0  0  0  0  0  0  0  0  0  0
    3.2832    0.2978   -0.1043 C   0  0  0  0  0  0  0  0  0  0  0  0
    4.3127    0.1706    0.7954 C   0  0  0  0  0  0  0  0  0  0  0  0
    5.4639    0.9122    0.6663 C   0  0  0  0  0  0  0  0  0  0  0  0
    5.6470    1.8189   -0.3672 C   0  0  0  0  0  0  0  0  0  0  0  0
    6.8576    2.6030   -0.5073 C   0  0  0  0  0  0  0  0  0  0  0  0
    6.9649    3.4012   -1.4593 O   0  0  0  0  0  0  0  0  0  0  0  0
    7.8893    2.4791    0.3948 O   0  0  0  0  0  0  0  0  0  0  0  0
    4.5885    1.9204   -1.2545 C   0  0  0  0  0  0  0  0  0  0  0  0
    3.4311    1.1890   -1.1432 C   0  0  0  0  0  0  0  0  0  0  0  0
    0.8317   -0.0011   -0.3636 C   0  0  0  0  0  0  0  0  0  0  0  0
   -0.3178   -0.7484   -0.2293 C   0  0  0  0  0  0  0  0  0  0  0  0
   -1.6063   -0.1490   -0.6953 C   0  0  2  0  0  0  0  0  0  0  0  0
   -1.7328    1.1177    0.0481 N   0  0  0  0  0  0  0  0  0  0  0  0
   -2.6848    2.1006   -0.3259 C   0  0  0  0  0  0  0  0  0  0  0  0
   -3.4969    2.0046   -1.4171 C   0  0  0  0  0  0  0  0  0  0  0  0
   -4.4265    2.9820   -1.7249 C   0  0  0  0  0  0  0  0  0  0  0  0
   -4.5407    4.0732   -0.9232 C   0  0  0  0  0  0  0  0  0  0  0  0
   -5.7129    5.3240   -1.2951 Cl  0  0  0  0  0  0  0  0  0  0  0  0
   -3.7382    4.1926    0.1749 C   0  0  0  0  0  0  0  0  0  0  0  0
   -2.8229    3.2300    0.4782 C   0  0  0  0  0  0  0  0  0  0  0  0
   -2.7753   -1.0416   -0.4089 C   0  0  0  0  0  0  0  0  0  0  0  0
   -2.4124   -2.5146   -0.5750 C   0  0  2  0  0  0  0  0  0  0  0  0
   -3.6295   -3.3832   -0.5107 C   0  0  0  0  0  0  0  0  0  0  0  0
   -0.2090   -2.8378    2.9720 H   0  0  0  0  0  0  0  0  0  0  0  0
   -0.1330   -4.6865    2.7711 H   0  0  0  0  0  0  0  0  0  0  0  0
   -1.4746   -3.8594    3.6199 H   0  0  0  0  0  0  0  0  0  0  0  0
    1.0133   -3.5088    1.1152 H   0  0  0  0  0  0  0  0  0  0  0  0
    3.0954   -2.1955    0.9102 H   0  0  0  0  0  0  0  0  0  0  0  0
    4.1829   -0.5388    1.6146 H   0  0  0  0  0  0  0  0  0  0  0  0
    6.2607    0.7780    1.4080 H   0  0  0  0  0  0  0  0  0  0  0  0
    8.8709    2.6422    0.1291 H   0  0  0  0  0  0  0  0  0  0  0  0
    4.7230    2.6374   -2.0792 H   0  0  0  0  0  0  0  0  0  0  0  0
    2.6290    1.3000   -1.8602 H   0  0  0  0  0  0  0  0  0  0  0  0
    0.7584    0.9813   -0.7876 H   0  0  0  0  0  0  0  0  0  0  0  0
   -1.5148    0.0674   -1.7727 H   0  0  0  0  0  0  0  0  0  0  0  0
   -1.1220    1.3198    0.8703 H   0  0  0  0  0  0  0  0  0  0  0  0
   -3.4121    1.1396   -2.0914 H   0  0  0  0  0  0  0  0  0  0  0  0
   -5.0449    2.8521   -2.6037 H   0  0  0  0  0  0  0  0  0  0  0  0
   -3.8626    5.0814    0.7885 H   0  0  0  0  0  0  0  0  0  0  0  0
   -2.1870    3.3448    1.3660 H   0  0  0  0  0  0  0  0  0  0  0  0
   -2.9672   -0.9388    0.7028 H   0  0  0  0  0  0  0  0  0  0  0  0
   -3.6884   -0.8269   -0.9442 H   0  0  0  0  0  0  0  0  0  0  0  0
   -1.9669   -2.6246   -1.5618 H   0  0  0  0  0  0  0  0  0  0  0  0
   -3.3260   -4.4281   -0.6879 H   0  0  0  0  0  0  0  0  0  0  0  0
   -4.2476   -3.1109   -1.4064 H   0  0  0  0  0  0  0  0  0  0  0  0
   -4.2817   -3.2209    0.3565 H   0  0  0  0  0  0  0  0  0  0  0  0
  1  2  1  0
  2  3  2  0
  2  4  1  0
  4  5  1  0
  5  6  2  0
  6  7  1  0
  7  8  2  0
  8  9  1  0
  9 10  2  0
 10 11  1  0
 11 12  2  0
 12 13  1  0
 13 14  2  0
 13 15  1  0
 12 16  1  0
 16 17  2  0
  8 18  1  0
 18 19  2  0
 19 20  1  0
 20 21  1  0
 21 22  1  0
 22 23  2  0
 23 24  1  0
 24 25  2  0
 25 26  1  0
 25 27  1  0
 27 28  2  0
 20 29  1  0
 29 30  1  0
 30 31  1  0
 30  4  1  0
 19  5  1  0
 28 22  1  0
 17  9  1  0
  1 32  1  0
  1 33  1  0
  1 34  1  0
  6 35  1  0
  7 36  1  0
 10 37  1  0
 11 38  1  0
 15 39  1  0
 16 40  1  0
 17 41  1  0
 18 42  1  0
 20 43  1  6
 21 44  1  0
 23 45  1  0
 24 46  1  0
 27 47  1  0
 28 48  1  0
 29 49  1  0
 29 50  1  0
 30 51  1  6
 31 52  1  0
 31 53  1  0
 31 54  1  0
M  END
$$$$
