@<TRIPOS>MOLECULE
*****
 43 48 0 0 0
SMALL
GASTEIGER

@<TRIPOS>ATOM
      1 O          -3.9707   -0.2041   -0.4598 O.2     1  UNL1       -0.2863
      2 C          -2.8682   -0.6323   -0.0874 C.ar    1  UNL1        0.2023
      3 C          -2.6306   -1.9842   -0.2425 C.ar    1  UNL1        0.0646
      4 C          -3.6088   -2.8181   -0.7995 C.ar    1  UNL1       -0.0474
      5 C          -3.3284   -4.1613   -0.9353 C.ar    1  UNL1       -0.0609
      6 C          -2.1065   -4.6560   -0.5264 C.ar    1  UNL1       -0.0582
      7 C          -1.1372   -3.8256    0.0261 C.ar    1  UNL1       -0.0186
      8 C          -1.4183   -2.4826    0.1613 C.ar    1  UNL1        0.1393
      9 O          -0.5095   -1.6989    0.6806 O.2     1  UNL1       -0.4528
     10 C          -0.6593   -0.4256    0.8571 C.ar    1  UNL1        0.1607
     11 C           0.1621    0.5539    1.3772 C.ar    1  UNL1        0.0644
     12 C           1.5370    0.3492    1.9021 C.3     1  UNL1        0.0164
     13 C           2.5399    0.1853    0.8192 C.ar    1  UNL1       -0.0378
     14 C           2.8383   -1.0395    0.2633 C.ar    1  UNL1       -0.0545
     15 C           3.7919   -1.1727   -0.7525 C.ar    1  UNL1       -0.0159
     16 C           4.4618   -0.0743   -1.2259 C.ar    1  UNL1        0.1662
     17 C           4.1786    1.1553   -0.6850 C.ar    1  UNL1        0.1665
     18 C           3.2360    1.2840    0.3180 C.ar    1  UNL1       -0.0126
     19 O           5.0064    2.0690   -1.3598 O.3     1  UNL1       -0.4526
     20 C           6.1002    1.3501   -1.9461 C.3     1  UNL1        0.2332
     21 O           5.4510    0.1040   -2.2151 O.3     1  UNL1       -0.4526
     22 N          -0.5432    1.6815    1.2993 N.ar    1  UNL1       -0.3525
     23 C          -1.7736    1.4561    0.7527 C.ar    1  UNL1        0.0866
     24 C          -2.7488    2.5856    0.5699 C.ar    1  UNL1        0.1251
     25 N          -2.7842    3.7478    0.7771 N.ar    1  UNL1       -0.2458
     26 C          -3.7689    4.5766    0.5436 C.ar    1  UNL1        0.0355
     27 C          -4.8933    4.0360   -0.0060 C.ar    1  UNL1       -0.0042
     28 S          -4.4321    2.3038   -0.1522 S.2     1  UNL1       -0.0742
     29 C          -1.8787    0.1465    0.4640 C.ar    1  UNL1        0.0921
     30 H          -4.5456   -2.3713   -1.1010 H       1  UNL1        0.0626
     31 H          -4.0441   -4.8443   -1.3560 H       1  UNL1        0.0618
     32 H          -1.8856   -5.6944   -0.6293 H       1  UNL1        0.0619
     33 H          -0.1738   -4.1800    0.3552 H       1  UNL1        0.0654
     34 H           1.8454    1.2316    2.5287 H       1  UNL1        0.0377
     35 H           1.5617   -0.5146    2.6287 H       1  UNL1        0.0377
     36 H           2.3180   -1.9110    0.6270 H       1  UNL1        0.0622
     37 H           4.0266   -2.1318   -1.1893 H       1  UNL1        0.0655
     38 H           3.0250    2.2605    0.7336 H       1  UNL1        0.0658
     39 H           6.4477    1.7813   -2.8881 H       1  UNL1        0.1166
     40 H           6.9312    1.2269   -1.2168 H       1  UNL1        0.1166
     41 H          -0.1989    2.6092    1.6146 H       1  UNL1        0.1658
     42 H          -3.7084    5.6494    0.7721 H       1  UNL1        0.0835
     43 H          -5.8422    4.4790   -0.2972 H       1  UNL1        0.0709
@<TRIPOS>BOND
     1     1     2    2
     2     2     3   ar
     3     3     4   ar
     4     4     5   ar
     5     5     6   ar
     6     6     7   ar
     7     7     8   ar
     8     8     9   ar
     9     9    10   ar
    10    10    11   ar
    11    11    12    1
    12    12    13    1
    13    13    14   ar
    14    14    15   ar
    15    15    16   ar
    16    16    17   ar
    17    17    18   ar
    18    17    19    1
    19    19    20    1
    20    20    21    1
    21    11    22   ar
    22    22    23   ar
    23    23    24    1
    24    24    25   ar
    25    25    26   ar
    26    26    27   ar
    27    27    28   ar
    28    23    29   ar
    29    29     2   ar
    30     8     3   ar
    31    29    10   ar
    32    18    13   ar
    33    28    24   ar
    34    21    16    1
    35     4    30    1
    36     5    31    1
    37     6    32    1
    38     7    33    1
    39    12    34    1
    40    12    35    1
    41    14    36    1
    42    15    37    1
    43    18    38    1
    44    20    39    1
    45    20    40    1
    46    22    41    1
    47    26    42    1
    48    27    43    1
