
     RDKit          3D

 43 48  0  0  0  0  0  0  0  0999 V2000
   -3.9707   -0.2041   -0.4598 O   0  0  0  0  0  0  0  0  0  0  0  0
   -2.8682   -0.6323   -0.0874 C   0  0  0  0  0  0  0  0  0  0  0  0
   -2.6306   -1.9842   -0.2425 C   0  0  0  0  0  0  0  0  0  0  0  0
   -3.6088   -2.8181   -0.7995 C   0  0  0  0  0  0  0  0  0  0  0  0
   -3.3284   -4.1613   -0.9353 C   0  0  0  0  0  0  0  0  0  0  0  0
   -2.1065   -4.6560   -0.5264 C   0  0  0  0  0  0  0  0  0  0  0  0
   -1.1372   -3.8256    0.0261 C   0  0  0  0  0  0  0  0  0  0  0  0
   -1.4183   -2.4826    0.1613 C   0  0  0  0  0  0  0  0  0  0  0  0
   -0.5095   -1.6989    0.6806 O   0  0  0  0  0  0  0  0  0  0  0  0
   -0.6593   -0.4256    0.8571 C   0  0  0  0  0  0  0  0  0  0  0  0
    0.1621    0.5539    1.3772 C   0  0  0  0  0  0  0  0  0  0  0  0
    1.5370    0.3492    1.9021 C   0  0  0  0  0  0  0  0  0  0  0  0
    2.5399    0.1853    0.8192 C   0  0  0  0  0  0  0  0  0  0  0  0
    2.8383   -1.0395    0.2633 C   0  0  0  0  0  0  0  0  0  0  0  0
    3.7919   -1.1727   -0.7525 C   0  0  0  0  0  0  0  0  0  0  0  0
    4.4618   -0.0743   -1.2259 C   0  0  0  0  0  0  0  0  0  0  0  0
    4.1786    1.1553   -0.6850 C   0  0  0  0  0  0  0  0  0  0  0  0
    3.2360    1.2840    0.3180 C   0  0  0  0  0  0  0  0  0  0  0  0
    5.0064    2.0690   -1.3598 O   0  0  0  0  0  0  0  0  0  0  0  0
    6.1002    1.3501   -1.9461 C   0  0  0  0  0  0  0  0  0  0  0  0
    5.4510    0.1040   -2.2151 O   0  0  0  0  0  0  0  0  0  0  0  0
   -0.5432    1.6815    1.2993 N   0  0  0  0  0  0  0  0  0  0  0  0
   -1.7736    1.4561    0.7527 C   0  0  0  0  0  0  0  0  0  0  0  0
   -2.7488    2.5856    0.5699 C   0  0  0  0  0  0  0  0  0  0  0  0
   -2.7842    3.7478    0.7771 N   0  0  0  0  0  0  0  0  0  0  0  0
   -3.7689    4.5766    0.5436 C   0  0  0  0  0  0  0  0  0  0  0  0
   -4.8933    4.0360   -0.0060 C   0  0  0  0  0  0  0  0  0  0  0  0
   -4.4321    2.3038   -0.1522 S   0  0  0  0  0  0  0  0  0  0  0  0
   -1.8787    0.1465    0.4640 C   0  0  0  0  0  0  0  0  0  0  0  0
   -4.5456   -2.3713   -1.1010 H   0  0  0  0  0  0  0  0  0  0  0  0
   -4.0441   -4.8443   -1.3560 H   0  0  0  0  0  0  0  0  0  0  0  0
   -1.8856   -5.6944   -0.6293 H   0  0  0  0  0  0  0  0  0  0  0  0
   -0.1738   -4.1800    0.3552 H   0  0  0  0  0  0  0  0  0  0  0  0
    1.8454    1.2316    2.5287 H   0  0  0  0  0  0  0  0  0  0  0  0
    1.5617   -0.5146    2.6287 H   0  0  0  0  0  0  0  0  0  0  0  0
    2.3180   -1.9110    0.6270 H   0  0  0  0  0  0  0  0  0  0  0  0
    4.0266   -2.1318   -1.1893 H   0  0  0  0  0  0  0  0  0  0  0  0
    3.0250    2.2605    0.7336 H   0  0  0  0  0  0  0  0  0  0  0  0
    6.4477    1.7813   -2.8881 H   0  0  0  0  0  0  0  0  0  0  0  0
    6.9312    1.2269   -1.2168 H   0  0  0  0  0  0  0  0  0  0  0  0
   -0.1989    2.6092    1.6146 H   0  0  0  0  0  0  0  0  0  0  0  0
   -3.7084    5.6494    0.7721 H   0  0  0  0  0  0  0  0  0  0  0  0
   -5.8422    4.4790   -0.2972 H   0  0  0  0  0  0  0  0  0  0  0  0
  1  2  2  0
  2  3  1  0
  3  4  2  0
  4  5  1  0
  5  6  2  0
  6  7  1  0
  7  8  2  0
  8  9  1  0
  9 10  1  0
 10 11  2  0
 11 12  1  0
 12 13  1  0
 13 14  2  0
 14 15  1  0
 15 16  2  0
 16 17  1  0
 17 18  2  0
 17 19  1  0
 19 20  1  0
 20 21  1  0
 11 22  1  0
 22 23  1  0
 23 24  1  0
 24 25  2  0
 25 26  1  0
 26 27  2  0
 27 28  1  0
 23 29  2  0
 29  2  1  0
  8  3  1  0
 29 10  1  0
 18 13  1  0
 28 24  1  0
 21 16  1  0
  4 30  1  0
  5 31  1  0
  6 32  1  0
  7 33  1  0
 12 34  1  0
 12 35  1  0
 14 36  1  0
 15 37  1  0
 18 38  1  0
 20 39  1  0
 20 40  1  0
 22 41  1  0
 26 42  1  0
 27 43  1  0
M  END
$$$$
