
     RDKit          3D

 52 54  0  0  0  0  0  0  0  0999 V2000
    9.6046   -0.6488   -0.8826 C   0  0  0  0  0  0  0  0  0  0  0  0
    8.3889   -1.2863   -1.2121 O   0  0  0  0  0  0  0  0  0  0  0  0
    7.1960   -0.7282   -0.7142 C   0  0  0  0  0  0  0  0  0  0  0  0
    5.9751   -1.2983   -0.9965 C   0  0  0  0  0  0  0  0  0  0  0  0
    4.8141   -0.7646   -0.5185 N   0  0  0  0  0  0  0  0  0  0  0  0
    4.8389    0.3363    0.2429 C   0  0  0  0  0  0  0  0  0  0  0  0
    3.6259    0.9441    0.7770 C   0  0  0  0  0  0  0  0  0  0  0  0
    3.7539    1.9691    1.4762 O   0  0  0  0  0  0  0  0  0  0  0  0
    2.3476    0.4414    0.5470 N   0  0  0  0  0  0  0  0  0  0  0  0
    1.0914    0.9042    0.9845 C   0  0  0  0  0  0  0  0  0  0  0  0
    0.9887    2.0201    1.7675 C   0  0  0  0  0  0  0  0  0  0  0  0
   -0.2341    2.5174    2.2254 C   0  0  0  0  0  0  0  0  0  0  0  0
   -1.3641    1.8344    1.8566 C   0  0  0  0  0  0  0  0  0  0  0  0
   -2.5420    2.3580    2.3039 F   0  0  0  0  0  0  0  0  0  0  0  0
   -1.2842    0.7075    1.0688 C   0  0  0  0  0  0  0  0  0  0  0  0
   -2.5449   -0.0218    0.7181 C   0  0  2  0  0  0  0  0  0  0  0  0
   -3.0865   -0.6647    1.9411 C   0  0  0  0  0  0  0  0  0  0  0  0
   -3.4076    0.1534    2.9758 F   0  0  0  0  0  0  0  0  0  0  0  0
   -2.1855   -1.6082    2.4683 F   0  0  0  0  0  0  0  0  0  0  0  0
   -2.1275   -1.1303   -0.2541 C   0  0  0  0  0  0  0  0  0  0  0  0
   -3.6158   -1.8607   -0.8721 S   0  0  0  0  0  6  0  0  0  0  0  0
   -3.3221   -2.4652   -2.2473 O   0  0  0  0  0  0  0  0  0  0  0  0
   -4.0960   -2.9658    0.0443 O   0  0  0  0  0  0  0  0  0  0  0  0
   -4.8374   -0.6198   -1.0842 C   0  0  0  0  0  0  0  0  0  0  0  0
   -6.0924   -0.9748   -0.2597 C   0  0  0  0  0  0  0  0  0  0  0  0
   -5.2781   -0.6554   -2.5483 C   0  0  0  0  0  0  0  0  0  0  0  0
   -4.3429    0.7046   -0.7110 C   0  0  0  0  0  0  0  0  0  0  0  0
   -5.0161    1.8440   -1.2582 N   0  0  0  0  0  0  0  0  0  0  0  0
   -3.3797    0.9160    0.0475 N   0  0  0  0  0  0  0  0  0  0  0  0
   -0.0761    0.2450    0.6362 C   0  0  0  0  0  0  0  0  0  0  0  0
    6.0556    0.8983    0.5199 C   0  0  0  0  0  0  0  0  0  0  0  0
    7.2181    0.3724    0.0472 N   0  0  0  0  0  0  0  0  0  0  0  0
   10.0928   -0.3607   -1.8430 H   0  0  0  0  0  0  0  0  0  0  0  0
   10.2426   -1.3839   -0.3143 H   0  0  0  0  0  0  0  0  0  0  0  0
    9.4324    0.2762   -0.2748 H   0  0  0  0  0  0  0  0  0  0  0  0
    5.9504   -2.1831   -1.6080 H   0  0  0  0  0  0  0  0  0  0  0  0
    2.3205   -0.4391   -0.0613 H   0  0  0  0  0  0  0  0  0  0  0  0
    1.8348    2.6162    2.1023 H   0  0  0  0  0  0  0  0  0  0  0  0
   -0.2569    3.4026    2.8412 H   0  0  0  0  0  0  0  0  0  0  0  0
   -3.9754   -1.3092    1.6637 H   0  0  0  0  0  0  0  0  0  0  0  0
   -1.5508   -1.9145    0.2661 H   0  0  0  0  0  0  0  0  0  0  0  0
   -1.5942   -0.7077   -1.1385 H   0  0  0  0  0  0  0  0  0  0  0  0
   -6.0747   -2.0711   -0.0677 H   0  0  0  0  0  0  0  0  0  0  0  0
   -6.9931   -0.6902   -0.8415 H   0  0  0  0  0  0  0  0  0  0  0  0
   -6.1040   -0.3759    0.6745 H   0  0  0  0  0  0  0  0  0  0  0  0
   -5.6251   -1.6770   -2.7423 H   0  0  0  0  0  0  0  0  0  0  0  0
   -6.0371    0.0894   -2.7796 H   0  0  0  0  0  0  0  0  0  0  0  0
   -4.3872   -0.4274   -3.1757 H   0  0  0  0  0  0  0  0  0  0  0  0
   -4.8391    2.0784   -2.2544 H   0  0  0  0  0  0  0  0  0  0  0  0
   -5.6691    2.4517   -0.7268 H   0  0  0  0  0  0  0  0  0  0  0  0
    0.0282   -0.6463    0.0152 H   0  0  0  0  0  0  0  0  0  0  0  0
    6.1389    1.7983    1.1365 H   0  0  0  0  0  0  0  0  0  0  0  0
  1  2  1  0
  2  3  1  0
  3  4  2  0
  4  5  1  0
  5  6  2  0
  6  7  1  0
  7  8  2  0
  7  9  1  0
  9 10  1  0
 10 11  2  0
 11 12  1  0
 12 13  2  0
 13 14  1  0
 13 15  1  0
 15 16  1  0
 16 17  1  1
 17 18  1  0
 17 19  1  0
 16 20  1  0
 20 21  1  0
 21 22  2  0
 21 23  2  0
 21 24  1  0
 24 25  1  0
 24 26  1  0
 24 27  1  0
 27 28  1  0
 27 29  2  0
 15 30  2  0
  6 31  1  0
 31 32  2  0
 32  3  1  0
 30 10  1  0
 29 16  1  0
  1 33  1  0
  1 34  1  0
  1 35  1  0
  4 36  1  0
  9 37  1  0
 11 38  1  0
 12 39  1  0
 17 40  1  0
 20 41  1  0
 20 42  1  0
 25 43  1  0
 25 44  1  0
 25 45  1  0
 26 46  1  0
 26 47  1  0
 26 48  1  0
 28 49  1  0
 28 50  1  0
 30 51  1  0
 31 52  1  0
M  END
$$$$
