@<TRIPOS>MOLECULE
*****
 52 54 0 0 0
SMALL
GASTEIGER

@<TRIPOS>ATOM
      1 C           9.6046   -0.6488   -0.8826 C.3     1  UNL1        0.0805
      2 O           8.3889   -1.2863   -1.2121 O.3     1  UNL1       -0.4786
      3 C           7.1960   -0.7282   -0.7142 C.ar    1  UNL1        0.2332
      4 C           5.9751   -1.2983   -0.9965 C.ar    1  UNL1        0.0899
      5 N           4.8141   -0.7646   -0.5185 N.ar    1  UNL1       -0.2435
      6 C           4.8389    0.3363    0.2429 C.ar    1  UNL1        0.1439
      7 C           3.6259    0.9441    0.7770 C.2     1  UNL1        0.2681
      8 O           3.7539    1.9691    1.4762 O.2     1  UNL1       -0.2681
      9 N           2.3476    0.4414    0.5470 N.am    1  UNL1       -0.2802
     10 C           1.0914    0.9042    0.9845 C.ar    1  UNL1        0.0343
     11 C           0.9887    2.0201    1.7675 C.ar    1  UNL1       -0.0377
     12 C          -0.2341    2.5174    2.2254 C.ar    1  UNL1       -0.0243
     13 C          -1.3641    1.8344    1.8566 C.ar    1  UNL1        0.1313
     14 F          -2.5420    2.3580    2.3039 F       1  UNL1       -0.2050
     15 C          -1.2842    0.7075    1.0688 C.ar    1  UNL1        0.0479
     16 C          -2.5449   -0.0218    0.7181 C.3     1  UNL1        0.2578
     17 C          -3.0865   -0.6647    1.9411 C.3     1  UNL1        0.2915
     18 F          -3.4076    0.1534    2.9758 F       1  UNL1       -0.2037
     19 F          -2.1855   -1.6082    2.4683 F       1  UNL1       -0.2037
     20 C          -2.1275   -1.1303   -0.2541 C.3     1  UNL1        0.1242
     21 S          -3.6158   -1.8607   -0.8721 S.O2    1  UNL1       -0.0099
     22 O          -3.3221   -2.4652   -2.2473 O.2     1  UNL1       -0.1731
     23 O          -4.0960   -2.9658    0.0443 O.2     1  UNL1       -0.1731
     24 C          -4.8374   -0.6198   -1.0842 C.3     1  UNL1        0.1831
     25 C          -6.0924   -0.9748   -0.2597 C.3     1  UNL1       -0.0288
     26 C          -5.2781   -0.6554   -2.5483 C.3     1  UNL1       -0.0288
     27 C          -4.3429    0.7046   -0.7110 C.2     1  UNL1        0.3069
     28 N          -5.0161    1.8440   -1.2582 N.pl3   1  UNL1       -0.2488
     29 N          -3.3797    0.9160    0.0475 N.2     1  UNL1       -0.0666
     30 C          -0.0761    0.2450    0.6362 C.ar    1  UNL1       -0.0299
     31 C           6.0556    0.8983    0.5199 C.ar    1  UNL1        0.0619
     32 N           7.2181    0.3724    0.0472 N.ar    1  UNL1       -0.2178
     33 H          10.0928   -0.3607   -1.8430 H       1  UNL1        0.0660
     34 H          10.2426   -1.3839   -0.3143 H       1  UNL1        0.0660
     35 H           9.4324    0.2762   -0.2748 H       1  UNL1        0.0660
     36 H           5.9504   -2.1831   -1.6080 H       1  UNL1        0.0884
     37 H           2.3205   -0.4391   -0.0613 H       1  UNL1        0.1552
     38 H           1.8348    2.6162    2.1023 H       1  UNL1        0.0637
     39 H          -0.2569    3.4026    2.8412 H       1  UNL1        0.0647
     40 H          -3.9754   -1.3092    1.6637 H       1  UNL1        0.1072
     41 H          -1.5508   -1.9145    0.2661 H       1  UNL1        0.0553
     42 H          -1.5942   -0.7077   -1.1385 H       1  UNL1        0.0553
     43 H          -6.0747   -2.0711   -0.0677 H       1  UNL1        0.0256
     44 H          -6.9931   -0.6902   -0.8415 H       1  UNL1        0.0256
     45 H          -6.1040   -0.3759    0.6745 H       1  UNL1        0.0256
     46 H          -5.6251   -1.6770   -2.7423 H       1  UNL1        0.0256
     47 H          -6.0371    0.0894   -2.7796 H       1  UNL1        0.0256
     48 H          -4.3872   -0.4274   -3.1757 H       1  UNL1        0.0256
     49 H          -4.8391    2.0784   -2.2544 H       1  UNL1        0.2881
     50 H          -5.6691    2.4517   -0.7268 H       1  UNL1        0.2881
     51 H           0.0282   -0.6463    0.0152 H       1  UNL1        0.0641
     52 H           6.1389    1.7983    1.1365 H       1  UNL1        0.0854
@<TRIPOS>BOND
     1     1     2    1
     2     2     3    1
     3     3     4   ar
     4     4     5   ar
     5     5     6   ar
     6     6     7    1
     7     7     8    2
     8     7     9   am
     9     9    10    1
    10    10    11   ar
    11    11    12   ar
    12    12    13   ar
    13    13    14    1
    14    13    15   ar
    15    15    16    1
    16    16    17    1
    17    17    18    1
    18    17    19    1
    19    16    20    1
    20    20    21    1
    21    21    22    2
    22    21    23    2
    23    21    24    1
    24    24    25    1
    25    24    26    1
    26    24    27    1
    27    27    28    1
    28    27    29    2
    29    15    30   ar
    30     6    31   ar
    31    31    32   ar
    32    32     3   ar
    33    30    10   ar
    34    29    16    1
    35     1    33    1
    36     1    34    1
    37     1    35    1
    38     4    36    1
    39     9    37    1
    40    11    38    1
    41    12    39    1
    42    17    40    1
    43    20    41    1
    44    20    42    1
    45    25    43    1
    46    25    44    1
    47    25    45    1
    48    26    46    1
    49    26    47    1
    50    26    48    1
    51    28    49    1
    52    28    50    1
    53    30    51    1
    54    31    52    1
