@<TRIPOS>MOLECULE
*****
 50 53 0 0 0
SMALL
GASTEIGER

@<TRIPOS>ATOM
      1 O           3.4528   -0.9921    1.4702 O.2     1  UNL1       -0.2699
      2 C           2.6479   -0.1715    0.9716 C.2     1  UNL1        0.2484
      3 N           3.0674    1.1696    0.8180 N.am    1  UNL1       -0.2808
      4 C           4.3728    1.5222    1.2329 C.ar    1  UNL1        0.0477
      5 C           4.6229    1.9492    2.5095 C.ar    1  UNL1       -0.0397
      6 C           5.8801    2.3007    2.9486 C.ar    1  UNL1       -0.0600
      7 C           6.9278    2.2172    2.0611 C.ar    1  UNL1       -0.0609
      8 C           6.6740    1.7878    0.7787 C.ar    1  UNL1       -0.0460
      9 C           5.4219    1.4340    0.3292 C.ar    1  UNL1        0.0800
     10 C           5.2152    0.9869   -1.0396 C.2     1  UNL1        0.3386
     11 O           4.0971    0.6620   -1.4713 O.2     1  UNL1       -0.2451
     12 O           6.3121    0.9249   -1.8842 O.3     1  UNL1       -0.4771
     13 C           1.3238   -0.6310    0.5745 C.ar    1  UNL1        0.0405
     14 C           0.9694   -1.9540    0.7492 C.ar    1  UNL1       -0.0488
     15 C          -0.2692   -2.4182    0.3855 C.ar    1  UNL1       -0.0498
     16 C          -1.2234   -1.5949   -0.1712 C.ar    1  UNL1        0.0244
     17 C          -2.5421   -2.1196   -0.5637 C.ar    1  UNL1       -0.0144
     18 C          -3.1082   -1.8030   -1.7647 C.ar    1  UNL1       -0.0539
     19 C          -4.3571   -2.2966   -2.1428 C.ar    1  UNL1       -0.0612
     20 C          -5.0452   -3.1277   -1.2858 C.ar    1  UNL1       -0.0617
     21 C          -4.4790   -3.4513   -0.0714 C.ar    1  UNL1       -0.0612
     22 C          -3.2235   -2.9475    0.2942 C.ar    1  UNL1       -0.0539
     23 C          -0.8935   -0.2701   -0.3552 C.ar    1  UNL1        0.1368
     24 O          -1.7755    0.6115   -0.8987 O.3     1  UNL1       -0.4554
     25 C          -2.9983    1.0003   -0.4318 C.ar    1  UNL1        0.1285
     26 C          -3.8356    1.8298   -1.1417 C.ar    1  UNL1       -0.0193
     27 C          -5.0784    2.2083   -0.6341 C.ar    1  UNL1       -0.0583
     28 C          -5.4944    1.7564    0.5950 C.ar    1  UNL1       -0.0615
     29 C          -4.6675    0.9290    1.3114 C.ar    1  UNL1       -0.0583
     30 C          -3.4326    0.5602    0.7941 C.ar    1  UNL1       -0.0193
     31 C           0.3576    0.1768    0.0171 C.ar    1  UNL1       -0.0066
     32 H           2.4514    1.8905    0.4148 H       1  UNL1        0.1552
     33 H           3.7774    2.0088    3.1998 H       1  UNL1        0.0636
     34 H           6.0046    2.6302    3.9734 H       1  UNL1        0.0618
     35 H           7.9331    2.4787    2.3469 H       1  UNL1        0.0618
     36 H           7.5259    1.7333    0.1016 H       1  UNL1        0.0626
     37 H           6.3518    0.3150   -2.6967 H       1  UNL1        0.2954
     38 H           1.7304   -2.6119    1.1935 H       1  UNL1        0.0625
     39 H          -0.4840   -3.4721    0.5504 H       1  UNL1        0.0625
     40 H          -2.5988   -1.1633   -2.4456 H       1  UNL1        0.0624
     41 H          -4.7970   -2.0374   -3.1010 H       1  UNL1        0.0618
     42 H          -6.0278   -3.5114   -1.5921 H       1  UNL1        0.0618
     43 H          -5.0345   -4.1042    0.5860 H       1  UNL1        0.0618
     44 H          -2.7817   -3.2031    1.2476 H       1  UNL1        0.0624
     45 H          -3.5721    2.2143   -2.1000 H       1  UNL1        0.0654
     46 H          -5.7415    2.8604   -1.1875 H       1  UNL1        0.0619
     47 H          -6.4481    2.0188    1.0356 H       1  UNL1        0.0618
     48 H          -4.9868    0.5675    2.2818 H       1  UNL1        0.0619
     49 H          -2.8424   -0.0898    1.4298 H       1  UNL1        0.0654
     50 H           0.6204    1.2266   -0.1285 H       1  UNL1        0.0662
@<TRIPOS>BOND
     1     1     2    2
     2     2     3   am
     3     3     4    1
     4     4     5   ar
     5     5     6   ar
     6     6     7   ar
     7     7     8   ar
     8     8     9   ar
     9     9    10    1
    10    10    11    2
    11    10    12    1
    12     2    13    1
    13    13    14   ar
    14    14    15   ar
    15    15    16   ar
    16    16    17    1
    17    17    18   ar
    18    18    19   ar
    19    19    20   ar
    20    20    21   ar
    21    21    22   ar
    22    16    23   ar
    23    23    24    1
    24    24    25    1
    25    25    26   ar
    26    26    27   ar
    27    27    28   ar
    28    28    29   ar
    29    29    30   ar
    30    23    31   ar
    31     9     4   ar
    32    31    13   ar
    33    22    17   ar
    34    30    25   ar
    35     3    32    1
    36     5    33    1
    37     6    34    1
    38     7    35    1
    39     8    36    1
    40    12    37    1
    41    14    38    1
    42    15    39    1
    43    18    40    1
    44    19    41    1
    45    20    42    1
    46    21    43    1
    47    22    44    1
    48    26    45    1
    49    27    46    1
    50    28    47    1
    51    29    48    1
    52    30    49    1
    53    31    50    1
