
     RDKit          3D

 50 53  0  0  0  0  0  0  0  0999 V2000
    3.4528   -0.9921    1.4702 O   0  0  0  0  0  0  0  0  0  0  0  0
    2.6479   -0.1715    0.9716 C   0  0  0  0  0  0  0  0  0  0  0  0
    3.0674    1.1696    0.8180 N   0  0  0  0  0  0  0  0  0  0  0  0
    4.3728    1.5222    1.2329 C   0  0  0  0  0  0  0  0  0  0  0  0
    4.6229    1.9492    2.5095 C   0  0  0  0  0  0  0  0  0  0  0  0
    5.8801    2.3007    2.9486 C   0  0  0  0  0  0  0  0  0  0  0  0
    6.9278    2.2172    2.0611 C   0  0  0  0  0  0  0  0  0  0  0  0
    6.6740    1.7878    0.7787 C   0  0  0  0  0  0  0  0  0  0  0  0
    5.4219    1.4340    0.3292 C   0  0  0  0  0  0  0  0  0  0  0  0
    5.2152    0.9869   -1.0396 C   0  0  0  0  0  0  0  0  0  0  0  0
    4.0971    0.6620   -1.4713 O   0  0  0  0  0  0  0  0  0  0  0  0
    6.3121    0.9249   -1.8842 O   0  0  0  0  0  0  0  0  0  0  0  0
    1.3238   -0.6310    0.5745 C   0  0  0  0  0  0  0  0  0  0  0  0
    0.9694   -1.9540    0.7492 C   0  0  0  0  0  0  0  0  0  0  0  0
   -0.2692   -2.4182    0.3855 C   0  0  0  0  0  0  0  0  0  0  0  0
   -1.2234   -1.5949   -0.1712 C   0  0  0  0  0  0  0  0  0  0  0  0
   -2.5421   -2.1196   -0.5637 C   0  0  0  0  0  0  0  0  0  0  0  0
   -3.1082   -1.8030   -1.7647 C   0  0  0  0  0  0  0  0  0  0  0  0
   -4.3571   -2.2966   -2.1428 C   0  0  0  0  0  0  0  0  0  0  0  0
   -5.0452   -3.1277   -1.2858 C   0  0  0  0  0  0  0  0  0  0  0  0
   -4.4790   -3.4513   -0.0714 C   0  0  0  0  0  0  0  0  0  0  0  0
   -3.2235   -2.9475    0.2942 C   0  0  0  0  0  0  0  0  0  0  0  0
   -0.8935   -0.2701   -0.3552 C   0  0  0  0  0  0  0  0  0  0  0  0
   -1.7755    0.6115   -0.8987 O   0  0  0  0  0  0  0  0  0  0  0  0
   -2.9983    1.0003   -0.4318 C   0  0  0  0  0  0  0  0  0  0  0  0
   -3.8356    1.8298   -1.1417 C   0  0  0  0  0  0  0  0  0  0  0  0
   -5.0784    2.2083   -0.6341 C   0  0  0  0  0  0  0  0  0  0  0  0
   -5.4944    1.7564    0.5950 C   0  0  0  0  0  0  0  0  0  0  0  0
   -4.6675    0.9290    1.3114 C   0  0  0  0  0  0  0  0  0  0  0  0
   -3.4326    0.5602    0.7941 C   0  0  0  0  0  0  0  0  0  0  0  0
    0.3576    0.1768    0.0171 C   0  0  0  0  0  0  0  0  0  0  0  0
    2.4514    1.8905    0.4148 H   0  0  0  0  0  0  0  0  0  0  0  0
    3.7774    2.0088    3.1998 H   0  0  0  0  0  0  0  0  0  0  0  0
    6.0046    2.6302    3.9734 H   0  0  0  0  0  0  0  0  0  0  0  0
    7.9331    2.4787    2.3469 H   0  0  0  0  0  0  0  0  0  0  0  0
    7.5259    1.7333    0.1016 H   0  0  0  0  0  0  0  0  0  0  0  0
    6.3518    0.3150   -2.6967 H   0  0  0  0  0  0  0  0  0  0  0  0
    1.7304   -2.6119    1.1935 H   0  0  0  0  0  0  0  0  0  0  0  0
   -0.4840   -3.4721    0.5504 H   0  0  0  0  0  0  0  0  0  0  0  0
   -2.5988   -1.1633   -2.4456 H   0  0  0  0  0  0  0  0  0  0  0  0
   -4.7970   -2.0374   -3.1010 H   0  0  0  0  0  0  0  0  0  0  0  0
   -6.0278   -3.5114   -1.5921 H   0  0  0  0  0  0  0  0  0  0  0  0
   -5.0345   -4.1042    0.5860 H   0  0  0  0  0  0  0  0  0  0  0  0
   -2.7817   -3.2031    1.2476 H   0  0  0  0  0  0  0  0  0  0  0  0
   -3.5721    2.2143   -2.1000 H   0  0  0  0  0  0  0  0  0  0  0  0
   -5.7415    2.8604   -1.1875 H   0  0  0  0  0  0  0  0  0  0  0  0
   -6.4481    2.0188    1.0356 H   0  0  0  0  0  0  0  0  0  0  0  0
   -4.9868    0.5675    2.2818 H   0  0  0  0  0  0  0  0  0  0  0  0
   -2.8424   -0.0898    1.4298 H   0  0  0  0  0  0  0  0  0  0  0  0
    0.6204    1.2266   -0.1285 H   0  0  0  0  0  0  0  0  0  0  0  0
  1  2  2  0
  2  3  1  0
  3  4  1  0
  4  5  2  0
  5  6  1  0
  6  7  2  0
  7  8  1  0
  8  9  2  0
  9 10  1  0
 10 11  2  0
 10 12  1  0
  2 13  1  0
 13 14  2  0
 14 15  1  0
 15 16  2  0
 16 17  1  0
 17 18  2  0
 18 19  1  0
 19 20  2  0
 20 21  1  0
 21 22  2  0
 16 23  1  0
 23 24  1  0
 24 25  1  0
 25 26  2  0
 26 27  1  0
 27 28  2  0
 28 29  1  0
 29 30  2  0
 23 31  2  0
  9  4  1  0
 31 13  1  0
 22 17  1  0
 30 25  1  0
  3 32  1  0
  5 33  1  0
  6 34  1  0
  7 35  1  0
  8 36  1  0
 12 37  1  0
 14 38  1  0
 15 39  1  0
 18 40  1  0
 19 41  1  0
 20 42  1  0
 21 43  1  0
 22 44  1  0
 26 45  1  0
 27 46  1  0
 28 47  1  0
 29 48  1  0
 30 49  1  0
 31 50  1  0
M  END
$$$$
