@<TRIPOS>MOLECULE
*****
 19 19 0 0 0
SMALL
GASTEIGER

@<TRIPOS>ATOM
      1 O           2.6687    1.4360   -0.4981 O.2     1  UNL1       -0.2795
      2 C           2.8434    0.5704    0.3964 C.2     1  UNL1        0.2002
      3 N           2.1319   -0.6490    0.3653 N.am    1  UNL1       -0.3138
      4 C           1.1571   -1.0669   -0.6283 C.3     1  UNL1        0.0366
      5 C          -0.1062   -0.3677   -0.3735 C.ar    1  UNL1       -0.0303
      6 C          -1.0174   -0.9642    0.4929 C.ar    1  UNL1       -0.0571
      7 C          -2.2499   -0.4534    0.8448 C.ar    1  UNL1       -0.0615
      8 C          -2.6006    0.7678    0.2751 C.ar    1  UNL1       -0.0617
      9 C          -1.7410    1.4097   -0.5915 C.ar    1  UNL1       -0.0615
     10 C          -0.5241    0.8382   -0.8972 C.ar    1  UNL1       -0.0571
     11 H           3.5554    0.8133    1.1716 H       1  UNL1        0.1251
     12 H           2.3666   -1.2943    1.1706 H       1  UNL1        0.1488
     13 H           0.9920   -2.1555   -0.5167 H       1  UNL1        0.0511
     14 H           1.5910   -0.8300   -1.6240 H       1  UNL1        0.0511
     15 H          -0.7539   -1.9307    0.9513 H       1  UNL1        0.0621
     16 H          -2.8886   -0.9991    1.5315 H       1  UNL1        0.0618
     17 H          -3.5686    1.1802    0.5441 H       1  UNL1        0.0618
     18 H          -2.0125    2.3697   -1.0412 H       1  UNL1        0.0618
     19 H           0.1566    1.3256   -1.5731 H       1  UNL1        0.0621
@<TRIPOS>BOND
     1     1     2    2
     2     2     3   am
     3     3     4    1
     4     4     5    1
     5     5     6   ar
     6     6     7   ar
     7     7     8   ar
     8     8     9   ar
     9     9    10   ar
    10    10     5   ar
    11     2    11    1
    12     3    12    1
    13     4    13    1
    14     4    14    1
    15     6    15    1
    16     7    16    1
    17     8    17    1
    18     9    18    1
    19    10    19    1
