@<TRIPOS>MOLECULE
*****
 42 44 0 0 0
SMALL
GASTEIGER

@<TRIPOS>ATOM
      1 C           1.4331    0.7042   -2.7442 C.3     1  UNL1       -0.0242
      2 C           0.6154    1.0531   -1.5223 C.3     1  UNL1        0.1728
      3 O          -0.2601    2.0684   -1.8932 O.3     1  UNL1       -0.3764
      4 C           1.4597    1.5646   -0.3919 C.3     1  UNL1        0.1265
      5 O           2.3903    0.6026    0.0632 O.3     1  UNL1       -0.4886
      6 C           3.2789    0.8149    1.0833 C.ar    1  UNL1        0.1208
      7 C           4.1362   -0.2043    1.4338 C.ar    1  UNL1       -0.0172
      8 C           5.0589   -0.0766    2.4448 C.ar    1  UNL1       -0.0230
      9 C           5.1400    1.1209    3.1476 C.ar    1  UNL1        0.1236
     10 F           6.0511    1.2413    4.1428 F       1  UNL1       -0.2055
     11 C           4.2889    2.1502    2.8087 C.ar    1  UNL1       -0.0230
     12 C           3.3515    2.0249    1.7839 C.ar    1  UNL1       -0.0172
     13 C          -0.0926   -0.1579   -1.0682 C.2     1  UNL1        0.2546
     14 O           0.5858   -1.1729   -0.6988 O.2     1  UNL1       -0.2720
     15 N          -1.5080   -0.2632   -1.0168 N.am    1  UNL1       -0.2683
     16 C          -2.4147    0.8027   -1.4006 C.3     1  UNL1        0.0240
     17 C          -3.7907    0.3011   -1.1082 C.3     1  UNL1       -0.0084
     18 C          -3.6133   -1.0980   -0.6356 C.ar    1  UNL1       -0.0071
     19 C          -4.5655   -2.0338   -0.2714 C.ar    1  UNL1        0.0568
     20 C          -5.9716   -1.7467   -0.3077 C.1     1  UNL1        0.0995
     21 N          -7.1231   -1.5144   -0.3172 N.1     1  UNL1       -0.1909
     22 C          -4.1896   -3.2923    0.1444 C.ar    1  UNL1       -0.0440
     23 C          -2.8580   -3.5931    0.1884 C.ar    1  UNL1       -0.0588
     24 C          -1.8875   -2.6639   -0.1744 C.ar    1  UNL1       -0.0399
     25 C          -2.2684   -1.3879   -0.5960 C.ar    1  UNL1        0.0408
     26 H           0.9648   -0.1765   -3.2298 H       1  UNL1        0.0263
     27 H           1.4157    1.5251   -3.4916 H       1  UNL1        0.0263
     28 H           2.4678    0.4329   -2.5026 H       1  UNL1        0.0263
     29 H          -0.0634    2.4291   -2.7918 H       1  UNL1        0.2109
     30 H           0.7741    1.7791    0.4568 H       1  UNL1        0.0731
     31 H           1.9229    2.5248   -0.6663 H       1  UNL1        0.0731
     32 H           4.0689   -1.1319    0.8846 H       1  UNL1        0.0655
     33 H           5.6946   -0.9243    2.6571 H       1  UNL1        0.0647
     34 H           4.3767    3.0694    3.3745 H       1  UNL1        0.0647
     35 H           2.6897    2.8371    1.5264 H       1  UNL1        0.0655
     36 H          -2.2692    1.7217   -0.7664 H       1  UNL1        0.0472
     37 H          -2.2539    1.0118   -2.4800 H       1  UNL1        0.0472
     38 H          -4.2975    0.8605   -0.3032 H       1  UNL1        0.0329
     39 H          -4.4026    0.3340   -2.0350 H       1  UNL1        0.0329
     40 H          -4.9272   -4.0375    0.4335 H       1  UNL1        0.0630
     41 H          -2.5545   -4.5781    0.5134 H       1  UNL1        0.0619
     42 H          -0.8535   -2.9209   -0.1322 H       1  UNL1        0.0636
@<TRIPOS>BOND
     1     1     2    1
     2     2     3    1
     3     2     4    1
     4     4     5    1
     5     5     6    1
     6     6     7   ar
     7     7     8   ar
     8     8     9   ar
     9     9    10    1
    10     9    11   ar
    11    11    12   ar
    12     2    13    1
    13    13    14    2
    14    13    15   am
    15    15    16    1
    16    16    17    1
    17    17    18    1
    18    18    19   ar
    19    19    20    1
    20    20    21    3
    21    19    22   ar
    22    22    23   ar
    23    23    24   ar
    24    24    25   ar
    25    12     6   ar
    26    25    15    1
    27    25    18   ar
    28     1    26    1
    29     1    27    1
    30     1    28    1
    31     3    29    1
    32     4    30    1
    33     4    31    1
    34     7    32    1
    35     8    33    1
    36    11    34    1
    37    12    35    1
    38    16    36    1
    39    16    37    1
    40    17    38    1
    41    17    39    1
    42    22    40    1
    43    23    41    1
    44    24    42    1
