
     RDKit          3D

 42 44  0  0  0  0  0  0  0  0999 V2000
    1.4331    0.7042   -2.7442 C   0  0  0  0  0  0  0  0  0  0  0  0
    0.6154    1.0531   -1.5223 C   0  0  2  0  0  0  0  0  0  0  0  0
   -0.2601    2.0684   -1.8932 O   0  0  0  0  0  0  0  0  0  0  0  0
    1.4597    1.5646   -0.3919 C   0  0  0  0  0  0  0  0  0  0  0  0
    2.3903    0.6026    0.0632 O   0  0  0  0  0  0  0  0  0  0  0  0
    3.2789    0.8149    1.0833 C   0  0  0  0  0  0  0  0  0  0  0  0
    4.1362   -0.2043    1.4338 C   0  0  0  0  0  0  0  0  0  0  0  0
    5.0589   -0.0766    2.4448 C   0  0  0  0  0  0  0  0  0  0  0  0
    5.1400    1.1209    3.1476 C   0  0  0  0  0  0  0  0  0  0  0  0
    6.0511    1.2413    4.1428 F   0  0  0  0  0  0  0  0  0  0  0  0
    4.2889    2.1502    2.8087 C   0  0  0  0  0  0  0  0  0  0  0  0
    3.3515    2.0249    1.7839 C   0  0  0  0  0  0  0  0  0  0  0  0
   -0.0926   -0.1579   -1.0682 C   0  0  0  0  0  0  0  0  0  0  0  0
    0.5858   -1.1729   -0.6988 O   0  0  0  0  0  0  0  0  0  0  0  0
   -1.5080   -0.2632   -1.0168 N   0  0  0  0  0  0  0  0  0  0  0  0
   -2.4147    0.8027   -1.4006 C   0  0  0  0  0  0  0  0  0  0  0  0
   -3.7907    0.3011   -1.1082 C   0  0  0  0  0  0  0  0  0  0  0  0
   -3.6133   -1.0980   -0.6356 C   0  0  0  0  0  0  0  0  0  0  0  0
   -4.5655   -2.0338   -0.2714 C   0  0  0  0  0  0  0  0  0  0  0  0
   -5.9716   -1.7467   -0.3077 C   0  0  0  0  0  0  0  0  0  0  0  0
   -7.1231   -1.5144   -0.3172 N   0  0  0  0  0  0  0  0  0  0  0  0
   -4.1896   -3.2923    0.1444 C   0  0  0  0  0  0  0  0  0  0  0  0
   -2.8580   -3.5931    0.1884 C   0  0  0  0  0  0  0  0  0  0  0  0
   -1.8875   -2.6639   -0.1744 C   0  0  0  0  0  0  0  0  0  0  0  0
   -2.2684   -1.3879   -0.5960 C   0  0  0  0  0  0  0  0  0  0  0  0
    0.9648   -0.1765   -3.2298 H   0  0  0  0  0  0  0  0  0  0  0  0
    1.4157    1.5251   -3.4916 H   0  0  0  0  0  0  0  0  0  0  0  0
    2.4678    0.4329   -2.5026 H   0  0  0  0  0  0  0  0  0  0  0  0
   -0.0634    2.4291   -2.7918 H   0  0  0  0  0  0  0  0  0  0  0  0
    0.7741    1.7791    0.4568 H   0  0  0  0  0  0  0  0  0  0  0  0
    1.9229    2.5248   -0.6663 H   0  0  0  0  0  0  0  0  0  0  0  0
    4.0689   -1.1319    0.8846 H   0  0  0  0  0  0  0  0  0  0  0  0
    5.6946   -0.9243    2.6571 H   0  0  0  0  0  0  0  0  0  0  0  0
    4.3767    3.0694    3.3745 H   0  0  0  0  0  0  0  0  0  0  0  0
    2.6897    2.8371    1.5264 H   0  0  0  0  0  0  0  0  0  0  0  0
   -2.2692    1.7217   -0.7664 H   0  0  0  0  0  0  0  0  0  0  0  0
   -2.2539    1.0118   -2.4800 H   0  0  0  0  0  0  0  0  0  0  0  0
   -4.2975    0.8605   -0.3032 H   0  0  0  0  0  0  0  0  0  0  0  0
   -4.4026    0.3340   -2.0350 H   0  0  0  0  0  0  0  0  0  0  0  0
   -4.9272   -4.0375    0.4335 H   0  0  0  0  0  0  0  0  0  0  0  0
   -2.5545   -4.5781    0.5134 H   0  0  0  0  0  0  0  0  0  0  0  0
   -0.8535   -2.9209   -0.1322 H   0  0  0  0  0  0  0  0  0  0  0  0
  1  2  1  0
  2  3  1  6
  2  4  1  0
  4  5  1  0
  5  6  1  0
  6  7  2  0
  7  8  1  0
  8  9  2  0
  9 10  1  0
  9 11  1  0
 11 12  2  0
  2 13  1  0
 13 14  2  0
 13 15  1  0
 15 16  1  0
 16 17  1  0
 17 18  1  0
 18 19  2  0
 19 20  1  0
 20 21  3  0
 19 22  1  0
 22 23  2  0
 23 24  1  0
 24 25  2  0
 12  6  1  0
 25 15  1  0
 25 18  1  0
  1 26  1  0
  1 27  1  0
  1 28  1  0
  3 29  1  0
  4 30  1  0
  4 31  1  0
  7 32  1  0
  8 33  1  0
 11 34  1  0
 12 35  1  0
 16 36  1  0
 16 37  1  0
 17 38  1  0
 17 39  1  0
 22 40  1  0
 23 41  1  0
 24 42  1  0
M  END
$$$$
