@<TRIPOS>MOLECULE
*****
 71 73 0 0 0
SMALL
GASTEIGER

@<TRIPOS>ATOM
      1 C          -0.1646    4.1205   -1.7182 C.3     1  UNL1       -0.0652
      2 C          -1.6330    3.7876   -1.6683 C.3     1  UNL1       -0.0544
      3 C          -1.8710    2.2861   -1.7023 C.3     1  UNL1       -0.0357
      4 C          -1.2119    1.6736   -0.5383 C.3     1  UNL1        0.0350
      5 N          -1.3141    0.2389   -0.3811 N.pl3   1  UNL1       -0.2027
      6 C          -2.3893   -0.1902    0.4637 C.ar    1  UNL1        0.0547
      7 C          -2.1757   -0.1578    1.8453 C.ar    1  UNL1       -0.0388
      8 C          -3.1916   -0.4677    2.7009 C.ar    1  UNL1       -0.0594
      9 C          -4.4173   -0.8089    2.1961 C.ar    1  UNL1       -0.0537
     10 C          -4.6710   -0.8533    0.8158 C.ar    1  UNL1       -0.0132
     11 C          -6.0067   -1.2359    0.4263 C.ar    1  UNL1       -0.0175
     12 C          -7.0595   -0.4986    0.9564 C.ar    1  UNL1       -0.0526
     13 C          -8.3753   -0.7938    0.6655 C.ar    1  UNL1       -0.0428
     14 C          -8.6767   -1.8395   -0.1676 C.ar    1  UNL1        0.0410
     15 CL        -10.3456   -2.2498   -0.5648 Cl      1  UNL1       -0.0835
     16 C          -7.6539   -2.5909   -0.7097 C.ar    1  UNL1       -0.0428
     17 C          -6.3344   -2.2727   -0.4002 C.ar    1  UNL1       -0.0526
     18 C          -3.6321   -0.5386   -0.0105 C.ar    1  UNL1       -0.0202
     19 C          -3.8597   -0.6082   -1.4781 C.3     1  UNL1       -0.0373
     20 S          -0.2242   -0.8480   -1.0751 S.O2    1  UNL1        0.0750
     21 O          -0.7577   -2.2685   -0.8579 O.2     1  UNL1       -0.1498
     22 O          -0.3209   -0.6973   -2.5987 O.2     1  UNL1       -0.1498
     23 C           1.4191   -0.7661   -0.6276 C.ar    1  UNL1        0.1121
     24 C           2.3737   -0.3414   -1.5696 C.ar    1  UNL1       -0.0313
     25 C           3.7106   -0.2245   -1.2558 C.ar    1  UNL1       -0.0178
     26 C           4.1706   -0.5251    0.0166 C.ar    1  UNL1        0.1250
     27 O           5.4909   -0.4341    0.4119 O.3     1  UNL1       -0.4774
     28 C           6.5924   -0.0472   -0.3300 C.3     1  UNL1        0.1956
     29 C           7.2117    1.2540    0.2081 C.3     1  UNL1       -0.0080
     30 C           7.6486    1.0254    1.6586 C.3     1  UNL1       -0.0614
     31 C           7.7114   -1.0409   -0.2599 C.2     1  UNL1        0.3459
     32 O           7.6518   -2.0994    0.4007 O.2     1  UNL1       -0.2468
     33 O           8.8706   -0.7670   -0.9661 O.3     1  UNL1       -0.4781
     34 C           3.2463   -0.9447    0.9551 C.ar    1  UNL1       -0.0040
     35 C           3.6957   -1.2759    2.3264 C.3     1  UNL1       -0.0359
     36 C           1.9084   -1.0514    0.6041 C.ar    1  UNL1       -0.0175
     37 C           0.9957   -1.5411    1.6508 C.3     1  UNL1       -0.0375
     38 H           0.2972    3.5980   -2.5862 H       1  UNL1        0.0230
     39 H          -0.0847    5.2143   -1.9564 H       1  UNL1        0.0230
     40 H           0.3244    3.9021   -0.7705 H       1  UNL1        0.0230
     41 H          -2.2154    4.3083   -2.4367 H       1  UNL1        0.0263
     42 H          -2.0089    4.1351   -0.6718 H       1  UNL1        0.0263
     43 H          -2.9889    2.1802   -1.7029 H       1  UNL1        0.0281
     44 H          -1.4441    1.9424   -2.6834 H       1  UNL1        0.0281
     45 H          -1.5177    2.2059    0.3893 H       1  UNL1        0.0482
     46 H          -0.1053    1.8822   -0.6320 H       1  UNL1        0.0482
     47 H          -1.2202    0.1221    2.2391 H       1  UNL1        0.0637
     48 H          -2.9968   -0.4349    3.7855 H       1  UNL1        0.0618
     49 H          -5.2165   -1.0524    2.8895 H       1  UNL1        0.0624
     50 H          -6.8724    0.3386    1.6209 H       1  UNL1        0.0624
     51 H          -9.1924   -0.2153    1.0821 H       1  UNL1        0.0632
     52 H          -7.9209   -3.4109   -1.3640 H       1  UNL1        0.0632
     53 H          -5.5709   -2.8967   -0.8350 H       1  UNL1        0.0624
     54 H          -3.0630   -0.1811   -2.0814 H       1  UNL1        0.0278
     55 H          -4.8740   -0.2836   -1.7014 H       1  UNL1        0.0278
     56 H          -3.8122   -1.7198   -1.7147 H       1  UNL1        0.0278
     57 H           2.0405   -0.0991   -2.5750 H       1  UNL1        0.0638
     58 H           4.4313    0.1099   -2.0129 H       1  UNL1        0.0655
     59 H           6.3071    0.1801   -1.3573 H       1  UNL1        0.0851
     60 H           6.4143    2.0001    0.2286 H       1  UNL1        0.0304
     61 H           8.1097    1.5252   -0.3441 H       1  UNL1        0.0304
     62 H           6.7777    1.1621    2.3449 H       1  UNL1        0.0231
     63 H           8.1000    0.0109    1.7654 H       1  UNL1        0.0231
     64 H           8.3870    1.7909    1.9612 H       1  UNL1        0.0231
     65 H           9.5750   -1.4578   -1.1838 H       1  UNL1        0.2952
     66 H           3.0880   -0.7254    3.0822 H       1  UNL1        0.0279
     67 H           4.7715   -1.0299    2.4055 H       1  UNL1        0.0279
     68 H           3.6428   -2.3886    2.5146 H       1  UNL1        0.0279
     69 H           0.9630   -0.7873    2.4671 H       1  UNL1        0.0278
     70 H           1.4345   -2.4448    2.1841 H       1  UNL1        0.0278
     71 H           0.0288   -1.8882    1.2891 H       1  UNL1        0.0278
@<TRIPOS>BOND
     1     1     2    1
     2     2     3    1
     3     3     4    1
     4     4     5    1
     5     5     6    1
     6     6     7   ar
     7     7     8   ar
     8     8     9   ar
     9     9    10   ar
    10    10    11    1
    11    11    12   ar
    12    12    13   ar
    13    13    14   ar
    14    14    15    1
    15    14    16   ar
    16    16    17   ar
    17    10    18   ar
    18    18    19    1
    19     5    20    1
    20    20    21    2
    21    20    22    2
    22    20    23    1
    23    23    24   ar
    24    24    25   ar
    25    25    26   ar
    26    26    27    1
    27    27    28    1
    28    28    29    1
    29    29    30    1
    30    28    31    1
    31    31    32    2
    32    31    33    1
    33    26    34   ar
    34    34    35    1
    35    34    36   ar
    36    36    37    1
    37    18     6   ar
    38    36    23   ar
    39    17    11   ar
    40     1    38    1
    41     1    39    1
    42     1    40    1
    43     2    41    1
    44     2    42    1
    45     3    43    1
    46     3    44    1
    47     4    45    1
    48     4    46    1
    49     7    47    1
    50     8    48    1
    51     9    49    1
    52    12    50    1
    53    13    51    1
    54    16    52    1
    55    17    53    1
    56    19    54    1
    57    19    55    1
    58    19    56    1
    59    24    57    1
    60    25    58    1
    61    28    59    1
    62    29    60    1
    63    29    61    1
    64    30    62    1
    65    30    63    1
    66    30    64    1
    67    33    65    1
    68    35    66    1
    69    35    67    1
    70    35    68    1
    71    37    69    1
    72    37    70    1
    73    37    71    1
