
     RDKit          3D

 71 73  0  0  0  0  0  0  0  0999 V2000
   -0.1646    4.1205   -1.7182 C   0  0  0  0  0  0  0  0  0  0  0  0
   -1.6330    3.7876   -1.6683 C   0  0  0  0  0  0  0  0  0  0  0  0
   -1.8710    2.2861   -1.7023 C   0  0  0  0  0  0  0  0  0  0  0  0
   -1.2119    1.6736   -0.5383 C   0  0  0  0  0  0  0  0  0  0  0  0
   -1.3141    0.2389   -0.3811 N   0  0  0  0  0  0  0  0  0  0  0  0
   -2.3893   -0.1902    0.4637 C   0  0  0  0  0  0  0  0  0  0  0  0
   -2.1757   -0.1578    1.8453 C   0  0  0  0  0  0  0  0  0  0  0  0
   -3.1916   -0.4677    2.7009 C   0  0  0  0  0  0  0  0  0  0  0  0
   -4.4173   -0.8089    2.1961 C   0  0  0  0  0  0  0  0  0  0  0  0
   -4.6710   -0.8533    0.8158 C   0  0  0  0  0  0  0  0  0  0  0  0
   -6.0067   -1.2359    0.4263 C   0  0  0  0  0  0  0  0  0  0  0  0
   -7.0595   -0.4986    0.9564 C   0  0  0  0  0  0  0  0  0  0  0  0
   -8.3753   -0.7938    0.6655 C   0  0  0  0  0  0  0  0  0  0  0  0
   -8.6767   -1.8395   -0.1676 C   0  0  0  0  0  0  0  0  0  0  0  0
  -10.3456   -2.2498   -0.5648 Cl  0  0  0  0  0  0  0  0  0  0  0  0
   -7.6539   -2.5909   -0.7097 C   0  0  0  0  0  0  0  0  0  0  0  0
   -6.3344   -2.2727   -0.4002 C   0  0  0  0  0  0  0  0  0  0  0  0
   -3.6321   -0.5386   -0.0105 C   0  0  0  0  0  0  0  0  0  0  0  0
   -3.8597   -0.6082   -1.4781 C   0  0  0  0  0  0  0  0  0  0  0  0
   -0.2242   -0.8480   -1.0751 S   0  0  0  0  0  6  0  0  0  0  0  0
   -0.7577   -2.2685   -0.8579 O   0  0  0  0  0  0  0  0  0  0  0  0
   -0.3209   -0.6973   -2.5987 O   0  0  0  0  0  0  0  0  0  0  0  0
    1.4191   -0.7661   -0.6276 C   0  0  0  0  0  0  0  0  0  0  0  0
    2.3737   -0.3414   -1.5696 C   0  0  0  0  0  0  0  0  0  0  0  0
    3.7106   -0.2245   -1.2558 C   0  0  0  0  0  0  0  0  0  0  0  0
    4.1706   -0.5251    0.0166 C   0  0  0  0  0  0  0  0  0  0  0  0
    5.4909   -0.4341    0.4119 O   0  0  0  0  0  0  0  0  0  0  0  0
    6.5924   -0.0472   -0.3300 C   0  0  0  0  0  0  0  0  0  0  0  0
    7.2117    1.2540    0.2081 C   0  0  0  0  0  0  0  0  0  0  0  0
    7.6486    1.0254    1.6586 C   0  0  0  0  0  0  0  0  0  0  0  0
    7.7114   -1.0409   -0.2599 C   0  0  0  0  0  0  0  0  0  0  0  0
    7.6518   -2.0994    0.4007 O   0  0  0  0  0  0  0  0  0  0  0  0
    8.8706   -0.7670   -0.9661 O   0  0  0  0  0  0  0  0  0  0  0  0
    3.2463   -0.9447    0.9551 C   0  0  0  0  0  0  0  0  0  0  0  0
    3.6957   -1.2759    2.3264 C   0  0  0  0  0  0  0  0  0  0  0  0
    1.9084   -1.0514    0.6041 C   0  0  0  0  0  0  0  0  0  0  0  0
    0.9957   -1.5411    1.6508 C   0  0  0  0  0  0  0  0  0  0  0  0
    0.2972    3.5980   -2.5862 H   0  0  0  0  0  0  0  0  0  0  0  0
   -0.0847    5.2143   -1.9564 H   0  0  0  0  0  0  0  0  0  0  0  0
    0.3244    3.9021   -0.7705 H   0  0  0  0  0  0  0  0  0  0  0  0
   -2.2154    4.3083   -2.4367 H   0  0  0  0  0  0  0  0  0  0  0  0
   -2.0089    4.1351   -0.6718 H   0  0  0  0  0  0  0  0  0  0  0  0
   -2.9889    2.1802   -1.7029 H   0  0  0  0  0  0  0  0  0  0  0  0
   -1.4441    1.9424   -2.6834 H   0  0  0  0  0  0  0  0  0  0  0  0
   -1.5177    2.2059    0.3893 H   0  0  0  0  0  0  0  0  0  0  0  0
   -0.1053    1.8822   -0.6320 H   0  0  0  0  0  0  0  0  0  0  0  0
   -1.2202    0.1221    2.2391 H   0  0  0  0  0  0  0  0  0  0  0  0
   -2.9968   -0.4349    3.7855 H   0  0  0  0  0  0  0  0  0  0  0  0
   -5.2165   -1.0524    2.8895 H   0  0  0  0  0  0  0  0  0  0  0  0
   -6.8724    0.3386    1.6209 H   0  0  0  0  0  0  0  0  0  0  0  0
   -9.1924   -0.2153    1.0821 H   0  0  0  0  0  0  0  0  0  0  0  0
   -7.9209   -3.4109   -1.3640 H   0  0  0  0  0  0  0  0  0  0  0  0
   -5.5709   -2.8967   -0.8350 H   0  0  0  0  0  0  0  0  0  0  0  0
   -3.0630   -0.1811   -2.0814 H   0  0  0  0  0  0  0  0  0  0  0  0
   -4.8740   -0.2836   -1.7014 H   0  0  0  0  0  0  0  0  0  0  0  0
   -3.8122   -1.7198   -1.7147 H   0  0  0  0  0  0  0  0  0  0  0  0
    2.0405   -0.0991   -2.5750 H   0  0  0  0  0  0  0  0  0  0  0  0
    4.4313    0.1099   -2.0129 H   0  0  0  0  0  0  0  0  0  0  0  0
    6.3071    0.1801   -1.3573 H   0  0  0  0  0  0  0  0  0  0  0  0
    6.4143    2.0001    0.2286 H   0  0  0  0  0  0  0  0  0  0  0  0
    8.1097    1.5252   -0.3441 H   0  0  0  0  0  0  0  0  0  0  0  0
    6.7777    1.1621    2.3449 H   0  0  0  0  0  0  0  0  0  0  0  0
    8.1000    0.0109    1.7654 H   0  0  0  0  0  0  0  0  0  0  0  0
    8.3870    1.7909    1.9612 H   0  0  0  0  0  0  0  0  0  0  0  0
    9.5750   -1.4578   -1.1838 H   0  0  0  0  0  0  0  0  0  0  0  0
    3.0880   -0.7254    3.0822 H   0  0  0  0  0  0  0  0  0  0  0  0
    4.7715   -1.0299    2.4055 H   0  0  0  0  0  0  0  0  0  0  0  0
    3.6428   -2.3886    2.5146 H   0  0  0  0  0  0  0  0  0  0  0  0
    0.9630   -0.7873    2.4671 H   0  0  0  0  0  0  0  0  0  0  0  0
    1.4345   -2.4448    2.1841 H   0  0  0  0  0  0  0  0  0  0  0  0
    0.0288   -1.8882    1.2891 H   0  0  0  0  0  0  0  0  0  0  0  0
  1  2  1  0
  2  3  1  0
  3  4  1  0
  4  5  1  0
  5  6  1  0
  6  7  2  0
  7  8  1  0
  8  9  2  0
  9 10  1  0
 10 11  1  0
 11 12  2  0
 12 13  1  0
 13 14  2  0
 14 15  1  0
 14 16  1  0
 16 17  2  0
 10 18  2  0
 18 19  1  0
  5 20  1  0
 20 21  2  0
 20 22  2  0
 20 23  1  0
 23 24  2  0
 24 25  1  0
 25 26  2  0
 26 27  1  0
 27 28  1  0
 28 29  1  0
 29 30  1  0
 28 31  1  0
 31 32  2  0
 31 33  1  0
 26 34  1  0
 34 35  1  0
 34 36  2  0
 36 37  1  0
 18  6  1  0
 36 23  1  0
 17 11  1  0
  1 38  1  0
  1 39  1  0
  1 40  1  0
  2 41  1  0
  2 42  1  0
  3 43  1  0
  3 44  1  0
  4 45  1  0
  4 46  1  0
  7 47  1  0
  8 48  1  0
  9 49  1  0
 12 50  1  0
 13 51  1  0
 16 52  1  0
 17 53  1  0
 19 54  1  0
 19 55  1  0
 19 56  1  0
 24 57  1  0
 25 58  1  0
 28 59  1  0
 29 60  1  0
 29 61  1  0
 30 62  1  0
 30 63  1  0
 30 64  1  0
 33 65  1  0
 35 66  1  0
 35 67  1  0
 35 68  1  0
 37 69  1  0
 37 70  1  0
 37 71  1  0
M  END
$$$$
