@<TRIPOS>MOLECULE
*****
 38 39 0 0 0
SMALL
GASTEIGER

@<TRIPOS>ATOM
      1 C           3.6986    0.4031   -2.3238 C.3     1  UNL1       -0.0130
      2 N           2.5856   -0.3687   -1.8096 N.3     1  UNL1       -0.3083
      3 C           3.0723   -1.2000   -0.7292 C.3     1  UNL1       -0.0130
      4 C           1.4751    0.4673   -1.4013 C.3     1  UNL1       -0.0008
      5 C           0.4030   -0.5036   -0.8916 C.3     1  UNL1       -0.0279
      6 C          -0.8304    0.1994   -0.4234 C.3     1  UNL1        0.0275
      7 C          -1.8099   -0.7883    0.0486 C.ar    1  UNL1       -0.0384
      8 C          -1.5391   -1.9623    0.6870 C.ar    1  UNL1       -0.0569
      9 C          -2.5146   -2.8460    1.1040 C.ar    1  UNL1       -0.0475
     10 C          -3.8401   -2.5672    0.8844 C.ar    1  UNL1        0.0179
     11 BR         -5.1920   -3.7808    1.4564 Br      1  UNL1       -0.0503
     12 C          -4.1668   -1.3919    0.2423 C.ar    1  UNL1       -0.0475
     13 C          -3.1697   -0.5321   -0.1608 C.ar    1  UNL1       -0.0569
     14 C          -0.5201    1.2242    0.6120 C.ar    1  UNL1        0.0487
     15 C           0.4813    1.0915    1.5270 C.ar    1  UNL1       -0.0398
     16 C           0.6711    2.1106    2.4370 C.ar    1  UNL1       -0.0586
     17 C          -0.1190    3.2195    2.4232 C.ar    1  UNL1       -0.0436
     18 C          -1.1315    3.3240    1.4770 C.ar    1  UNL1        0.0279
     19 N          -1.2883    2.3280    0.6166 N.ar    1  UNL1       -0.2593
     20 H           4.5444   -0.3315   -2.4038 H       1  UNL1        0.0391
     21 H           3.5026    0.7502   -3.3542 H       1  UNL1        0.0391
     22 H           4.0559    1.1933   -1.6476 H       1  UNL1        0.0391
     23 H           2.9061   -0.7662    0.2733 H       1  UNL1        0.0391
     24 H           4.1419   -1.4368   -0.9007 H       1  UNL1        0.0391
     25 H           2.5297   -2.1635   -0.7631 H       1  UNL1        0.0391
     26 H           1.1403    1.0434   -2.2702 H       1  UNL1        0.0427
     27 H           1.7311    1.1788   -0.5954 H       1  UNL1        0.0427
     28 H           0.9008   -1.0624   -0.0682 H       1  UNL1        0.0287
     29 H           0.1208   -1.1812   -1.7227 H       1  UNL1        0.0287
     30 H          -1.2723    0.7079   -1.3284 H       1  UNL1        0.0413
     31 H          -0.5063   -2.2021    0.8701 H       1  UNL1        0.0621
     32 H          -2.2094   -3.7587    1.6054 H       1  UNL1        0.0629
     33 H          -5.2048   -1.1684    0.0677 H       1  UNL1        0.0629
     34 H          -3.4995    0.3676   -0.6566 H       1  UNL1        0.0621
     35 H           1.0937    0.2072    1.5203 H       1  UNL1        0.0636
     36 H           1.4579    2.0136    3.1612 H       1  UNL1        0.0619
     37 H           0.0676    3.9908    3.1552 H       1  UNL1        0.0633
     38 H          -1.7659    4.1910    1.4494 H       1  UNL1        0.0829
@<TRIPOS>BOND
     1     1     2    1
     2     2     3    1
     3     2     4    1
     4     4     5    1
     5     5     6    1
     6     6     7    1
     7     7     8   ar
     8     8     9   ar
     9     9    10   ar
    10    10    11    1
    11    10    12   ar
    12    12    13   ar
    13     6    14    1
    14    14    15   ar
    15    15    16   ar
    16    16    17   ar
    17    17    18   ar
    18    18    19   ar
    19    13     7   ar
    20    19    14   ar
    21     1    20    1
    22     1    21    1
    23     1    22    1
    24     3    23    1
    25     3    24    1
    26     3    25    1
    27     4    26    1
    28     4    27    1
    29     5    28    1
    30     5    29    1
    31     6    30    1
    32     8    31    1
    33     9    32    1
    34    12    33    1
    35    13    34    1
    36    15    35    1
    37    16    36    1
    38    17    37    1
    39    18    38    1
