@<TRIPOS>MOLECULE
*****
 55 58 0 0 0
SMALL
GASTEIGER

@<TRIPOS>ATOM
      1 C           5.4924    0.7242   -2.6801 C.3     1  UNL1       -0.0653
      2 C           4.1663    1.2790   -2.1262 C.3     1  UNL1       -0.0555
      3 C           3.0377    0.3318   -2.5938 C.3     1  UNL1       -0.0465
      4 C           3.2948   -0.9822   -2.0100 C.3     1  UNL1        0.0056
      5 C           3.1379   -1.2175   -0.5748 C.ar    1  UNL1        0.1105
      6 N           3.6132   -2.4379   -0.0772 N.ar    1  UNL1       -0.2398
      7 C           3.3441   -2.4933    1.1931 C.ar    1  UNL1        0.0601
      8 C           2.6890   -1.3393    1.5959 C.ar    1  UNL1        0.1468
      9 C           2.2603   -1.0287    2.9406 C.2     1  UNL1        0.3571
     10 O           2.5078   -1.8791    3.8599 O.2     1  UNL1       -0.2433
     11 O           1.6043    0.0930    3.3595 O.3     1  UNL1       -0.4634
     12 C           1.2082    0.3418    4.6926 C.3     1  UNL1        0.0820
     13 N           2.5892   -0.5889    0.4426 N.ar    1  UNL1       -0.3180
     14 C           1.8675    0.6470    0.4384 C.3     1  UNL1        0.0501
     15 C           0.4069    0.4952    0.0880 C.ar    1  UNL1       -0.0277
     16 C          -0.3942   -0.4114    0.7228 C.ar    1  UNL1       -0.0563
     17 C          -1.7634   -0.4945    0.4012 C.ar    1  UNL1       -0.0537
     18 C          -2.3333    0.3168   -0.5447 C.ar    1  UNL1       -0.0158
     19 C          -3.7376    0.2351   -0.8776 C.ar    1  UNL1        0.0076
     20 C          -4.0902    0.2420   -2.2313 C.ar    1  UNL1       -0.0520
     21 C          -5.3856    0.1684   -2.6467 C.ar    1  UNL1       -0.0611
     22 C          -6.4064    0.0836   -1.7390 C.ar    1  UNL1       -0.0597
     23 C          -6.0866    0.0750   -0.4047 C.ar    1  UNL1       -0.0356
     24 C          -4.7592    0.1503    0.0275 C.ar    1  UNL1        0.0764
     25 N          -4.4355    0.1415    1.4111 N.ar    1  UNL1       -0.1997
     26 C          -4.8545   -0.7322    2.3470 C.ar    1  UNL1        0.1437
     27 N          -4.2977   -0.3500    3.5041 N.ar    1  UNL1       -0.1165
     28 N          -3.5513    0.7273    3.3142 N.ar    1  UNL1       -0.0230
     29 N          -3.6420    1.0230    2.0218 N.ar    1  UNL1       -0.0391
     30 C          -1.5121    1.2198   -1.1704 C.ar    1  UNL1       -0.0537
     31 C          -0.1591    1.3148   -0.8644 C.ar    1  UNL1       -0.0563
     32 H           5.8934   -0.0628   -2.0188 H       1  UNL1        0.0230
     33 H           5.2788    0.2695   -3.6492 H       1  UNL1        0.0230
     34 H           6.1698    1.5834   -2.7362 H       1  UNL1        0.0230
     35 H           4.0392    2.2958   -2.4742 H       1  UNL1        0.0263
     36 H           4.3060    1.2112   -1.0320 H       1  UNL1        0.0263
     37 H           2.0567    0.7619   -2.4818 H       1  UNL1        0.0269
     38 H           3.2089    0.3170   -3.7244 H       1  UNL1        0.0269
     39 H           2.6218   -1.7243   -2.5824 H       1  UNL1        0.0343
     40 H           4.3239   -1.3765   -2.3567 H       1  UNL1        0.0343
     41 H           3.5724   -3.3051    1.9073 H       1  UNL1        0.0853
     42 H           0.3235    1.0065    4.7585 H       1  UNL1        0.0661
     43 H           2.0521    0.8432    5.2069 H       1  UNL1        0.0661
     44 H           0.9596   -0.5892    5.2365 H       1  UNL1        0.0661
     45 H           1.8492    1.0680    1.4645 H       1  UNL1        0.0542
     46 H           2.2904    1.4698   -0.1662 H       1  UNL1        0.0542
     47 H          -0.0627   -1.0999    1.4719 H       1  UNL1        0.0621
     48 H          -2.3823   -1.2171    0.9128 H       1  UNL1        0.0624
     49 H          -3.3171    0.3077   -2.9860 H       1  UNL1        0.0624
     50 H          -5.6793    0.1726   -3.7034 H       1  UNL1        0.0618
     51 H          -7.4474    0.0245   -2.0776 H       1  UNL1        0.0618
     52 H          -6.8847    0.0083    0.3218 H       1  UNL1        0.0639
     53 H          -5.5050   -1.5767    2.2220 H       1  UNL1        0.1067
     54 H          -1.8999    1.8826   -1.9204 H       1  UNL1        0.0624
     55 H           0.4218    2.0750   -1.4119 H       1  UNL1        0.0621
@<TRIPOS>BOND
     1     1     2    1
     2     2     3    1
     3     3     4    1
     4     4     5    1
     5     5     6   ar
     6     6     7   ar
     7     7     8   ar
     8     8     9    1
     9     9    10    2
    10     9    11    1
    11    11    12    1
    12     8    13   ar
    13    13    14    1
    14    14    15    1
    15    15    16   ar
    16    16    17   ar
    17    17    18   ar
    18    18    19    1
    19    19    20   ar
    20    20    21   ar
    21    21    22   ar
    22    22    23   ar
    23    23    24   ar
    24    24    25    1
    25    25    26   ar
    26    26    27   ar
    27    27    28   ar
    28    28    29   ar
    29    18    30   ar
    30    30    31   ar
    31    13     5   ar
    32    31    15   ar
    33    24    19   ar
    34    29    25   ar
    35     1    32    1
    36     1    33    1
    37     1    34    1
    38     2    35    1
    39     2    36    1
    40     3    37    1
    41     3    38    1
    42     4    39    1
    43     4    40    1
    44     7    41    1
    45    12    42    1
    46    12    43    1
    47    12    44    1
    48    14    45    1
    49    14    46    1
    50    16    47    1
    51    17    48    1
    52    20    49    1
    53    21    50    1
    54    22    51    1
    55    23    52    1
    56    26    53    1
    57    30    54    1
    58    31    55    1
