
     RDKit          3D

 55 58  0  0  0  0  0  0  0  0999 V2000
    5.4924    0.7242   -2.6801 C   0  0  0  0  0  0  0  0  0  0  0  0
    4.1663    1.2790   -2.1262 C   0  0  0  0  0  0  0  0  0  0  0  0
    3.0377    0.3318   -2.5938 C   0  0  0  0  0  0  0  0  0  0  0  0
    3.2948   -0.9822   -2.0100 C   0  0  0  0  0  0  0  0  0  0  0  0
    3.1379   -1.2175   -0.5748 C   0  0  0  0  0  0  0  0  0  0  0  0
    3.6132   -2.4379   -0.0772 N   0  0  0  0  0  0  0  0  0  0  0  0
    3.3441   -2.4933    1.1931 C   0  0  0  0  0  0  0  0  0  0  0  0
    2.6890   -1.3393    1.5959 C   0  0  0  0  0  0  0  0  0  0  0  0
    2.2603   -1.0287    2.9406 C   0  0  0  0  0  0  0  0  0  0  0  0
    2.5078   -1.8791    3.8599 O   0  0  0  0  0  0  0  0  0  0  0  0
    1.6043    0.0930    3.3595 O   0  0  0  0  0  0  0  0  0  0  0  0
    1.2082    0.3418    4.6926 C   0  0  0  0  0  0  0  0  0  0  0  0
    2.5892   -0.5889    0.4426 N   0  0  0  0  0  0  0  0  0  0  0  0
    1.8675    0.6470    0.4384 C   0  0  0  0  0  0  0  0  0  0  0  0
    0.4069    0.4952    0.0880 C   0  0  0  0  0  0  0  0  0  0  0  0
   -0.3942   -0.4114    0.7228 C   0  0  0  0  0  0  0  0  0  0  0  0
   -1.7634   -0.4945    0.4012 C   0  0  0  0  0  0  0  0  0  0  0  0
   -2.3333    0.3168   -0.5447 C   0  0  0  0  0  0  0  0  0  0  0  0
   -3.7376    0.2351   -0.8776 C   0  0  0  0  0  0  0  0  0  0  0  0
   -4.0902    0.2420   -2.2313 C   0  0  0  0  0  0  0  0  0  0  0  0
   -5.3856    0.1684   -2.6467 C   0  0  0  0  0  0  0  0  0  0  0  0
   -6.4064    0.0836   -1.7390 C   0  0  0  0  0  0  0  0  0  0  0  0
   -6.0866    0.0750   -0.4047 C   0  0  0  0  0  0  0  0  0  0  0  0
   -4.7592    0.1503    0.0275 C   0  0  0  0  0  0  0  0  0  0  0  0
   -4.4355    0.1415    1.4111 N   0  0  0  0  0  0  0  0  0  0  0  0
   -4.8545   -0.7322    2.3470 C   0  0  0  0  0  0  0  0  0  0  0  0
   -4.2977   -0.3500    3.5041 N   0  0  0  0  0  0  0  0  0  0  0  0
   -3.5513    0.7273    3.3142 N   0  0  0  0  0  0  0  0  0  0  0  0
   -3.6420    1.0230    2.0218 N   0  0  0  0  0  0  0  0  0  0  0  0
   -1.5121    1.2198   -1.1704 C   0  0  0  0  0  0  0  0  0  0  0  0
   -0.1591    1.3148   -0.8644 C   0  0  0  0  0  0  0  0  0  0  0  0
    5.8934   -0.0628   -2.0188 H   0  0  0  0  0  0  0  0  0  0  0  0
    5.2788    0.2695   -3.6492 H   0  0  0  0  0  0  0  0  0  0  0  0
    6.1698    1.5834   -2.7362 H   0  0  0  0  0  0  0  0  0  0  0  0
    4.0392    2.2958   -2.4742 H   0  0  0  0  0  0  0  0  0  0  0  0
    4.3060    1.2112   -1.0320 H   0  0  0  0  0  0  0  0  0  0  0  0
    2.0567    0.7619   -2.4818 H   0  0  0  0  0  0  0  0  0  0  0  0
    3.2089    0.3170   -3.7244 H   0  0  0  0  0  0  0  0  0  0  0  0
    2.6218   -1.7243   -2.5824 H   0  0  0  0  0  0  0  0  0  0  0  0
    4.3239   -1.3765   -2.3567 H   0  0  0  0  0  0  0  0  0  0  0  0
    3.5724   -3.3051    1.9073 H   0  0  0  0  0  0  0  0  0  0  0  0
    0.3235    1.0065    4.7585 H   0  0  0  0  0  0  0  0  0  0  0  0
    2.0521    0.8432    5.2069 H   0  0  0  0  0  0  0  0  0  0  0  0
    0.9596   -0.5892    5.2365 H   0  0  0  0  0  0  0  0  0  0  0  0
    1.8492    1.0680    1.4645 H   0  0  0  0  0  0  0  0  0  0  0  0
    2.2904    1.4698   -0.1662 H   0  0  0  0  0  0  0  0  0  0  0  0
   -0.0627   -1.0999    1.4719 H   0  0  0  0  0  0  0  0  0  0  0  0
   -2.3823   -1.2171    0.9128 H   0  0  0  0  0  0  0  0  0  0  0  0
   -3.3171    0.3077   -2.9860 H   0  0  0  0  0  0  0  0  0  0  0  0
   -5.6793    0.1726   -3.7034 H   0  0  0  0  0  0  0  0  0  0  0  0
   -7.4474    0.0245   -2.0776 H   0  0  0  0  0  0  0  0  0  0  0  0
   -6.8847    0.0083    0.3218 H   0  0  0  0  0  0  0  0  0  0  0  0
   -5.5050   -1.5767    2.2220 H   0  0  0  0  0  0  0  0  0  0  0  0
   -1.8999    1.8826   -1.9204 H   0  0  0  0  0  0  0  0  0  0  0  0
    0.4218    2.0750   -1.4119 H   0  0  0  0  0  0  0  0  0  0  0  0
  1  2  1  0
  2  3  1  0
  3  4  1  0
  4  5  1  0
  5  6  2  0
  6  7  1  0
  7  8  2  0
  8  9  1  0
  9 10  2  0
  9 11  1  0
 11 12  1  0
  8 13  1  0
 13 14  1  0
 14 15  1  0
 15 16  2  0
 16 17  1  0
 17 18  2  0
 18 19  1  0
 19 20  2  0
 20 21  1  0
 21 22  2  0
 22 23  1  0
 23 24  2  0
 24 25  1  0
 25 26  1  0
 26 27  2  0
 27 28  1  0
 28 29  2  0
 18 30  1  0
 30 31  2  0
 13  5  1  0
 31 15  1  0
 24 19  1  0
 29 25  1  0
  1 32  1  0
  1 33  1  0
  1 34  1  0
  2 35  1  0
  2 36  1  0
  3 37  1  0
  3 38  1  0
  4 39  1  0
  4 40  1  0
  7 41  1  0
 12 42  1  0
 12 43  1  0
 12 44  1  0
 14 45  1  0
 14 46  1  0
 16 47  1  0
 17 48  1  0
 20 49  1  0
 21 50  1  0
 22 51  1  0
 23 52  1  0
 26 53  1  0
 30 54  1  0
 31 55  1  0
M  END
$$$$
