@<TRIPOS>MOLECULE
*****
 69 73 0 0 0
SMALL
GASTEIGER

@<TRIPOS>ATOM
      1 C         -10.1565   -0.9952   -0.3002 C.3     1  UNL1        0.0004
      2 N          -9.2207   -0.1856   -1.0141 N.pl3   1  UNL1       -0.3360
      3 C          -9.4791    0.1859   -2.3786 C.3     1  UNL1        0.0004
      4 C          -8.0367    0.2565   -0.3840 C.ar    1  UNL1        0.0293
      5 C          -7.7488   -0.0761    0.9332 C.ar    1  UNL1       -0.0389
      6 C          -6.5795    0.3873    1.4909 C.ar    1  UNL1       -0.0386
      7 C          -5.6677    1.1677    0.8190 C.ar    1  UNL1        0.0366
      8 N          -4.4815    1.6101    1.4630 N.am    1  UNL1       -0.2508
      9 C          -3.2601    0.9111    1.4540 C.2     1  UNL1        0.4099
     10 O          -3.2169   -0.1756    0.8346 O.2     1  UNL1       -0.2257
     11 O          -2.1071    1.3456    2.0826 O.3     1  UNL1       -0.4113
     12 C          -0.8980    0.6172    2.0503 C.ar    1  UNL1        0.1336
     13 C          -0.6263   -0.3340    3.0104 C.ar    1  UNL1       -0.0174
     14 C           0.5441   -1.0608    3.0071 C.ar    1  UNL1       -0.0369
     15 C           1.4920   -0.8457    2.0173 C.ar    1  UNL1        0.0347
     16 C           1.2296    0.0982    1.0578 C.ar    1  UNL1       -0.0139
     17 C           0.0340    0.8365    1.0666 C.ar    1  UNL1       -0.0136
     18 C           2.3764    0.1148    0.1387 C.3     1  UNL1        0.0279
     19 C           2.7090    1.4979   -0.3584 C.3     1  UNL1       -0.0525
     20 C           2.2229   -0.8747   -0.9952 C.3     1  UNL1       -0.0277
     21 C           3.4570   -1.7499   -0.9459 C.3     1  UNL1        0.0015
     22 N           4.3220   -1.0592   -0.0695 N.3     1  UNL1       -0.2833
     23 C           5.5409   -1.6551    0.2943 C.3     1  UNL1        0.0046
     24 C           6.4708   -1.6991   -0.9000 C.3     1  UNL1       -0.0148
     25 C           6.8020   -0.3693   -1.4371 C.ar    1  UNL1       -0.0462
     26 C           6.0992    0.2864   -2.4247 C.ar    1  UNL1       -0.0585
     27 C           6.4315    1.5301   -2.9035 C.ar    1  UNL1       -0.0615
     28 C           7.5254    2.1834   -2.3851 C.ar    1  UNL1       -0.0617
     29 C           8.2428    1.5521   -1.4001 C.ar    1  UNL1       -0.0615
     30 C           7.9129    0.3065   -0.9183 C.ar    1  UNL1       -0.0585
     31 C           3.5025   -0.4942    0.9356 C.3     1  UNL1        0.0863
     32 N           2.7895   -1.4355    1.7736 N.pl3   1  UNL1       -0.3161
     33 C           3.2028   -2.7120    2.3153 C.3     1  UNL1        0.0022
     34 C          -5.9544    1.4987   -0.4925 C.ar    1  UNL1       -0.0386
     35 C          -7.1183    1.0493   -1.0793 C.ar    1  UNL1       -0.0389
     36 H          -9.7774   -2.0152   -0.0616 H       1  UNL1        0.0428
     37 H         -10.4620   -0.5573    0.6782 H       1  UNL1        0.0428
     38 H         -11.1115   -1.1401   -0.8634 H       1  UNL1        0.0428
     39 H         -10.5432    0.0061   -2.6712 H       1  UNL1        0.0428
     40 H          -9.3089    1.2712   -2.5482 H       1  UNL1        0.0428
     41 H          -8.7791   -0.3559   -3.0391 H       1  UNL1        0.0428
     42 H          -8.4327   -0.6908    1.5164 H       1  UNL1        0.0637
     43 H          -6.3357    0.1378    2.5222 H       1  UNL1        0.0637
     44 H          -4.4965    2.5239    1.9910 H       1  UNL1        0.1582
     45 H          -1.3813   -0.4841    3.7722 H       1  UNL1        0.0655
     46 H           0.7561   -1.8073    3.7612 H       1  UNL1        0.0637
     47 H          -0.1490    1.5737    0.3016 H       1  UNL1        0.0658
     48 H           3.6669    1.8586    0.0649 H       1  UNL1        0.0239
     49 H           1.8830    2.1642   -0.1002 H       1  UNL1        0.0239
     50 H           2.8318    1.4690   -1.4548 H       1  UNL1        0.0239
     51 H           2.0973   -0.3720   -1.9687 H       1  UNL1        0.0287
     52 H           1.3462   -1.5257   -0.7656 H       1  UNL1        0.0287
     53 H           3.2089   -2.7867   -0.6211 H       1  UNL1        0.0427
     54 H           3.8141   -1.8647   -1.9912 H       1  UNL1        0.0427
     55 H           5.4813   -2.6840    0.6998 H       1  UNL1        0.0430
     56 H           6.0316   -1.0170    1.0617 H       1  UNL1        0.0430
     57 H           6.0629   -2.4029   -1.6531 H       1  UNL1        0.0326
     58 H           7.4176   -2.1822   -0.5324 H       1  UNL1        0.0326
     59 H           5.2387   -0.1819   -2.8636 H       1  UNL1        0.0620
     60 H           5.8680    2.0245   -3.6764 H       1  UNL1        0.0618
     61 H           7.8150    3.1774   -2.7465 H       1  UNL1        0.0618
     62 H           9.1026    2.0878   -1.0058 H       1  UNL1        0.0618
     63 H           8.5063   -0.1353   -0.1522 H       1  UNL1        0.0620
     64 H           4.0265    0.2782    1.5555 H       1  UNL1        0.0680
     65 H           2.5682   -2.9731    3.2185 H       1  UNL1        0.0428
     66 H           3.0311   -3.5470    1.6218 H       1  UNL1        0.0428
     67 H           4.2354   -2.6801    2.7385 H       1  UNL1        0.0428
     68 H          -5.2372    2.1236   -1.0472 H       1  UNL1        0.0637
     69 H          -7.3303    1.3108   -2.0991 H       1  UNL1        0.0637
@<TRIPOS>BOND
     1     1     2    1
     2     2     3    1
     3     2     4    1
     4     4     5   ar
     5     5     6   ar
     6     6     7   ar
     7     7     8    1
     8     8     9   am
     9     9    10    2
    10     9    11    1
    11    11    12    1
    12    12    13   ar
    13    13    14   ar
    14    14    15   ar
    15    15    16   ar
    16    16    17   ar
    17    16    18    1
    18    18    19    1
    19    18    20    1
    20    20    21    1
    21    21    22    1
    22    22    23    1
    23    23    24    1
    24    24    25    1
    25    25    26   ar
    26    26    27   ar
    27    27    28   ar
    28    28    29   ar
    29    29    30   ar
    30    22    31    1
    31    31    32    1
    32    32    33    1
    33     7    34   ar
    34    34    35   ar
    35    35     4   ar
    36    17    12   ar
    37    31    18    1
    38    32    15    1
    39    30    25   ar
    40     1    36    1
    41     1    37    1
    42     1    38    1
    43     3    39    1
    44     3    40    1
    45     3    41    1
    46     5    42    1
    47     6    43    1
    48     8    44    1
    49    13    45    1
    50    14    46    1
    51    17    47    1
    52    19    48    1
    53    19    49    1
    54    19    50    1
    55    20    51    1
    56    20    52    1
    57    21    53    1
    58    21    54    1
    59    23    55    1
    60    23    56    1
    61    24    57    1
    62    24    58    1
    63    26    59    1
    64    27    60    1
    65    28    61    1
    66    29    62    1
    67    30    63    1
    68    31    64    1
    69    33    65    1
    70    33    66    1
    71    33    67    1
    72    34    68    1
    73    35    69    1
