
     RDKit          3D

 69 73  0  0  0  0  0  0  0  0999 V2000
  -10.1565   -0.9952   -0.3002 C   0  0  0  0  0  0  0  0  0  0  0  0
   -9.2207   -0.1856   -1.0141 N   0  0  0  0  0  0  0  0  0  0  0  0
   -9.4791    0.1859   -2.3786 C   0  0  0  0  0  0  0  0  0  0  0  0
   -8.0367    0.2565   -0.3840 C   0  0  0  0  0  0  0  0  0  0  0  0
   -7.7488   -0.0761    0.9332 C   0  0  0  0  0  0  0  0  0  0  0  0
   -6.5795    0.3873    1.4909 C   0  0  0  0  0  0  0  0  0  0  0  0
   -5.6677    1.1677    0.8190 C   0  0  0  0  0  0  0  0  0  0  0  0
   -4.4815    1.6101    1.4630 N   0  0  0  0  0  0  0  0  0  0  0  0
   -3.2601    0.9111    1.4540 C   0  0  0  0  0  0  0  0  0  0  0  0
   -3.2169   -0.1756    0.8346 O   0  0  0  0  0  0  0  0  0  0  0  0
   -2.1071    1.3456    2.0826 O   0  0  0  0  0  0  0  0  0  0  0  0
   -0.8980    0.6172    2.0503 C   0  0  0  0  0  0  0  0  0  0  0  0
   -0.6263   -0.3340    3.0104 C   0  0  0  0  0  0  0  0  0  0  0  0
    0.5441   -1.0608    3.0071 C   0  0  0  0  0  0  0  0  0  0  0  0
    1.4920   -0.8457    2.0173 C   0  0  0  0  0  0  0  0  0  0  0  0
    1.2296    0.0982    1.0578 C   0  0  0  0  0  0  0  0  0  0  0  0
    0.0340    0.8365    1.0666 C   0  0  0  0  0  0  0  0  0  0  0  0
    2.3764    0.1148    0.1387 C   0  0  2  0  0  0  0  0  0  0  0  0
    2.7090    1.4979   -0.3584 C   0  0  0  0  0  0  0  0  0  0  0  0
    2.2229   -0.8747   -0.9952 C   0  0  0  0  0  0  0  0  0  0  0  0
    3.4570   -1.7499   -0.9459 C   0  0  0  0  0  0  0  0  0  0  0  0
    4.3220   -1.0592   -0.0695 N   0  0  0  0  0  0  0  0  0  0  0  0
    5.5409   -1.6551    0.2943 C   0  0  0  0  0  0  0  0  0  0  0  0
    6.4708   -1.6991   -0.9000 C   0  0  0  0  0  0  0  0  0  0  0  0
    6.8020   -0.3693   -1.4371 C   0  0  0  0  0  0  0  0  0  0  0  0
    6.0992    0.2864   -2.4247 C   0  0  0  0  0  0  0  0  0  0  0  0
    6.4315    1.5301   -2.9035 C   0  0  0  0  0  0  0  0  0  0  0  0
    7.5254    2.1834   -2.3851 C   0  0  0  0  0  0  0  0  0  0  0  0
    8.2428    1.5521   -1.4001 C   0  0  0  0  0  0  0  0  0  0  0  0
    7.9129    0.3065   -0.9183 C   0  0  0  0  0  0  0  0  0  0  0  0
    3.5025   -0.4942    0.9356 C   0  0  2  0  0  0  0  0  0  0  0  0
    2.7895   -1.4355    1.7736 N   0  0  0  0  0  0  0  0  0  0  0  0
    3.2028   -2.7120    2.3153 C   0  0  0  0  0  0  0  0  0  0  0  0
   -5.9544    1.4987   -0.4925 C   0  0  0  0  0  0  0  0  0  0  0  0
   -7.1183    1.0493   -1.0793 C   0  0  0  0  0  0  0  0  0  0  0  0
   -9.7774   -2.0152   -0.0616 H   0  0  0  0  0  0  0  0  0  0  0  0
  -10.4620   -0.5573    0.6782 H   0  0  0  0  0  0  0  0  0  0  0  0
  -11.1115   -1.1401   -0.8634 H   0  0  0  0  0  0  0  0  0  0  0  0
  -10.5432    0.0061   -2.6712 H   0  0  0  0  0  0  0  0  0  0  0  0
   -9.3089    1.2712   -2.5482 H   0  0  0  0  0  0  0  0  0  0  0  0
   -8.7791   -0.3559   -3.0391 H   0  0  0  0  0  0  0  0  0  0  0  0
   -8.4327   -0.6908    1.5164 H   0  0  0  0  0  0  0  0  0  0  0  0
   -6.3357    0.1378    2.5222 H   0  0  0  0  0  0  0  0  0  0  0  0
   -4.4965    2.5239    1.9910 H   0  0  0  0  0  0  0  0  0  0  0  0
   -1.3813   -0.4841    3.7722 H   0  0  0  0  0  0  0  0  0  0  0  0
    0.7561   -1.8073    3.7612 H   0  0  0  0  0  0  0  0  0  0  0  0
   -0.1490    1.5737    0.3016 H   0  0  0  0  0  0  0  0  0  0  0  0
    3.6669    1.8586    0.0649 H   0  0  0  0  0  0  0  0  0  0  0  0
    1.8830    2.1642   -0.1002 H   0  0  0  0  0  0  0  0  0  0  0  0
    2.8318    1.4690   -1.4548 H   0  0  0  0  0  0  0  0  0  0  0  0
    2.0973   -0.3720   -1.9687 H   0  0  0  0  0  0  0  0  0  0  0  0
    1.3462   -1.5257   -0.7656 H   0  0  0  0  0  0  0  0  0  0  0  0
    3.2089   -2.7867   -0.6211 H   0  0  0  0  0  0  0  0  0  0  0  0
    3.8141   -1.8647   -1.9912 H   0  0  0  0  0  0  0  0  0  0  0  0
    5.4813   -2.6840    0.6998 H   0  0  0  0  0  0  0  0  0  0  0  0
    6.0316   -1.0170    1.0617 H   0  0  0  0  0  0  0  0  0  0  0  0
    6.0629   -2.4029   -1.6531 H   0  0  0  0  0  0  0  0  0  0  0  0
    7.4176   -2.1822   -0.5324 H   0  0  0  0  0  0  0  0  0  0  0  0
    5.2387   -0.1819   -2.8636 H   0  0  0  0  0  0  0  0  0  0  0  0
    5.8680    2.0245   -3.6764 H   0  0  0  0  0  0  0  0  0  0  0  0
    7.8150    3.1774   -2.7465 H   0  0  0  0  0  0  0  0  0  0  0  0
    9.1026    2.0878   -1.0058 H   0  0  0  0  0  0  0  0  0  0  0  0
    8.5063   -0.1353   -0.1522 H   0  0  0  0  0  0  0  0  0  0  0  0
    4.0265    0.2782    1.5555 H   0  0  0  0  0  0  0  0  0  0  0  0
    2.5682   -2.9731    3.2185 H   0  0  0  0  0  0  0  0  0  0  0  0
    3.0311   -3.5470    1.6218 H   0  0  0  0  0  0  0  0  0  0  0  0
    4.2354   -2.6801    2.7385 H   0  0  0  0  0  0  0  0  0  0  0  0
   -5.2372    2.1236   -1.0472 H   0  0  0  0  0  0  0  0  0  0  0  0
   -7.3303    1.3108   -2.0991 H   0  0  0  0  0  0  0  0  0  0  0  0
  1  2  1  0
  2  3  1  0
  2  4  1  0
  4  5  2  0
  5  6  1  0
  6  7  2  0
  7  8  1  0
  8  9  1  0
  9 10  2  0
  9 11  1  0
 11 12  1  0
 12 13  2  0
 13 14  1  0
 14 15  2  0
 15 16  1  0
 16 17  2  0
 16 18  1  0
 18 19  1  6
 18 20  1  0
 20 21  1  0
 21 22  1  0
 22 23  1  0
 23 24  1  0
 24 25  1  0
 25 26  2  0
 26 27  1  0
 27 28  2  0
 28 29  1  0
 29 30  2  0
 22 31  1  0
 31 32  1  0
 32 33  1  0
  7 34  1  0
 34 35  2  0
 35  4  1  0
 17 12  1  0
 31 18  1  0
 32 15  1  0
 30 25  1  0
  1 36  1  0
  1 37  1  0
  1 38  1  0
  3 39  1  0
  3 40  1  0
  3 41  1  0
  5 42  1  0
  6 43  1  0
  8 44  1  0
 13 45  1  0
 14 46  1  0
 17 47  1  0
 19 48  1  0
 19 49  1  0
 19 50  1  0
 20 51  1  0
 20 52  1  0
 21 53  1  0
 21 54  1  0
 23 55  1  0
 23 56  1  0
 24 57  1  0
 24 58  1  0
 26 59  1  0
 27 60  1  0
 28 61  1  0
 29 62  1  0
 30 63  1  0
 31 64  1  1
 33 65  1  0
 33 66  1  0
 33 67  1  0
 34 68  1  0
 35 69  1  0
M  END
$$$$
