@<TRIPOS>MOLECULE
*****
 60 63 0 0 0
SMALL
GASTEIGER

@<TRIPOS>ATOM
      1 C          -4.9846    2.5896    1.0954 C.3     1  UNL1        0.0029
      2 N          -5.4437    1.3207    1.6168 N.am    1  UNL1       -0.3064
      3 C          -5.9276    1.3817    3.0161 C.3     1  UNL1        0.0029
      4 C          -5.4616    0.0979    0.9314 C.2     1  UNL1        0.2319
      5 O          -5.9068   -0.9232    1.5601 O.2     1  UNL1       -0.2741
      6 C          -5.0176   -0.1145   -0.4350 C.3     1  UNL1        0.1054
      7 C          -5.1017   -1.5074   -1.0279 C.3     1  UNL1       -0.0220
      8 C          -3.8150   -0.9110   -0.6831 C.3     1  UNL1        0.0135
      9 C          -2.8447   -0.3703   -1.6801 C.3     1  UNL1        0.0950
     10 C          -2.1954    0.8868   -1.0929 C.3     1  UNL1       -0.0351
     11 C          -1.7627   -1.3993   -1.8261 C.ar    1  UNL1        0.0349
     12 C          -0.4762   -1.1331   -1.4015 C.ar    1  UNL1       -0.0433
     13 C           0.5207   -2.0688   -1.5134 C.ar    1  UNL1       -0.0036
     14 C           1.8484   -1.7728   -1.0568 C.2     1  UNL1       -0.0157
     15 C           2.1535   -1.0813    0.0274 C.2     1  UNL1        0.1507
     16 F           1.1550   -0.6027    0.7847 F       1  UNL1       -0.2032
     17 C           3.5445   -0.8466    0.4018 C.ar    1  UNL1        0.1172
     18 C           3.8415   -0.1220    1.5385 C.ar    1  UNL1        0.0596
     19 N           5.1410    0.0908    1.8861 N.ar    1  UNL1       -0.2178
     20 C           6.1634   -0.3776    1.1654 C.ar    1  UNL1        0.2336
     21 O           7.4995   -0.1941    1.4696 O.3     1  UNL1       -0.4691
     22 C           8.0065    0.4990    2.5562 C.3     1  UNL1        0.1599
     23 C           7.6566    1.9404    2.6582 C.3     1  UNL1        0.3407
     24 F           6.3374    2.2408    2.7449 F       1  UNL1       -0.1957
     25 F           8.2813    2.4230    3.8166 F       1  UNL1       -0.1957
     26 C           8.2580    2.7287    1.5127 C.3     1  UNL1        0.3045
     27 F           7.7565    2.2177    0.3155 F       1  UNL1       -0.2026
     28 F           9.6264    2.6037    1.5451 F       1  UNL1       -0.2026
     29 C           5.8740   -1.1030    0.0275 C.ar    1  UNL1        0.0898
     30 N           4.5900   -1.3055   -0.3040 N.ar    1  UNL1       -0.2459
     31 C           0.2193   -3.2844   -2.0585 C.ar    1  UNL1        0.0379
     32 N          -1.0458   -3.5619   -2.4822 N.ar    1  UNL1       -0.2267
     33 C          -2.0207   -2.6401   -2.3699 C.ar    1  UNL1        0.2187
     34 F          -3.2889   -2.9422   -2.8073 F       1  UNL1       -0.1835
     35 N          -3.3524   -0.1102   -2.9856 N.2     1  UNL1       -0.2520
     36 C          -4.4253    0.5613   -3.1784 C.2     1  UNL1        0.1485
     37 N          -4.9189    0.8135   -4.4763 N.pl3   1  UNL1       -0.3380
     38 S          -5.2917    1.1671   -1.7122 S.3     1  UNL1       -0.0746
     39 H          -5.1705    3.4251    1.8172 H       1  UNL1        0.0428
     40 H          -5.4128    2.8434    0.1283 H       1  UNL1        0.0428
     41 H          -3.8597    2.5304    1.0065 H       1  UNL1        0.0428
     42 H          -5.0249    1.4257    3.6651 H       1  UNL1        0.0428
     43 H          -6.5507    0.4969    3.1831 H       1  UNL1        0.0428
     44 H          -6.4819    2.3327    3.1631 H       1  UNL1        0.0428
     45 H          -5.5531   -2.2517   -0.3320 H       1  UNL1        0.0287
     46 H          -5.4863   -1.6337   -2.0543 H       1  UNL1        0.0287
     47 H          -3.2942   -1.3860    0.1968 H       1  UNL1        0.0346
     48 H          -1.8432    0.6562   -0.0748 H       1  UNL1        0.0256
     49 H          -1.4008    1.2252   -1.7700 H       1  UNL1        0.0256
     50 H          -2.9379    1.7053   -1.0018 H       1  UNL1        0.0256
     51 H          -0.2266   -0.1525   -0.9609 H       1  UNL1        0.0629
     52 H           2.7231   -2.1320   -1.6275 H       1  UNL1        0.0653
     53 H           3.0613    0.2799    2.1575 H       1  UNL1        0.0853
     54 H           9.1300    0.4459    2.4863 H       1  UNL1        0.0760
     55 H           7.6675   -0.0176    3.4805 H       1  UNL1        0.0760
     56 H           8.0126    3.8034    1.6034 H       1  UNL1        0.1082
     57 H           6.6993   -1.4969   -0.5802 H       1  UNL1        0.0884
     58 H           0.9520   -4.0712   -2.1796 H       1  UNL1        0.0836
     59 H          -4.8422    0.0912   -5.2008 H       1  UNL1        0.1442
     60 H          -5.3531    1.7262   -4.6846 H       1  UNL1        0.1442
@<TRIPOS>BOND
     1     1     2    1
     2     2     3    1
     3     2     4   am
     4     4     5    2
     5     6     4    1
     6     6     7    1
     7     7     8    1
     8     8     9    1
     9     9    10    1
    10     9    11    1
    11    11    12   ar
    12    12    13   ar
    13    13    14    1
    14    14    15    2
    15    15    16    1
    16    15    17    1
    17    17    18   ar
    18    18    19   ar
    19    19    20   ar
    20    20    21    1
    21    21    22    1
    22    22    23    1
    23    23    24    1
    24    23    25    1
    25    23    26    1
    26    26    27    1
    27    26    28    1
    28    20    29   ar
    29    29    30   ar
    30    13    31   ar
    31    31    32   ar
    32    32    33   ar
    33    33    34    1
    34     9    35    1
    35    35    36    2
    36    36    37    1
    37    36    38    1
    38     8     6    1
    39    33    11   ar
    40    38     6    1
    41    30    17   ar
    42     1    39    1
    43     1    40    1
    44     1    41    1
    45     3    42    1
    46     3    43    1
    47     3    44    1
    48     7    45    1
    49     7    46    1
    50     8    47    1
    51    10    48    1
    52    10    49    1
    53    10    50    1
    54    12    51    1
    55    14    52    1
    56    18    53    1
    57    22    54    1
    58    22    55    1
    59    26    56    1
    60    29    57    1
    61    31    58    1
    62    37    59    1
    63    37    60    1
