
     RDKit          3D

 60 63  0  0  0  0  0  0  0  0999 V2000
   -4.9846    2.5896    1.0954 C   0  0  0  0  0  0  0  0  0  0  0  0
   -5.4437    1.3207    1.6168 N   0  0  0  0  0  0  0  0  0  0  0  0
   -5.9276    1.3817    3.0161 C   0  0  0  0  0  0  0  0  0  0  0  0
   -5.4616    0.0979    0.9314 C   0  0  0  0  0  0  0  0  0  0  0  0
   -5.9068   -0.9232    1.5601 O   0  0  0  0  0  0  0  0  0  0  0  0
   -5.0176   -0.1145   -0.4350 C   0  0  2  0  0  0  0  0  0  0  0  0
   -5.1017   -1.5074   -1.0279 C   0  0  0  0  0  0  0  0  0  0  0  0
   -3.8150   -0.9110   -0.6831 C   0  0  1  0  0  0  0  0  0  0  0  0
   -2.8447   -0.3703   -1.6801 C   0  0  1  0  0  0  0  0  0  0  0  0
   -2.1954    0.8868   -1.0929 C   0  0  0  0  0  0  0  0  0  0  0  0
   -1.7627   -1.3993   -1.8261 C   0  0  0  0  0  0  0  0  0  0  0  0
   -0.4762   -1.1331   -1.4015 C   0  0  0  0  0  0  0  0  0  0  0  0
    0.5207   -2.0688   -1.5134 C   0  0  0  0  0  0  0  0  0  0  0  0
    1.8484   -1.7728   -1.0568 C   0  0  0  0  0  0  0  0  0  0  0  0
    2.1535   -1.0813    0.0274 C   0  0  0  0  0  0  0  0  0  0  0  0
    1.1550   -0.6027    0.7847 F   0  0  0  0  0  0  0  0  0  0  0  0
    3.5445   -0.8466    0.4018 C   0  0  0  0  0  0  0  0  0  0  0  0
    3.8415   -0.1220    1.5385 C   0  0  0  0  0  0  0  0  0  0  0  0
    5.1410    0.0908    1.8861 N   0  0  0  0  0  0  0  0  0  0  0  0
    6.1634   -0.3776    1.1654 C   0  0  0  0  0  0  0  0  0  0  0  0
    7.4995   -0.1941    1.4696 O   0  0  0  0  0  0  0  0  0  0  0  0
    8.0065    0.4990    2.5562 C   0  0  0  0  0  0  0  0  0  0  0  0
    7.6566    1.9404    2.6582 C   0  0  0  0  0  0  0  0  0  0  0  0
    6.3374    2.2408    2.7449 F   0  0  0  0  0  0  0  0  0  0  0  0
    8.2813    2.4230    3.8166 F   0  0  0  0  0  0  0  0  0  0  0  0
    8.2580    2.7287    1.5127 C   0  0  0  0  0  0  0  0  0  0  0  0
    7.7565    2.2177    0.3155 F   0  0  0  0  0  0  0  0  0  0  0  0
    9.6264    2.6037    1.5451 F   0  0  0  0  0  0  0  0  0  0  0  0
    5.8740   -1.1030    0.0275 C   0  0  0  0  0  0  0  0  0  0  0  0
    4.5900   -1.3055   -0.3040 N   0  0  0  0  0  0  0  0  0  0  0  0
    0.2193   -3.2844   -2.0585 C   0  0  0  0  0  0  0  0  0  0  0  0
   -1.0458   -3.5619   -2.4822 N   0  0  0  0  0  0  0  0  0  0  0  0
   -2.0207   -2.6401   -2.3699 C   0  0  0  0  0  0  0  0  0  0  0  0
   -3.2889   -2.9422   -2.8073 F   0  0  0  0  0  0  0  0  0  0  0  0
   -3.3524   -0.1102   -2.9856 N   0  0  0  0  0  0  0  0  0  0  0  0
   -4.4253    0.5613   -3.1784 C   0  0  0  0  0  0  0  0  0  0  0  0
   -4.9189    0.8135   -4.4763 N   0  0  0  0  0  0  0  0  0  0  0  0
   -5.2917    1.1671   -1.7122 S   0  0  0  0  0  0  0  0  0  0  0  0
   -5.1705    3.4251    1.8172 H   0  0  0  0  0  0  0  0  0  0  0  0
   -5.4128    2.8434    0.1283 H   0  0  0  0  0  0  0  0  0  0  0  0
   -3.8597    2.5304    1.0065 H   0  0  0  0  0  0  0  0  0  0  0  0
   -5.0249    1.4257    3.6651 H   0  0  0  0  0  0  0  0  0  0  0  0
   -6.5507    0.4969    3.1831 H   0  0  0  0  0  0  0  0  0  0  0  0
   -6.4819    2.3327    3.1631 H   0  0  0  0  0  0  0  0  0  0  0  0
   -5.5531   -2.2517   -0.3320 H   0  0  0  0  0  0  0  0  0  0  0  0
   -5.4863   -1.6337   -2.0543 H   0  0  0  0  0  0  0  0  0  0  0  0
   -3.2942   -1.3860    0.1968 H   0  0  0  0  0  0  0  0  0  0  0  0
   -1.8432    0.6562   -0.0748 H   0  0  0  0  0  0  0  0  0  0  0  0
   -1.4008    1.2252   -1.7700 H   0  0  0  0  0  0  0  0  0  0  0  0
   -2.9379    1.7053   -1.0018 H   0  0  0  0  0  0  0  0  0  0  0  0
   -0.2266   -0.1525   -0.9609 H   0  0  0  0  0  0  0  0  0  0  0  0
    2.7231   -2.1320   -1.6275 H   0  0  0  0  0  0  0  0  0  0  0  0
    3.0613    0.2799    2.1575 H   0  0  0  0  0  0  0  0  0  0  0  0
    9.1300    0.4459    2.4863 H   0  0  0  0  0  0  0  0  0  0  0  0
    7.6675   -0.0176    3.4805 H   0  0  0  0  0  0  0  0  0  0  0  0
    8.0126    3.8034    1.6034 H   0  0  0  0  0  0  0  0  0  0  0  0
    6.6993   -1.4969   -0.5802 H   0  0  0  0  0  0  0  0  0  0  0  0
    0.9520   -4.0712   -2.1796 H   0  0  0  0  0  0  0  0  0  0  0  0
   -4.8422    0.0912   -5.2008 H   0  0  0  0  0  0  0  0  0  0  0  0
   -5.3531    1.7262   -4.6846 H   0  0  0  0  0  0  0  0  0  0  0  0
  1  2  1  0
  2  3  1  0
  2  4  1  0
  4  5  2  0
  6  4  1  1
  6  7  1  0
  7  8  1  0
  8  9  1  0
  9 10  1  1
  9 11  1  0
 11 12  2  0
 12 13  1  0
 13 14  1  0
 14 15  2  0
 15 16  1  0
 15 17  1  0
 17 18  2  0
 18 19  1  0
 19 20  2  0
 20 21  1  0
 21 22  1  0
 22 23  1  0
 23 24  1  0
 23 25  1  0
 23 26  1  0
 26 27  1  0
 26 28  1  0
 20 29  1  0
 29 30  2  0
 13 31  2  0
 31 32  1  0
 32 33  2  0
 33 34  1  0
  9 35  1  0
 35 36  2  0
 36 37  1  0
 36 38  1  0
  8  6  1  0
 33 11  1  0
 38  6  1  0
 30 17  1  0
  1 39  1  0
  1 40  1  0
  1 41  1  0
  3 42  1  0
  3 43  1  0
  3 44  1  0
  7 45  1  0
  7 46  1  0
  8 47  1  1
 10 48  1  0
 10 49  1  0
 10 50  1  0
 12 51  1  0
 14 52  1  0
 18 53  1  0
 22 54  1  0
 22 55  1  0
 26 56  1  0
 29 57  1  0
 31 58  1  0
 37 59  1  0
 37 60  1  0
M  END
$$$$
