@<TRIPOS>MOLECULE
*****
 39 39 0 0 0
SMALL
GASTEIGER

@<TRIPOS>ATOM
      1 N          -7.6720    0.3753   -0.7940 N.3     1  UNL1       -0.2035
      2 S          -6.7798   -0.7593    0.1508 S.O2    1  UNL1        0.0559
      3 O          -7.2247   -2.1333   -0.2735 O.2     1  UNL1       -0.1533
      4 O          -7.0660   -0.5240    1.6075 O.2     1  UNL1       -0.1533
      5 C          -5.0835   -0.5801   -0.1129 C.ar    1  UNL1        0.1050
      6 C          -4.3170   -1.2444   -1.0656 C.ar    1  UNL1       -0.0346
      7 C          -2.9477   -1.0320   -1.2047 C.ar    1  UNL1       -0.0478
      8 C          -2.2992   -0.1355   -0.3813 C.ar    1  UNL1        0.0368
      9 C          -3.0239    0.5426    0.5755 C.ar    1  UNL1       -0.0478
     10 C          -4.3563    0.3054    0.6765 C.ar    1  UNL1       -0.0346
     11 C          -0.8644    0.0597   -0.5550 C.2     1  UNL1        0.2441
     12 O          -0.2638   -0.5918   -1.4486 O.2     1  UNL1       -0.2702
     13 N          -0.0932    0.9534    0.2352 N.am    1  UNL1       -0.3113
     14 C           1.3355    1.1309    0.0437 C.3     1  UNL1        0.0119
     15 C           2.1336   -0.1209    0.2295 C.3     1  UNL1       -0.0362
     16 C           3.6007    0.2650   -0.0046 C.3     1  UNL1       -0.0390
     17 C           4.5120   -0.9095    0.1530 C.3     1  UNL1       -0.0033
     18 N           5.9127   -0.5861   -0.0573 N.3     1  UNL1       -0.3075
     19 C           6.4236    0.2711    1.0010 C.3     1  UNL1        0.0397
     20 S           8.1692    0.6493    0.6906 S.3     1  UNL1       -0.1629
     21 H          -7.0991    0.6831   -1.6258 H       1  UNL1        0.1442
     22 H          -7.9152    1.2096   -0.1934 H       1  UNL1        0.1442
     23 H          -4.8661   -1.9451   -1.6956 H       1  UNL1        0.0637
     24 H          -2.4043   -1.5681   -1.9514 H       1  UNL1        0.0626
     25 H          -2.5517    1.2530    1.2386 H       1  UNL1        0.0626
     26 H          -4.9102    0.8590    1.4467 H       1  UNL1        0.0637
     27 H          -0.5574    1.5104    0.9863 H       1  UNL1        0.1490
     28 H           1.7332    1.9064    0.7288 H       1  UNL1        0.0462
     29 H           1.5671    1.4998   -0.9890 H       1  UNL1        0.0462
     30 H           2.0783   -0.5409    1.2553 H       1  UNL1        0.0281
     31 H           1.8870   -0.8640   -0.5471 H       1  UNL1        0.0281
     32 H           3.6395    0.7094   -1.0233 H       1  UNL1        0.0278
     33 H           3.8034    1.0715    0.7303 H       1  UNL1        0.0278
     34 H           4.4070   -1.2517    1.2152 H       1  UNL1        0.0424
     35 H           4.2127   -1.7200   -0.5229 H       1  UNL1        0.0424
     36 H           6.4774   -1.4349   -0.1738 H       1  UNL1        0.1227
     37 H           6.3469   -0.2049    1.9974 H       1  UNL1        0.0536
     38 H           5.8440    1.2305    1.0063 H       1  UNL1        0.0536
     39 H           8.2116    1.6610   -0.2867 H       1  UNL1        0.1029
@<TRIPOS>BOND
     1     1     2    1
     2     2     3    2
     3     2     4    2
     4     2     5    1
     5     5     6   ar
     6     6     7   ar
     7     7     8   ar
     8     8     9   ar
     9     9    10   ar
    10     8    11    1
    11    11    12    2
    12    11    13   am
    13    13    14    1
    14    14    15    1
    15    15    16    1
    16    16    17    1
    17    17    18    1
    18    18    19    1
    19    19    20    1
    20    10     5   ar
    21     1    21    1
    22     1    22    1
    23     6    23    1
    24     7    24    1
    25     9    25    1
    26    10    26    1
    27    13    27    1
    28    14    28    1
    29    14    29    1
    30    15    30    1
    31    15    31    1
    32    16    32    1
    33    16    33    1
    34    17    34    1
    35    17    35    1
    36    18    36    1
    37    19    37    1
    38    19    38    1
    39    20    39    1
