
     RDKit          3D

 39 39  0  0  0  0  0  0  0  0999 V2000
   -7.6720    0.3753   -0.7940 N   0  0  0  0  0  0  0  0  0  0  0  0
   -6.7798   -0.7593    0.1508 S   0  0  0  0  0  0  0  0  0  0  0  0
   -7.2247   -2.1333   -0.2735 O   0  0  0  0  0  0  0  0  0  0  0  0
   -7.0660   -0.5240    1.6075 O   0  0  0  0  0  0  0  0  0  0  0  0
   -5.0835   -0.5801   -0.1129 C   0  0  0  0  0  0  0  0  0  0  0  0
   -4.3170   -1.2444   -1.0656 C   0  0  0  0  0  0  0  0  0  0  0  0
   -2.9477   -1.0320   -1.2047 C   0  0  0  0  0  0  0  0  0  0  0  0
   -2.2992   -0.1355   -0.3813 C   0  0  0  0  0  0  0  0  0  0  0  0
   -3.0239    0.5426    0.5755 C   0  0  0  0  0  0  0  0  0  0  0  0
   -4.3563    0.3054    0.6765 C   0  0  0  0  0  0  0  0  0  0  0  0
   -0.8644    0.0597   -0.5550 C   0  0  0  0  0  0  0  0  0  0  0  0
   -0.2638   -0.5918   -1.4486 O   0  0  0  0  0  0  0  0  0  0  0  0
   -0.0932    0.9534    0.2352 N   0  0  0  0  0  0  0  0  0  0  0  0
    1.3355    1.1309    0.0437 C   0  0  0  0  0  0  0  0  0  0  0  0
    2.1336   -0.1209    0.2295 C   0  0  0  0  0  0  0  0  0  0  0  0
    3.6007    0.2650   -0.0046 C   0  0  0  0  0  0  0  0  0  0  0  0
    4.5120   -0.9095    0.1530 C   0  0  0  0  0  0  0  0  0  0  0  0
    5.9127   -0.5861   -0.0573 N   0  0  0  0  0  0  0  0  0  0  0  0
    6.4236    0.2711    1.0010 C   0  0  0  0  0  0  0  0  0  0  0  0
    8.1692    0.6493    0.6906 S   0  0  0  0  0  0  0  0  0  0  0  0
   -7.0991    0.6831   -1.6258 H   0  0  0  0  0  0  0  0  0  0  0  0
   -7.9152    1.2096   -0.1934 H   0  0  0  0  0  0  0  0  0  0  0  0
   -4.8661   -1.9451   -1.6956 H   0  0  0  0  0  0  0  0  0  0  0  0
   -2.4043   -1.5681   -1.9514 H   0  0  0  0  0  0  0  0  0  0  0  0
   -2.5517    1.2530    1.2386 H   0  0  0  0  0  0  0  0  0  0  0  0
   -4.9102    0.8590    1.4467 H   0  0  0  0  0  0  0  0  0  0  0  0
   -0.5574    1.5104    0.9863 H   0  0  0  0  0  0  0  0  0  0  0  0
    1.7332    1.9064    0.7288 H   0  0  0  0  0  0  0  0  0  0  0  0
    1.5671    1.4998   -0.9890 H   0  0  0  0  0  0  0  0  0  0  0  0
    2.0783   -0.5409    1.2553 H   0  0  0  0  0  0  0  0  0  0  0  0
    1.8870   -0.8640   -0.5471 H   0  0  0  0  0  0  0  0  0  0  0  0
    3.6395    0.7094   -1.0233 H   0  0  0  0  0  0  0  0  0  0  0  0
    3.8034    1.0715    0.7303 H   0  0  0  0  0  0  0  0  0  0  0  0
    4.4070   -1.2517    1.2152 H   0  0  0  0  0  0  0  0  0  0  0  0
    4.2127   -1.7200   -0.5229 H   0  0  0  0  0  0  0  0  0  0  0  0
    6.4774   -1.4349   -0.1738 H   0  0  0  0  0  0  0  0  0  0  0  0
    6.3469   -0.2049    1.9974 H   0  0  0  0  0  0  0  0  0  0  0  0
    5.8440    1.2305    1.0063 H   0  0  0  0  0  0  0  0  0  0  0  0
    8.2116    1.6610   -0.2867 H   0  0  0  0  0  0  0  0  0  0  0  0
  1  2  1  0
  2  3  2  0
  2  4  2  0
  2  5  1  0
  5  6  2  0
  6  7  1  0
  7  8  2  0
  8  9  1  0
  9 10  2  0
  8 11  1  0
 11 12  2  0
 11 13  1  0
 13 14  1  0
 14 15  1  0
 15 16  1  0
 16 17  1  0
 17 18  1  0
 18 19  1  0
 19 20  1  0
 10  5  1  0
  1 21  1  0
  1 22  1  0
  6 23  1  0
  7 24  1  0
  9 25  1  0
 10 26  1  0
 13 27  1  0
 14 28  1  0
 14 29  1  0
 15 30  1  0
 15 31  1  0
 16 32  1  0
 16 33  1  0
 17 34  1  0
 17 35  1  0
 18 36  1  0
 19 37  1  0
 19 38  1  0
 20 39  1  0
M  END
$$$$
