@<TRIPOS>MOLECULE
*****
 119 126 0 0 0
SMALL
GASTEIGER

@<TRIPOS>ATOM
      1 C           4.0108    1.5093   -0.6788 C.3     1  UNL1       -0.0330
      2 C           4.8386    2.5118    0.0674 C.3     1  UNL1       -0.0493
      3 C           6.2708    2.0924    0.2683 C.3     1  UNL1       -0.0470
      4 C           6.6196    1.0219   -0.7832 C.3     1  UNL1       -0.0081
      5 C           5.7893   -0.1330   -0.3634 C.3     1  UNL1       -0.0276
      6 C           6.3597   -1.3886   -0.9711 C.3     1  UNL1       -0.0225
      7 C           7.6740   -1.5845   -0.2407 C.3     1  UNL1        0.0641
      8 O           8.2424   -2.8219   -0.5644 O.3     1  UNL1       -0.3911
      9 C           8.6332   -0.4519   -0.3994 C.3     1  UNL1        0.0295
     10 C           9.7377   -0.9787   -1.2788 C.3     1  UNL1       -0.0540
     11 C           9.2139    0.0253    0.8979 C.3     1  UNL1       -0.0057
     12 C           9.4601    1.5228    0.7732 C.3     1  UNL1       -0.0431
     13 C           8.9804    1.8966   -0.6141 C.3     1  UNL1       -0.0226
     14 C           8.0340    0.7931   -1.0385 C.3     1  UNL1        0.0774
     15 O           8.2467    0.6332   -2.4157 O.3     1  UNL1       -0.3876
     16 C          10.3697   -0.7145    1.4313 C.2     1  UNL1       -0.0221
     17 C          10.1926   -1.4476    2.5496 C.2     1  UNL1        0.0252
     18 C          11.4480   -2.0820    2.8894 C.2     1  UNL1        0.3323
     19 O          11.8512   -2.8531    3.8029 O.2     1  UNL1       -0.2456
     20 O          12.3622   -1.7059    1.9484 O.3     1  UNL1       -0.4571
     21 C          11.7632   -0.8252    1.0417 C.3     1  UNL1        0.1147
     22 C           4.3506    0.0804   -0.5660 C.3     1  UNL1       -0.0258
     23 C           3.9456   -0.5675   -1.9151 C.3     1  UNL1       -0.0590
     24 C           3.4745   -0.6553    0.4401 C.3     1  UNL1       -0.0448
     25 C           2.9657    0.2999    1.5074 C.3     1  UNL1       -0.0260
     26 C           1.9409    1.1336    0.7887 C.3     1  UNL1        0.0620
     27 C           2.5952    1.8607   -0.3011 C.3     1  UNL1       -0.0232
     28 O           0.8950    0.3111    0.3229 O.3     1  UNL1       -0.3480
     29 C          -0.2830    0.7293    0.9183 C.3     1  UNL1        0.1624
     30 C          -1.2175    1.1905   -0.1937 C.3     1  UNL1        0.0270
     31 C          -1.8914   -0.0813   -0.7440 C.3     1  UNL1        0.0884
     32 O          -2.5262    0.3297   -1.9052 O.3     1  UNL1       -0.3890
     33 C          -2.7945   -0.5789    0.3267 C.3     1  UNL1        0.1134
     34 O          -4.1092   -0.1697    0.1892 O.3     1  UNL1       -0.3429
     35 C          -5.0448   -1.1631    0.1102 C.3     1  UNL1        0.1626
     36 C          -6.0227   -0.9395    1.2503 C.3     1  UNL1        0.0270
     37 C          -7.0069    0.1633    0.9131 C.3     1  UNL1        0.0884
     38 O          -7.9228    0.2286    1.9574 O.3     1  UNL1       -0.3890
     39 C          -7.7857   -0.2221   -0.3518 C.3     1  UNL1        0.1134
     40 O          -9.0888   -0.5766   -0.0193 O.3     1  UNL1       -0.3429
     41 C         -10.0273    0.2564   -0.6246 C.3     1  UNL1        0.1626
     42 C         -11.0224   -0.5703   -1.3624 C.3     1  UNL1        0.0270
     43 C         -12.1333   -0.9617   -0.3836 C.3     1  UNL1        0.0881
     44 O         -13.0585   -1.7918   -0.9863 O.3     1  UNL1       -0.3890
     45 C         -12.8643    0.2651    0.1033 C.3     1  UNL1        0.1070
     46 O         -14.0329    0.5045   -0.5895 O.3     1  UNL1       -0.3867
     47 C         -11.9334    1.4420   -0.1059 C.3     1  UNL1        0.0871
     48 C         -12.3990    2.5802    0.7507 C.3     1  UNL1       -0.0361
     49 O         -10.6751    1.0404    0.3459 O.3     1  UNL1       -0.3456
     50 C          -7.0798   -1.3932   -0.9564 C.3     1  UNL1        0.0875
     51 C          -7.7157   -1.8837   -2.2335 C.3     1  UNL1       -0.0361
     52 O          -5.7133   -1.1606   -1.1217 O.3     1  UNL1       -0.3456
     53 C          -2.2227   -0.2435    1.6886 C.3     1  UNL1        0.0875
     54 C          -2.6674   -1.2878    2.7090 C.3     1  UNL1       -0.0361
     55 O          -0.8291   -0.3699    1.5866 O.3     1  UNL1       -0.3456
     56 H           4.0875    1.8343   -1.7720 H       1  UNL1        0.0307
     57 H           4.8967    3.4538   -0.5674 H       1  UNL1        0.0268
     58 H           4.3735    2.8773    0.9950 H       1  UNL1        0.0268
     59 H           6.9138    2.9619    0.2510 H       1  UNL1        0.0269
     60 H           6.3193    1.6288    1.2777 H       1  UNL1        0.0269
     61 H           6.1746    1.5060   -1.7049 H       1  UNL1        0.0331
     62 H           5.9387   -0.2621    0.7538 H       1  UNL1        0.0310
     63 H           6.6189   -1.2310   -2.0489 H       1  UNL1        0.0293
     64 H           5.7921   -2.2986   -0.7878 H       1  UNL1        0.0293
     65 H           7.4411   -1.6660    0.8600 H       1  UNL1        0.0600
     66 H           7.5805   -3.5343   -0.3819 H       1  UNL1        0.2098
     67 H          10.5178   -0.2540   -1.4890 H       1  UNL1        0.0237
     68 H          10.0318   -1.9936   -1.0016 H       1  UNL1        0.0237
     69 H           9.2258   -1.1239   -2.2934 H       1  UNL1        0.0237
     70 H           8.3454   -0.0262    1.6247 H       1  UNL1        0.0354
     71 H          10.5476    1.6965    0.9150 H       1  UNL1        0.0272
     72 H           8.9773    2.0964    1.5847 H       1  UNL1        0.0272
     73 H           9.9272    1.8632   -1.2431 H       1  UNL1        0.0293
     74 H           8.6195    2.9070   -0.7198 H       1  UNL1        0.0293
     75 H           8.6776    1.4101   -2.8377 H       1  UNL1        0.2102
     76 H           9.3283   -1.6277    3.1883 H       1  UNL1        0.0689
     77 H          11.9754   -1.2433    0.0359 H       1  UNL1        0.0746
     78 H          12.3317    0.1371    1.1432 H       1  UNL1        0.0746
     79 H           3.8952    0.2066   -2.7192 H       1  UNL1        0.0235
     80 H           2.9023   -0.9502   -1.8769 H       1  UNL1        0.0235
     81 H           4.5696   -1.4235   -2.1684 H       1  UNL1        0.0235
     82 H           3.9751   -1.5339    0.8271 H       1  UNL1        0.0271
     83 H           2.5640   -1.0062   -0.0838 H       1  UNL1        0.0271
     84 H           3.7350    0.8891    1.9940 H       1  UNL1        0.0290
     85 H           2.4078   -0.3582    2.2224 H       1  UNL1        0.0290
     86 H           1.5354    1.8728    1.5123 H       1  UNL1        0.0597
     87 H           1.9583    1.7282   -1.2410 H       1  UNL1        0.0293
     88 H           2.5014    2.9620   -0.1212 H       1  UNL1        0.0293
     89 H          -0.0837    1.5727    1.5654 H       1  UNL1        0.0910
     90 H          -2.0304    1.7669    0.2778 H       1  UNL1        0.0340
     91 H          -0.6645    1.7255   -0.9884 H       1  UNL1        0.0340
     92 H          -1.0794   -0.7788   -1.0373 H       1  UNL1        0.0622
     93 H          -3.2015    1.0351   -1.7803 H       1  UNL1        0.2099
     94 H          -2.8006   -1.6886    0.2959 H       1  UNL1        0.0649
     95 H          -4.6584   -2.1978    0.2034 H       1  UNL1        0.0910
     96 H          -5.4211   -0.5222    2.1105 H       1  UNL1        0.0340
     97 H          -6.4676   -1.8597    1.6112 H       1  UNL1        0.0340
     98 H          -6.5252    1.1396    0.8290 H       1  UNL1        0.0622
     99 H          -8.4428    1.0795    1.9762 H       1  UNL1        0.2099
    100 H          -7.8436    0.6460   -1.0426 H       1  UNL1        0.0649
    101 H          -9.4760    0.9878   -1.2490 H       1  UNL1        0.0910
    102 H         -11.4243   -0.0715   -2.2722 H       1  UNL1        0.0340
    103 H         -10.5926   -1.5174   -1.7082 H       1  UNL1        0.0340
    104 H         -11.6260   -1.5020    0.4370 H       1  UNL1        0.0621
    105 H         -13.5801   -2.2109   -0.2449 H       1  UNL1        0.2099
    106 H         -13.0658    0.1447    1.1824 H       1  UNL1        0.0645
    107 H         -14.7272   -0.1447   -0.3301 H       1  UNL1        0.2100
    108 H         -11.9625    1.7492   -1.1516 H       1  UNL1        0.0621
    109 H         -13.4921    2.7672    0.5897 H       1  UNL1        0.0255
    110 H         -11.8523    3.5287    0.5322 H       1  UNL1        0.0255
    111 H         -12.2977    2.3764    1.8295 H       1  UNL1        0.0255
    112 H          -7.1427   -2.2432   -0.2377 H       1  UNL1        0.0621
    113 H          -8.1419   -1.0572   -2.8350 H       1  UNL1        0.0255
    114 H          -8.4957   -2.6247   -1.9560 H       1  UNL1        0.0255
    115 H          -6.9324   -2.4602   -2.7845 H       1  UNL1        0.0255
    116 H          -2.5338    0.7304    2.0790 H       1  UNL1        0.0621
    117 H          -1.8245   -1.6703    3.3203 H       1  UNL1        0.0255
    118 H          -3.1168   -2.1809    2.2330 H       1  UNL1        0.0255
    119 H          -3.3806   -0.8370    3.4594 H       1  UNL1        0.0255
@<TRIPOS>BOND
     1     1     2    1
     2     2     3    1
     3     3     4    1
     4     4     5    1
     5     5     6    1
     6     6     7    1
     7     7     8    1
     8     7     9    1
     9     9    10    1
    10     9    11    1
    11    11    12    1
    12    12    13    1
    13    13    14    1
    14    14    15    1
    15    11    16    1
    16    16    17    2
    17    17    18    1
    18    18    19    2
    19    18    20    1
    20    20    21    1
    21     5    22    1
    22    22    23    1
    23    22    24    1
    24    24    25    1
    25    25    26    1
    26    26    27    1
    27    26    28    1
    28    28    29    1
    29    29    30    1
    30    30    31    1
    31    31    32    1
    32    31    33    1
    33    33    34    1
    34    34    35    1
    35    35    36    1
    36    36    37    1
    37    37    38    1
    38    37    39    1
    39    39    40    1
    40    40    41    1
    41    41    42    1
    42    42    43    1
    43    43    44    1
    44    43    45    1
    45    45    46    1
    46    45    47    1
    47    47    48    1
    48    47    49    1
    49    39    50    1
    50    50    51    1
    51    50    52    1
    52    33    53    1
    53    53    54    1
    54    53    55    1
    55    22     1    1
    56    55    29    1
    57    27     1    1
    58    52    35    1
    59    14     4    1
    60    21    16    1
    61    49    41    1
    62    14     9    1
    63     1    56    1
    64     2    57    1
    65     2    58    1
    66     3    59    1
    67     3    60    1
    68     4    61    1
    69     5    62    1
    70     6    63    1
    71     6    64    1
    72     7    65    1
    73     8    66    1
    74    10    67    1
    75    10    68    1
    76    10    69    1
    77    11    70    1
    78    12    71    1
    79    12    72    1
    80    13    73    1
    81    13    74    1
    82    15    75    1
    83    17    76    1
    84    21    77    1
    85    21    78    1
    86    23    79    1
    87    23    80    1
    88    23    81    1
    89    24    82    1
    90    24    83    1
    91    25    84    1
    92    25    85    1
    93    26    86    1
    94    27    87    1
    95    27    88    1
    96    29    89    1
    97    30    90    1
    98    30    91    1
    99    31    92    1
   100    32    93    1
   101    33    94    1
   102    35    95    1
   103    36    96    1
   104    36    97    1
   105    37    98    1
   106    38    99    1
   107    39   100    1
   108    41   101    1
   109    42   102    1
   110    42   103    1
   111    43   104    1
   112    44   105    1
   113    45   106    1
   114    46   107    1
   115    47   108    1
   116    48   109    1
   117    48   110    1
   118    48   111    1
   119    50   112    1
   120    51   113    1
   121    51   114    1
   122    51   115    1
   123    53   116    1
   124    54   117    1
   125    54   118    1
   126    54   119    1
