
     RDKit          3D

119126  0  0  0  0  0  0  0  0999 V2000
    4.0108    1.5093   -0.6788 C   0  0  1  0  0  0  0  0  0  0  0  0
    4.8386    2.5118    0.0674 C   0  0  0  0  0  0  0  0  0  0  0  0
    6.2708    2.0924    0.2683 C   0  0  0  0  0  0  0  0  0  0  0  0
    6.6196    1.0219   -0.7832 C   0  0  2  0  0  0  0  0  0  0  0  0
    5.7893   -0.1330   -0.3634 C   0  0  2  0  0  0  0  0  0  0  0  0
    6.3597   -1.3886   -0.9711 C   0  0  0  0  0  0  0  0  0  0  0  0
    7.6740   -1.5845   -0.2407 C   0  0  1  0  0  0  0  0  0  0  0  0
    8.2424   -2.8219   -0.5644 O   0  0  0  0  0  0  0  0  0  0  0  0
    8.6332   -0.4519   -0.3994 C   0  0  2  0  0  0  0  0  0  0  0  0
    9.7377   -0.9787   -1.2788 C   0  0  0  0  0  0  0  0  0  0  0  0
    9.2139    0.0253    0.8979 C   0  0  2  0  0  0  0  0  0  0  0  0
    9.4601    1.5228    0.7732 C   0  0  0  0  0  0  0  0  0  0  0  0
    8.9804    1.8966   -0.6141 C   0  0  0  0  0  0  0  0  0  0  0  0
    8.0340    0.7931   -1.0385 C   0  0  2  0  0  0  0  0  0  0  0  0
    8.2467    0.6332   -2.4157 O   0  0  0  0  0  0  0  0  0  0  0  0
   10.3697   -0.7145    1.4313 C   0  0  0  0  0  0  0  0  0  0  0  0
   10.1926   -1.4476    2.5496 C   0  0  0  0  0  0  0  0  0  0  0  0
   11.4480   -2.0820    2.8894 C   0  0  0  0  0  0  0  0  0  0  0  0
   11.8512   -2.8531    3.8029 O   0  0  0  0  0  0  0  0  0  0  0  0
   12.3622   -1.7059    1.9484 O   0  0  0  0  0  0  0  0  0  0  0  0
   11.7632   -0.8252    1.0417 C   0  0  0  0  0  0  0  0  0  0  0  0
    4.3506    0.0804   -0.5660 C   0  0  2  0  0  0  0  0  0  0  0  0
    3.9456   -0.5675   -1.9151 C   0  0  0  0  0  0  0  0  0  0  0  0
    3.4745   -0.6553    0.4401 C   0  0  0  0  0  0  0  0  0  0  0  0
    2.9657    0.2999    1.5074 C   0  0  0  0  0  0  0  0  0  0  0  0
    1.9409    1.1336    0.7887 C   0  0  1  0  0  0  0  0  0  0  0  0
    2.5952    1.8607   -0.3011 C   0  0  0  0  0  0  0  0  0  0  0  0
    0.8950    0.3111    0.3229 O   0  0  0  0  0  0  0  0  0  0  0  0
   -0.2830    0.7293    0.9183 C   0  0  1  0  0  0  0  0  0  0  0  0
   -1.2175    1.1905   -0.1937 C   0  0  0  0  0  0  0  0  0  0  0  0
   -1.8914   -0.0813   -0.7440 C   0  0  2  0  0  0  0  0  0  0  0  0
   -2.5262    0.3297   -1.9052 O   0  0  0  0  0  0  0  0  0  0  0  0
   -2.7945   -0.5789    0.3267 C   0  0  2  0  0  0  0  0  0  0  0  0
   -4.1092   -0.1697    0.1892 O   0  0  0  0  0  0  0  0  0  0  0  0
   -5.0448   -1.1631    0.1102 C   0  0  1  0  0  0  0  0  0  0  0  0
   -6.0227   -0.9395    1.2503 C   0  0  0  0  0  0  0  0  0  0  0  0
   -7.0069    0.1633    0.9131 C   0  0  2  0  0  0  0  0  0  0  0  0
   -7.9228    0.2286    1.9574 O   0  0  0  0  0  0  0  0  0  0  0  0
   -7.7857   -0.2221   -0.3518 C   0  0  2  0  0  0  0  0  0  0  0  0
   -9.0888   -0.5766   -0.0193 O   0  0  0  0  0  0  0  0  0  0  0  0
  -10.0273    0.2564   -0.6246 C   0  0  1  0  0  0  0  0  0  0  0  0
  -11.0224   -0.5703   -1.3624 C   0  0  0  0  0  0  0  0  0  0  0  0
  -12.1333   -0.9617   -0.3836 C   0  0  2  0  0  0  0  0  0  0  0  0
  -13.0585   -1.7918   -0.9863 O   0  0  0  0  0  0  0  0  0  0  0  0
  -12.8643    0.2651    0.1033 C   0  0  2  0  0  0  0  0  0  0  0  0
  -14.0329    0.5045   -0.5895 O   0  0  0  0  0  0  0  0  0  0  0  0
  -11.9334    1.4420   -0.1059 C   0  0  1  0  0  0  0  0  0  0  0  0
  -12.3990    2.5802    0.7507 C   0  0  0  0  0  0  0  0  0  0  0  0
  -10.6751    1.0404    0.3459 O   0  0  0  0  0  0  0  0  0  0  0  0
   -7.0798   -1.3932   -0.9564 C   0  0  1  0  0  0  0  0  0  0  0  0
   -7.7157   -1.8837   -2.2335 C   0  0  0  0  0  0  0  0  0  0  0  0
   -5.7133   -1.1606   -1.1217 O   0  0  0  0  0  0  0  0  0  0  0  0
   -2.2227   -0.2435    1.6886 C   0  0  1  0  0  0  0  0  0  0  0  0
   -2.6674   -1.2878    2.7090 C   0  0  0  0  0  0  0  0  0  0  0  0
   -0.8291   -0.3699    1.5866 O   0  0  0  0  0  0  0  0  0  0  0  0
    4.0875    1.8343   -1.7720 H   0  0  0  0  0  0  0  0  0  0  0  0
    4.8967    3.4538   -0.5674 H   0  0  0  0  0  0  0  0  0  0  0  0
    4.3735    2.8773    0.9950 H   0  0  0  0  0  0  0  0  0  0  0  0
    6.9138    2.9619    0.2510 H   0  0  0  0  0  0  0  0  0  0  0  0
    6.3193    1.6288    1.2777 H   0  0  0  0  0  0  0  0  0  0  0  0
    6.1746    1.5060   -1.7049 H   0  0  0  0  0  0  0  0  0  0  0  0
    5.9387   -0.2621    0.7538 H   0  0  0  0  0  0  0  0  0  0  0  0
    6.6189   -1.2310   -2.0489 H   0  0  0  0  0  0  0  0  0  0  0  0
    5.7921   -2.2986   -0.7878 H   0  0  0  0  0  0  0  0  0  0  0  0
    7.4411   -1.6660    0.8600 H   0  0  0  0  0  0  0  0  0  0  0  0
    7.5805   -3.5343   -0.3819 H   0  0  0  0  0  0  0  0  0  0  0  0
   10.5178   -0.2540   -1.4890 H   0  0  0  0  0  0  0  0  0  0  0  0
   10.0318   -1.9936   -1.0016 H   0  0  0  0  0  0  0  0  0  0  0  0
    9.2258   -1.1239   -2.2934 H   0  0  0  0  0  0  0  0  0  0  0  0
    8.3454   -0.0262    1.6247 H   0  0  0  0  0  0  0  0  0  0  0  0
   10.5476    1.6965    0.9150 H   0  0  0  0  0  0  0  0  0  0  0  0
    8.9773    2.0964    1.5847 H   0  0  0  0  0  0  0  0  0  0  0  0
    9.9272    1.8632   -1.2431 H   0  0  0  0  0  0  0  0  0  0  0  0
    8.6195    2.9070   -0.7198 H   0  0  0  0  0  0  0  0  0  0  0  0
    8.6776    1.4101   -2.8377 H   0  0  0  0  0  0  0  0  0  0  0  0
    9.3283   -1.6277    3.1883 H   0  0  0  0  0  0  0  0  0  0  0  0
   11.9754   -1.2433    0.0359 H   0  0  0  0  0  0  0  0  0  0  0  0
   12.3317    0.1371    1.1432 H   0  0  0  0  0  0  0  0  0  0  0  0
    3.8952    0.2066   -2.7192 H   0  0  0  0  0  0  0  0  0  0  0  0
    2.9023   -0.9502   -1.8769 H   0  0  0  0  0  0  0  0  0  0  0  0
    4.5696   -1.4235   -2.1684 H   0  0  0  0  0  0  0  0  0  0  0  0
    3.9751   -1.5339    0.8271 H   0  0  0  0  0  0  0  0  0  0  0  0
    2.5640   -1.0062   -0.0838 H   0  0  0  0  0  0  0  0  0  0  0  0
    3.7350    0.8891    1.9940 H   0  0  0  0  0  0  0  0  0  0  0  0
    2.4078   -0.3582    2.2224 H   0  0  0  0  0  0  0  0  0  0  0  0
    1.5354    1.8728    1.5123 H   0  0  0  0  0  0  0  0  0  0  0  0
    1.9583    1.7282   -1.2410 H   0  0  0  0  0  0  0  0  0  0  0  0
    2.5014    2.9620   -0.1212 H   0  0  0  0  0  0  0  0  0  0  0  0
   -0.0837    1.5727    1.5654 H   0  0  0  0  0  0  0  0  0  0  0  0
   -2.0304    1.7669    0.2778 H   0  0  0  0  0  0  0  0  0  0  0  0
   -0.6645    1.7255   -0.9884 H   0  0  0  0  0  0  0  0  0  0  0  0
   -1.0794   -0.7788   -1.0373 H   0  0  0  0  0  0  0  0  0  0  0  0
   -3.2015    1.0351   -1.7803 H   0  0  0  0  0  0  0  0  0  0  0  0
   -2.8006   -1.6886    0.2959 H   0  0  0  0  0  0  0  0  0  0  0  0
   -4.6584   -2.1978    0.2034 H   0  0  0  0  0  0  0  0  0  0  0  0
   -5.4211   -0.5222    2.1105 H   0  0  0  0  0  0  0  0  0  0  0  0
   -6.4676   -1.8597    1.6112 H   0  0  0  0  0  0  0  0  0  0  0  0
   -6.5252    1.1396    0.8290 H   0  0  0  0  0  0  0  0  0  0  0  0
   -8.4428    1.0795    1.9762 H   0  0  0  0  0  0  0  0  0  0  0  0
   -7.8436    0.6460   -1.0426 H   0  0  0  0  0  0  0  0  0  0  0  0
   -9.4760    0.9878   -1.2490 H   0  0  0  0  0  0  0  0  0  0  0  0
  -11.4243   -0.0715   -2.2722 H   0  0  0  0  0  0  0  0  0  0  0  0
  -10.5926   -1.5174   -1.7082 H   0  0  0  0  0  0  0  0  0  0  0  0
  -11.6260   -1.5020    0.4370 H   0  0  0  0  0  0  0  0  0  0  0  0
  -13.5801   -2.2109   -0.2449 H   0  0  0  0  0  0  0  0  0  0  0  0
  -13.0658    0.1447    1.1824 H   0  0  0  0  0  0  0  0  0  0  0  0
  -14.7272   -0.1447   -0.3301 H   0  0  0  0  0  0  0  0  0  0  0  0
  -11.9625    1.7492   -1.1516 H   0  0  0  0  0  0  0  0  0  0  0  0
  -13.4921    2.7672    0.5897 H   0  0  0  0  0  0  0  0  0  0  0  0
  -11.8523    3.5287    0.5322 H   0  0  0  0  0  0  0  0  0  0  0  0
  -12.2977    2.3764    1.8295 H   0  0  0  0  0  0  0  0  0  0  0  0
   -7.1427   -2.2432   -0.2377 H   0  0  0  0  0  0  0  0  0  0  0  0
   -8.1419   -1.0572   -2.8350 H   0  0  0  0  0  0  0  0  0  0  0  0
   -8.4957   -2.6247   -1.9560 H   0  0  0  0  0  0  0  0  0  0  0  0
   -6.9324   -2.4602   -2.7845 H   0  0  0  0  0  0  0  0  0  0  0  0
   -2.5338    0.7304    2.0790 H   0  0  0  0  0  0  0  0  0  0  0  0
   -1.8245   -1.6703    3.3203 H   0  0  0  0  0  0  0  0  0  0  0  0
   -3.1168   -2.1809    2.2330 H   0  0  0  0  0  0  0  0  0  0  0  0
   -3.3806   -0.8370    3.4594 H   0  0  0  0  0  0  0  0  0  0  0  0
  1  2  1  0
  2  3  1  0
  3  4  1  0
  4  5  1  0
  5  6  1  0
  6  7  1  0
  7  8  1  0
  7  9  1  0
  9 10  1  6
  9 11  1  0
 11 12  1  0
 12 13  1  0
 13 14  1  0
 14 15  1  6
 11 16  1  0
 16 17  2  0
 17 18  1  0
 18 19  2  0
 18 20  1  0
 20 21  1  0
  5 22  1  0
 22 23  1  6
 22 24  1  0
 24 25  1  0
 25 26  1  0
 26 27  1  0
 26 28  1  0
 28 29  1  0
 29 30  1  0
 30 31  1  0
 31 32  1  0
 31 33  1  0
 33 34  1  0
 34 35  1  0
 35 36  1  0
 36 37  1  0
 37 38  1  0
 37 39  1  0
 39 40  1  0
 40 41  1  0
 41 42  1  0
 42 43  1  0
 43 44  1  0
 43 45  1  0
 45 46  1  0
 45 47  1  0
 47 48  1  0
 47 49  1  0
 39 50  1  0
 50 51  1  0
 50 52  1  0
 33 53  1  0
 53 54  1  0
 53 55  1  0
 22  1  1  0
 55 29  1  0
 27  1  1  0
 52 35  1  0
 14  4  1  0
 21 16  1  0
 49 41  1  0
 14  9  1  0
  1 56  1  6
  2 57  1  0
  2 58  1  0
  3 59  1  0
  3 60  1  0
  4 61  1  6
  5 62  1  1
  6 63  1  0
  6 64  1  0
  7 65  1  1
  8 66  1  0
 10 67  1  0
 10 68  1  0
 10 69  1  0
 11 70  1  1
 12 71  1  0
 12 72  1  0
 13 73  1  0
 13 74  1  0
 15 75  1  0
 17 76  1  0
 21 77  1  0
 21 78  1  0
 23 79  1  0
 23 80  1  0
 23 81  1  0
 24 82  1  0
 24 83  1  0
 25 84  1  0
 25 85  1  0
 26 86  1  1
 27 87  1  0
 27 88  1  0
 29 89  1  1
 30 90  1  0
 30 91  1  0
 31 92  1  6
 32 93  1  0
 33 94  1  1
 35 95  1  1
 36 96  1  0
 36 97  1  0
 37 98  1  6
 38 99  1  0
 39100  1  6
 41101  1  6
 42102  1  0
 42103  1  0
 43104  1  1
 44105  1  0
 45106  1  1
 46107  1  0
 47108  1  6
 48109  1  0
 48110  1  0
 48111  1  0
 50112  1  1
 51113  1  0
 51114  1  0
 51115  1  0
 53116  1  1
 54117  1  0
 54118  1  0
 54119  1  0
M  END
$$$$
