
     RDKit          3D

 47 50  0  0  0  0  0  0  0  0999 V2000
   -2.7268    0.6352    2.7356 N   0  0  0  0  0  0  0  0  0  0  0  0
   -2.9956    1.3906    1.5391 C   0  0  0  0  0  0  0  0  0  0  0  0
   -2.6250    0.6954    0.2802 C   0  0  2  0  0  0  0  0  0  0  0  0
   -3.3573   -0.5905    0.0989 C   0  0  0  0  0  0  0  0  0  0  0  0
   -4.8555   -0.4168    0.0448 C   0  0  0  0  0  0  0  0  0  0  0  0
   -5.5773   -0.4910    1.2071 C   0  0  0  0  0  0  0  0  0  0  0  0
   -6.9445   -0.3302    1.1575 C   0  0  0  0  0  0  0  0  0  0  0  0
   -7.6397   -0.0956   -0.0090 C   0  0  0  0  0  0  0  0  0  0  0  0
   -6.8610   -0.0295   -1.1585 C   0  0  0  0  0  0  0  0  0  0  0  0
   -7.5334    0.2017   -2.3194 F   0  0  0  0  0  0  0  0  0  0  0  0
   -5.5016   -0.1860   -1.1351 C   0  0  0  0  0  0  0  0  0  0  0  0
   -1.2258    0.4462    0.1196 N   0  0  0  0  0  0  0  0  0  0  0  0
   -0.4230    0.9578   -0.9093 C   0  0  0  0  0  0  0  0  0  0  0  0
   -0.9423    1.6947   -1.7717 O   0  0  0  0  0  0  0  0  0  0  0  0
    1.0048    0.6758   -1.0334 C   0  0  0  0  0  0  0  0  0  0  0  0
    1.8978    1.0981   -1.9680 C   0  0  0  0  0  0  0  0  0  0  0  0
    3.1788    0.6900   -1.8587 C   0  0  0  0  0  0  0  0  0  0  0  0
    4.4567    1.1440   -3.2898 Br  0  0  0  0  0  0  0  0  0  0  0  0
    3.5452   -0.1052   -0.8491 C   0  0  0  0  0  0  0  0  0  0  0  0
    4.7467   -0.8085   -0.4467 C   0  0  0  0  0  0  0  0  0  0  0  0
    4.6173   -2.1263    0.0148 C   0  0  0  0  0  0  0  0  0  0  0  0
    5.7225   -2.8385    0.4662 C   0  0  0  0  0  0  0  0  0  0  0  0
    6.9316   -2.2492    0.4589 N   0  0  0  0  0  0  0  0  0  0  0  0
    7.0963   -0.9869    0.0278 C   0  0  0  0  0  0  0  0  0  0  0  0
    8.2000   -0.2257   -0.0090 N   0  0  0  0  0  0  0  0  0  0  0  0
    7.8517    0.9667   -0.4655 C   0  0  0  0  0  0  0  0  0  0  0  0
    6.4816    0.9758   -0.7325 C   0  0  0  0  0  0  0  0  0  0  0  0
    5.9904   -0.2633   -0.4272 C   0  0  0  0  0  0  0  0  0  0  0  0
    1.9832   -0.3160    0.0243 S   0  0  0  0  0  0  0  0  0  0  0  0
   -3.4248    0.8513    3.4527 H   0  0  0  0  0  0  0  0  0  0  0  0
   -2.5005   -0.3513    2.5872 H   0  0  0  0  0  0  0  0  0  0  0  0
   -2.5981    2.4300    1.5937 H   0  0  0  0  0  0  0  0  0  0  0  0
   -4.1176    1.5296    1.5111 H   0  0  0  0  0  0  0  0  0  0  0  0
   -2.9351    1.3661   -0.5645 H   0  0  0  0  0  0  0  0  0  0  0  0
   -3.1336   -1.3254    0.9110 H   0  0  0  0  0  0  0  0  0  0  0  0
   -3.0947   -1.1070   -0.8466 H   0  0  0  0  0  0  0  0  0  0  0  0
   -5.1189   -0.6744    2.1764 H   0  0  0  0  0  0  0  0  0  0  0  0
   -7.5492   -0.3845    2.0730 H   0  0  0  0  0  0  0  0  0  0  0  0
   -8.7175    0.0282   -0.0251 H   0  0  0  0  0  0  0  0  0  0  0  0
   -4.9103   -0.1304   -2.0484 H   0  0  0  0  0  0  0  0  0  0  0  0
   -0.7620   -0.1734    0.8348 H   0  0  0  0  0  0  0  0  0  0  0  0
    1.5234    1.7674   -2.7843 H   0  0  0  0  0  0  0  0  0  0  0  0
    3.6368   -2.5602    0.0054 H   0  0  0  0  0  0  0  0  0  0  0  0
    5.5985   -3.8662    0.8211 H   0  0  0  0  0  0  0  0  0  0  0  0
    9.1472   -0.5465    0.2776 H   0  0  0  0  0  0  0  0  0  0  0  0
    8.5259    1.7962   -0.6065 H   0  0  0  0  0  0  0  0  0  0  0  0
    5.9347    1.8378   -1.0738 H   0  0  0  0  0  0  0  0  0  0  0  0
  1  2  1  0
  2  3  1  0
  3  4  1  0
  4  5  1  0
  5  6  2  0
  6  7  1  0
  7  8  2  0
  8  9  1  0
  9 10  1  0
  9 11  2  0
  3 12  1  0
 12 13  1  0
 13 14  2  0
 13 15  1  0
 15 16  2  0
 16 17  1  0
 17 18  1  0
 17 19  2  0
 19 20  1  0
 20 21  2  0
 21 22  1  0
 22 23  2  0
 23 24  1  0
 24 25  1  0
 25 26  1  0
 26 27  2  0
 27 28  1  0
 19 29  1  0
 11  5  1  0
 29 15  1  0
 28 20  1  0
 28 24  2  0
  1 30  1  0
  1 31  1  0
  2 32  1  0
  2 33  1  0
  3 34  1  6
  4 35  1  0
  4 36  1  0
  6 37  1  0
  7 38  1  0
  8 39  1  0
 11 40  1  0
 12 41  1  0
 16 42  1  0
 21 43  1  0
 22 44  1  0
 25 45  1  0
 26 46  1  0
 27 47  1  0
M  END
$$$$
