@<TRIPOS>MOLECULE
*****
 47 50 0 0 0
SMALL
GASTEIGER

@<TRIPOS>ATOM
      1 N          -2.7268    0.6352    2.7356 N.3     1  UNL1       -0.3282
      2 C          -2.9956    1.3906    1.5391 C.3     1  UNL1        0.0119
      3 C          -2.6250    0.6954    0.2802 C.3     1  UNL1        0.0397
      4 C          -3.3573   -0.5905    0.0989 C.3     1  UNL1       -0.0079
      5 C          -4.8555   -0.4168    0.0448 C.ar    1  UNL1       -0.0429
      6 C          -5.5773   -0.4910    1.2071 C.ar    1  UNL1       -0.0583
      7 C          -6.9445   -0.3302    1.1575 C.ar    1  UNL1       -0.0588
      8 C          -7.6397   -0.0956   -0.0090 C.ar    1  UNL1       -0.0264
      9 C          -6.8610   -0.0295   -1.1585 C.ar    1  UNL1        0.1237
     10 F          -7.5334    0.2017   -2.3194 F       1  UNL1       -0.2055
     11 C          -5.5016   -0.1860   -1.1351 C.ar    1  UNL1       -0.0232
     12 N          -1.2258    0.4462    0.1196 N.am    1  UNL1       -0.3065
     13 C          -0.4230    0.9578   -0.9093 C.2     1  UNL1        0.2510
     14 O          -0.9423    1.6947   -1.7717 O.2     1  UNL1       -0.2696
     15 C           1.0048    0.6758   -1.0334 C.ar    1  UNL1        0.0755
     16 C           1.8978    1.0981   -1.9680 C.ar    1  UNL1       -0.0279
     17 C           3.1788    0.6900   -1.8587 C.ar    1  UNL1        0.0334
     18 BR          4.4567    1.1440   -3.2898 Br      1  UNL1       -0.0491
     19 C           3.5452   -0.1052   -0.8491 C.ar    1  UNL1        0.0347
     20 C           4.7467   -0.8085   -0.4467 C.ar    1  UNL1        0.0019
     21 C           4.6173   -2.1263    0.0148 C.ar    1  UNL1       -0.0346
     22 C           5.7225   -2.8385    0.4662 C.ar    1  UNL1        0.0305
     23 N           6.9316   -2.2492    0.4589 N.ar    1  UNL1       -0.2375
     24 C           7.0963   -0.9869    0.0278 C.ar    1  UNL1        0.1387
     25 N           8.2000   -0.2257   -0.0090 N.ar    1  UNL1       -0.3458
     26 C           7.8517    0.9667   -0.4655 C.ar    1  UNL1        0.0041
     27 C           6.4816    0.9758   -0.7325 C.ar    1  UNL1       -0.0345
     28 C           5.9904   -0.2633   -0.4272 C.ar    1  UNL1        0.0269
     29 S           1.9832   -0.3160    0.0243 S.2     1  UNL1       -0.0825
     30 H          -3.4248    0.8513    3.4527 H       1  UNL1        0.1183
     31 H          -2.5005   -0.3513    2.5872 H       1  UNL1        0.1183
     32 H          -2.5981    2.4300    1.5937 H       1  UNL1        0.0440
     33 H          -4.1176    1.5296    1.5111 H       1  UNL1        0.0440
     34 H          -2.9351    1.3661   -0.5645 H       1  UNL1        0.0514
     35 H          -3.1336   -1.3254    0.9110 H       1  UNL1        0.0332
     36 H          -3.0947   -1.1070   -0.8466 H       1  UNL1        0.0332
     37 H          -5.1189   -0.6744    2.1764 H       1  UNL1        0.0620
     38 H          -7.5492   -0.3845    2.0730 H       1  UNL1        0.0619
     39 H          -8.7175    0.0282   -0.0251 H       1  UNL1        0.0646
     40 H          -4.9103   -0.1304   -2.0484 H       1  UNL1        0.0649
     41 H          -0.7620   -0.1734    0.8348 H       1  UNL1        0.1494
     42 H           1.5234    1.7674   -2.7843 H       1  UNL1        0.0642
     43 H           3.6368   -2.5602    0.0054 H       1  UNL1        0.0639
     44 H           5.5985   -3.8662    0.8211 H       1  UNL1        0.0830
     45 H           9.1472   -0.5465    0.2776 H       1  UNL1        0.1668
     46 H           8.5259    1.7962   -0.6065 H       1  UNL1        0.0807
     47 H           5.9347    1.8378   -1.0738 H       1  UNL1        0.0639
@<TRIPOS>BOND
     1     1     2    1
     2     2     3    1
     3     3     4    1
     4     4     5    1
     5     5     6   ar
     6     6     7   ar
     7     7     8   ar
     8     8     9   ar
     9     9    10    1
    10     9    11   ar
    11     3    12    1
    12    12    13   am
    13    13    14    2
    14    13    15    1
    15    15    16   ar
    16    16    17   ar
    17    17    18    1
    18    17    19   ar
    19    19    20    1
    20    20    21   ar
    21    21    22   ar
    22    22    23   ar
    23    23    24   ar
    24    24    25   ar
    25    25    26   ar
    26    26    27   ar
    27    27    28   ar
    28    19    29   ar
    29    11     5   ar
    30    29    15   ar
    31    28    20   ar
    32    28    24   ar
    33     1    30    1
    34     1    31    1
    35     2    32    1
    36     2    33    1
    37     3    34    1
    38     4    35    1
    39     4    36    1
    40     6    37    1
    41     7    38    1
    42     8    39    1
    43    11    40    1
    44    12    41    1
    45    16    42    1
    46    21    43    1
    47    22    44    1
    48    25    45    1
    49    26    46    1
    50    27    47    1
