@<TRIPOS>MOLECULE
*****
 56 59 0 0 0
SMALL
GASTEIGER

@<TRIPOS>ATOM
      1 C          -4.8654    3.9179    1.6168 C.3     1  UNL1        0.0365
      2 O          -4.6922    3.2497    0.4304 O.3     1  UNL1       -0.3814
      3 C          -4.2946    1.9254    0.6064 C.3     1  UNL1        0.0635
      4 C          -4.1191    1.2397   -0.7194 C.3     1  UNL1        0.0447
      5 N          -3.7083   -0.1257   -0.5050 N.am    1  UNL1       -0.2531
      6 C          -2.3446   -0.5130   -0.4145 C.2     1  UNL1        0.3109
      7 O          -2.0510   -1.7205   -0.2303 O.2     1  UNL1       -0.2519
      8 N          -1.2692    0.3969   -0.5213 N.am    1  UNL1       -0.2665
      9 C           0.1017   -0.0300   -0.4249 C.ar    1  UNL1        0.0702
     10 C           0.7153   -0.3905   -1.6048 C.ar    1  UNL1       -0.0370
     11 C           2.0353   -0.8131   -1.5980 C.ar    1  UNL1       -0.0506
     12 C           2.7365   -0.8735   -0.4114 C.ar    1  UNL1        0.0039
     13 C           4.0965   -1.3887   -0.4899 C.ar    1  UNL1        0.0837
     14 N           4.3246   -2.6252   -1.0338 N.ar    1  UNL1       -0.2347
     15 C           5.5300   -3.1766   -1.1539 C.ar    1  UNL1        0.1189
     16 N           6.5756   -2.4636   -0.7100 N.ar    1  UNL1       -0.2179
     17 C           6.4262   -1.2438   -0.1669 C.ar    1  UNL1        0.1424
     18 N           7.3320   -0.3563    0.3214 N.ar    1  UNL1       -0.3429
     19 C           6.7315    0.7559    0.7497 C.ar    1  UNL1        0.0181
     20 C           7.3469    1.9775    1.3548 C.3     1  UNL1       -0.0241
     21 C           5.3613    0.5607    0.5187 C.ar    1  UNL1       -0.0189
     22 C           4.3316    1.5632    0.8128 C.3     1  UNL1       -0.0373
     23 C           5.1662   -0.6732   -0.0447 C.ar    1  UNL1        0.0478
     24 C           2.0957   -0.5083    0.7450 C.ar    1  UNL1       -0.0154
     25 C           0.7858   -0.0885    0.7388 C.ar    1  UNL1        0.1451
     26 F           0.1633    0.2704    1.8870 F       1  UNL1       -0.2035
     27 C          -4.7337   -1.1006   -0.3850 C.ar    1  UNL1        0.0379
     28 C          -5.2225   -1.7597   -1.4752 C.ar    1  UNL1       -0.0388
     29 C          -6.2323   -2.7218   -1.3653 C.ar    1  UNL1       -0.0416
     30 C          -6.7470   -3.0108   -0.1185 C.ar    1  UNL1        0.0411
     31 CL         -8.0091   -4.2187   -0.0133 Cl      1  UNL1       -0.0835
     32 C          -6.2620   -2.3522    0.9916 C.ar    1  UNL1       -0.0416
     33 C          -5.2539   -1.3956    0.8587 C.ar    1  UNL1       -0.0388
     34 H          -5.6458    3.4530    2.2781 H       1  UNL1        0.0523
     35 H          -3.9409    3.9346    2.2259 H       1  UNL1        0.0523
     36 H          -5.2390    4.9313    1.3878 H       1  UNL1        0.0523
     37 H          -5.1448    1.4182    1.1205 H       1  UNL1        0.0575
     38 H          -3.3462    1.8563    1.1698 H       1  UNL1        0.0575
     39 H          -5.1049    1.2663   -1.2309 H       1  UNL1        0.0492
     40 H          -3.3752    1.7266   -1.3772 H       1  UNL1        0.0492
     41 H          -1.4931    1.4039   -0.6740 H       1  UNL1        0.1565
     42 H           0.1556   -0.3422   -2.5513 H       1  UNL1        0.0637
     43 H           2.4611   -1.0821   -2.5525 H       1  UNL1        0.0625
     44 H           5.6381   -4.1644   -1.5963 H       1  UNL1        0.1048
     45 H           8.3595   -0.5273    0.3545 H       1  UNL1        0.1670
     46 H           6.8907    2.9063    0.9390 H       1  UNL1        0.0292
     47 H           8.4235    1.9737    1.0824 H       1  UNL1        0.0292
     48 H           7.2967    1.9587    2.4653 H       1  UNL1        0.0292
     49 H           3.8604    1.4649    1.8049 H       1  UNL1        0.0278
     50 H           4.8558    2.5751    0.8590 H       1  UNL1        0.0278
     51 H           3.5997    1.7252   -0.0195 H       1  UNL1        0.0278
     52 H           2.6516   -0.5713    1.6939 H       1  UNL1        0.0653
     53 H          -4.8262   -1.5382   -2.4423 H       1  UNL1        0.0637
     54 H          -6.5971   -3.2268   -2.2576 H       1  UNL1        0.0633
     55 H          -6.6516   -2.5673    1.9571 H       1  UNL1        0.0633
     56 H          -4.8792   -0.8820    1.7466 H       1  UNL1        0.0637
@<TRIPOS>BOND
     1     1     2    1
     2     2     3    1
     3     3     4    1
     4     4     5    1
     5     5     6   am
     6     6     7    2
     7     6     8   am
     8     8     9    1
     9     9    10   ar
    10    10    11   ar
    11    11    12   ar
    12    12    13    1
    13    13    14   ar
    14    14    15   ar
    15    15    16   ar
    16    16    17   ar
    17    17    18   ar
    18    18    19   ar
    19    19    20    1
    20    19    21   ar
    21    21    22    1
    22    21    23   ar
    23    12    24   ar
    24    24    25   ar
    25    25    26    1
    26     5    27    1
    27    27    28   ar
    28    28    29   ar
    29    29    30   ar
    30    30    31    1
    31    30    32   ar
    32    32    33   ar
    33    25     9   ar
    34    33    27   ar
    35    23    13   ar
    36    23    17   ar
    37     1    34    1
    38     1    35    1
    39     1    36    1
    40     3    37    1
    41     3    38    1
    42     4    39    1
    43     4    40    1
    44     8    41    1
    45    10    42    1
    46    11    43    1
    47    15    44    1
    48    18    45    1
    49    20    46    1
    50    20    47    1
    51    20    48    1
    52    22    49    1
    53    22    50    1
    54    22    51    1
    55    24    52    1
    56    28    53    1
    57    29    54    1
    58    32    55    1
    59    33    56    1
