@<TRIPOS>MOLECULE
*****
 30 32 0 0 0
SMALL
GASTEIGER

@<TRIPOS>ATOM
      1 N           5.6933   -0.5005   -0.0681 N.pl3   1  UNL1       -0.3274
      2 C           4.2901   -0.2740   -0.0618 C.ar    1  UNL1        0.2163
      3 N           3.9428    1.0050   -0.0816 N.ar    1  UNL1       -0.1978
      4 C           2.6242    1.3272   -0.0776 C.ar    1  UNL1        0.1491
      5 N           2.1452    2.6723   -0.0975 N.pl3   1  UNL1       -0.3413
      6 C           1.6966    0.2960   -0.0529 C.ar    1  UNL1        0.1482
      7 N           0.3973    0.5766   -0.0484 N.ar    1  UNL1       -0.2367
      8 C          -0.5715   -0.3723   -0.0249 C.ar    1  UNL1        0.1113
      9 C          -0.1800   -1.7147   -0.0043 C.ar    1  UNL1        0.1448
     10 N          -1.1696   -2.7531    0.0209 N.pl3   1  UNL1       -0.3414
     11 N           1.1472   -1.9856   -0.0093 N.ar    1  UNL1       -0.2091
     12 C           2.0811   -1.0373   -0.0325 C.ar    1  UNL1        0.1868
     13 N           3.4019   -1.2723   -0.0380 N.ar    1  UNL1       -0.1932
     14 C          -1.9919   -0.0452   -0.0203 C.ar    1  UNL1        0.0037
     15 C          -2.9742   -0.5839    0.7561 C.ar    1  UNL1       -0.0525
     16 C          -4.2893   -0.1601    0.6382 C.ar    1  UNL1       -0.0611
     17 C          -4.6458    0.8277   -0.2761 C.ar    1  UNL1       -0.0617
     18 C          -3.6360    1.3738   -1.0664 C.ar    1  UNL1       -0.0611
     19 C          -2.3303    0.9495   -0.9457 C.ar    1  UNL1       -0.0525
     20 H           6.0119   -1.2619   -0.6777 H       1  UNL1        0.1452
     21 H           6.4670   -0.0467    0.4242 H       1  UNL1        0.1452
     22 H           1.9002    3.4215   -0.7882 H       1  UNL1        0.1438
     23 H           2.0233    2.9228    0.9183 H       1  UNL1        0.1438
     24 H          -1.6537   -2.7064   -0.8928 H       1  UNL1        0.1438
     25 H          -1.3783   -3.4270    0.7855 H       1  UNL1        0.1438
     26 H          -2.6357   -1.3447    1.4452 H       1  UNL1        0.0624
     27 H          -5.0271   -0.6333    1.2906 H       1  UNL1        0.0618
     28 H          -5.6892    1.1364   -0.3418 H       1  UNL1        0.0618
     29 H          -3.9870    2.1376   -1.7555 H       1  UNL1        0.0618
     30 H          -1.6628    1.4725   -1.6318 H       1  UNL1        0.0624
@<TRIPOS>BOND
     1     1     2    1
     2     2     3   ar
     3     3     4   ar
     4     4     5    1
     5     4     6   ar
     6     6     7   ar
     7     7     8   ar
     8     8     9   ar
     9     9    10    1
    10     9    11   ar
    11    11    12   ar
    12    12    13   ar
    13     8    14    1
    14    14    15   ar
    15    15    16   ar
    16    16    17   ar
    17    17    18   ar
    18    18    19   ar
    19    13     2   ar
    20    19    14   ar
    21    12     6   ar
    22     1    20    1
    23     1    21    1
    24     5    22    1
    25     5    23    1
    26    10    24    1
    27    10    25    1
    28    15    26    1
    29    16    27    1
    30    17    28    1
    31    18    29    1
    32    19    30    1
