@<TRIPOS>MOLECULE
*****
 54 56 0 0 0
SMALL
GASTEIGER

@<TRIPOS>ATOM
      1 C          -4.9214    2.6759   -1.9985 C.3     1  UNL1       -0.0011
      2 N          -5.7273    1.5711   -1.5782 N.pl3   1  UNL1       -0.3321
      3 C          -5.1719    0.5382   -0.7486 C.ar    1  UNL1        0.1208
      4 C          -5.9594   -0.5208   -0.3493 C.ar    1  UNL1       -0.0189
      5 C          -5.4466   -1.5208    0.4458 C.ar    1  UNL1       -0.0440
      6 C          -6.2957   -2.6837    0.8889 C.3     1  UNL1       -0.0395
      7 C          -4.1280   -1.4157    0.8189 C.ar    1  UNL1       -0.0187
      8 C          -3.3184   -0.3584    0.4279 C.ar    1  UNL1        0.1236
      9 N          -1.9546   -0.2696    0.8257 N.pl3   1  UNL1       -0.3151
     10 C          -1.1920    0.8701    0.3830 C.3     1  UNL1        0.0142
     11 C           0.2717    0.6581    0.2509 C.3     1  UNL1       -0.0260
     12 C           0.6471   -0.7854    0.3653 C.3     1  UNL1        0.0384
     13 C           2.1208   -0.9776    0.3652 C.2     1  UNL1        0.2165
     14 O           2.6801   -1.6645   -0.5257 O.2     1  UNL1       -0.2755
     15 N           2.9596   -0.3958    1.3679 N.am    1  UNL1       -0.3110
     16 C           4.3929   -0.5566    1.4030 C.3     1  UNL1        0.0374
     17 C           5.1076   -0.0904    0.2137 C.ar    1  UNL1       -0.0187
     18 C           5.5761   -1.0233   -0.7253 C.ar    1  UNL1       -0.0565
     19 C           6.2564   -0.6679   -1.8607 C.ar    1  UNL1       -0.0614
     20 C           6.4830    0.6823   -2.0741 C.ar    1  UNL1       -0.0612
     21 C           6.0338    1.6063   -1.1696 C.ar    1  UNL1       -0.0498
     22 C           5.3393    1.2254   -0.0132 C.ar    1  UNL1        0.0595
     23 C           4.8842    2.2811    0.9137 C.3     1  UNL1        0.4177
     24 F           3.5239    2.3273    1.0697 F       1  UNL1       -0.1659
     25 F           5.4814    2.1634    2.1609 F       1  UNL1       -0.1659
     26 F           5.2649    3.5345    0.4379 F       1  UNL1       -0.1659
     27 C           0.0964   -1.3006    1.6813 C.3     1  UNL1       -0.0260
     28 C          -1.4123   -1.3175    1.6462 C.3     1  UNL1        0.0142
     29 N          -3.8931    0.5829   -0.3511 N.ar    1  UNL1       -0.2176
     30 H          -4.2161    2.9957   -1.1935 H       1  UNL1        0.0426
     31 H          -4.3735    2.4442   -2.9433 H       1  UNL1        0.0426
     32 H          -5.5476    3.5676   -2.2222 H       1  UNL1        0.0426
     33 H          -6.7070    1.5042   -1.8632 H       1  UNL1        0.1471
     34 H          -7.0029   -0.6017   -0.6463 H       1  UNL1        0.0654
     35 H          -6.2608   -3.4003    0.0334 H       1  UNL1        0.0278
     36 H          -5.7539   -3.1719    1.7398 H       1  UNL1        0.0278
     37 H          -7.3005   -2.3558    1.1532 H       1  UNL1        0.0278
     38 H          -3.7033   -2.1845    1.4415 H       1  UNL1        0.0654
     39 H          -1.3193    1.7100    1.1338 H       1  UNL1        0.0464
     40 H          -1.6171    1.2519   -0.5715 H       1  UNL1        0.0464
     41 H           0.8739    1.2408    0.9803 H       1  UNL1        0.0288
     42 H           0.5887    1.0052   -0.7621 H       1  UNL1        0.0288
     43 H           0.2135   -1.3398   -0.4656 H       1  UNL1        0.0395
     44 H           2.4190    0.1629    2.0982 H       1  UNL1        0.1490
     45 H           4.6728   -1.6348    1.5868 H       1  UNL1        0.0512
     46 H           4.7633   -0.0122    2.2961 H       1  UNL1        0.0512
     47 H           5.3871   -2.0871   -0.5349 H       1  UNL1        0.0621
     48 H           6.6069   -1.4196   -2.5711 H       1  UNL1        0.0618
     49 H           7.0185    0.9783   -2.9659 H       1  UNL1        0.0618
     50 H           6.2079    2.6515   -1.3321 H       1  UNL1        0.0623
     51 H           0.4331   -0.6141    2.4638 H       1  UNL1        0.0288
     52 H           0.4391   -2.3468    1.8042 H       1  UNL1        0.0288
     53 H          -1.8219   -1.2286    2.6539 H       1  UNL1        0.0464
     54 H          -1.6983   -2.2829    1.1338 H       1  UNL1        0.0464
@<TRIPOS>BOND
     1     1     2    1
     2     2     3    1
     3     3     4   ar
     4     4     5   ar
     5     5     6    1
     6     5     7   ar
     7     7     8   ar
     8     8     9    1
     9     9    10    1
    10    10    11    1
    11    11    12    1
    12    12    13    1
    13    13    14    2
    14    13    15   am
    15    15    16    1
    16    16    17    1
    17    17    18   ar
    18    18    19   ar
    19    19    20   ar
    20    20    21   ar
    21    21    22   ar
    22    22    23    1
    23    23    24    1
    24    23    25    1
    25    23    26    1
    26    12    27    1
    27    27    28    1
    28     8    29   ar
    29    29     3   ar
    30    28     9    1
    31    22    17   ar
    32     1    30    1
    33     1    31    1
    34     1    32    1
    35     2    33    1
    36     4    34    1
    37     6    35    1
    38     6    36    1
    39     6    37    1
    40     7    38    1
    41    10    39    1
    42    10    40    1
    43    11    41    1
    44    11    42    1
    45    12    43    1
    46    15    44    1
    47    16    45    1
    48    16    46    1
    49    18    47    1
    50    19    48    1
    51    20    49    1
    52    21    50    1
    53    27    51    1
    54    27    52    1
    55    28    53    1
    56    28    54    1
