
     RDKit          3D

 45 48  0  0  0  0  0  0  0  0999 V2000
   -0.5754   -0.3400    1.7056 O   0  0  0  0  0  0  0  0  0  0  0  0
   -1.4394   -0.2039    0.7584 C   0  0  0  0  0  0  0  0  0  0  0  0
   -0.9879   -0.6364   -0.5747 C   0  0  0  0  0  0  0  0  0  0  0  0
    0.3975   -1.2423   -0.4489 C   0  0  0  0  0  0  0  0  0  0  0  0
    1.4837   -0.4671   -0.5767 N   0  0  0  0  0  0  0  0  0  0  0  0
    2.7515   -0.9523   -0.4738 C   0  0  0  0  0  0  0  0  0  0  0  0
    3.8807   -0.1212   -0.6123 N   0  0  0  0  0  0  0  0  0  0  0  0
    5.2092   -0.6542   -0.4823 C   0  0  0  0  0  0  0  0  0  0  0  0
    6.2524    0.4338   -0.3693 C   0  0  0  0  0  0  0  0  0  0  0  0
    5.7407    1.4829    0.3955 O   0  0  0  0  0  0  0  0  0  0  0  0
    4.7673    2.1572   -0.3076 C   0  0  0  0  0  0  0  0  0  0  0  0
    3.7014    1.2815   -0.8884 C   0  0  0  0  0  0  0  0  0  0  0  0
    2.8553   -2.3133   -0.2256 C   0  0  0  0  0  0  0  0  0  0  0  0
    1.7600   -3.1101   -0.0940 C   0  0  0  0  0  0  0  0  0  0  0  0
    1.9308   -4.3379    0.1307 O   0  0  0  0  0  0  0  0  0  0  0  0
    0.5387   -2.5586   -0.2085 N   0  0  0  0  0  0  0  0  0  0  0  0
   -2.7123    0.3349    1.0861 N   0  0  0  0  0  0  0  0  0  0  0  0
   -3.1254    0.7887    2.4363 C   0  0  0  0  0  0  0  0  0  0  0  0
   -4.5527    0.2581    2.4596 C   0  0  0  0  0  0  0  0  0  0  0  0
   -5.0045    0.5208    1.0543 C   0  0  0  0  0  0  0  0  0  0  0  0
   -6.2574    0.7043    0.5234 C   0  0  0  0  0  0  0  0  0  0  0  0
   -7.7116    0.6529    1.4997 Cl  0  0  0  0  0  0  0  0  0  0  0  0
   -6.3684    0.9381   -0.8336 C   0  0  0  0  0  0  0  0  0  0  0  0
   -5.2283    0.9788   -1.6012 C   0  0  0  0  0  0  0  0  0  0  0  0
   -3.9616    0.7952   -1.0766 C   0  0  0  0  0  0  0  0  0  0  0  0
   -3.8424    0.5615    0.2749 C   0  0  0  0  0  0  0  0  0  0  0  0
   -0.9286    0.2103   -1.3003 H   0  0  0  0  0  0  0  0  0  0  0  0
   -1.6644   -1.4078   -0.9572 H   0  0  0  0  0  0  0  0  0  0  0  0
    5.2634   -1.3313    0.4194 H   0  0  0  0  0  0  0  0  0  0  0  0
    5.4513   -1.2920   -1.3421 H   0  0  0  0  0  0  0  0  0  0  0  0
    6.5957    0.8209   -1.3308 H   0  0  0  0  0  0  0  0  0  0  0  0
    7.1201    0.0166    0.1957 H   0  0  0  0  0  0  0  0  0  0  0  0
    5.2863    2.7679   -1.1020 H   0  0  0  0  0  0  0  0  0  0  0  0
    4.3011    2.8982    0.3969 H   0  0  0  0  0  0  0  0  0  0  0  0
    2.7030    1.5971   -0.5232 H   0  0  0  0  0  0  0  0  0  0  0  0
    3.7503    1.3804   -2.0116 H   0  0  0  0  0  0  0  0  0  0  0  0
    3.8711   -2.7094   -0.1418 H   0  0  0  0  0  0  0  0  0  0  0  0
   -0.2861   -3.1852   -0.1045 H   0  0  0  0  0  0  0  0  0  0  0  0
   -3.0968    1.8764    2.5157 H   0  0  0  0  0  0  0  0  0  0  0  0
   -2.4894    0.3556    3.2055 H   0  0  0  0  0  0  0  0  0  0  0  0
   -5.1869    0.7908    3.1903 H   0  0  0  0  0  0  0  0  0  0  0  0
   -4.4859   -0.8226    2.6792 H   0  0  0  0  0  0  0  0  0  0  0  0
   -7.3392    1.0905   -1.3066 H   0  0  0  0  0  0  0  0  0  0  0  0
   -5.2917    1.1618   -2.6740 H   0  0  0  0  0  0  0  0  0  0  0  0
   -3.0754    0.8305   -1.6865 H   0  0  0  0  0  0  0  0  0  0  0  0
  1  2  2  0
  2  3  1  0
  3  4  1  0
  4  5  2  0
  5  6  1  0
  6  7  1  0
  7  8  1  0
  8  9  1  0
  9 10  1  0
 10 11  1  0
 11 12  1  0
  6 13  2  0
 13 14  1  0
 14 15  2  0
 14 16  1  0
  2 17  1  0
 17 18  1  0
 18 19  1  0
 19 20  1  0
 20 21  2  0
 21 22  1  0
 21 23  1  0
 23 24  2  0
 24 25  1  0
 25 26  2  0
 16  4  1  0
 26 17  1  0
 12  7  1  0
 26 20  1  0
  3 27  1  0
  3 28  1  0
  8 29  1  0
  8 30  1  0
  9 31  1  0
  9 32  1  0
 11 33  1  0
 11 34  1  0
 12 35  1  0
 12 36  1  0
 13 37  1  0
 16 38  1  0
 18 39  1  0
 18 40  1  0
 19 41  1  0
 19 42  1  0
 23 43  1  0
 24 44  1  0
 25 45  1  0
M  END
$$$$
