@<TRIPOS>MOLECULE
*****
 45 48 0 0 0
SMALL
GASTEIGER

@<TRIPOS>ATOM
      1 O          -0.5754   -0.3400    1.7056 O.2     1  UNL1       -0.2748
      2 C          -1.4394   -0.2039    0.7584 C.2     1  UNL1        0.2271
      3 C          -0.9879   -0.6364   -0.5747 C.3     1  UNL1        0.0826
      4 C           0.3975   -1.2423   -0.4489 C.ar    1  UNL1        0.1206
      5 N           1.4837   -0.4671   -0.5767 N.ar    1  UNL1       -0.2186
      6 C           2.7515   -0.9523   -0.4738 C.ar    1  UNL1        0.1285
      7 N           3.8807   -0.1212   -0.6123 N.pl3   1  UNL1       -0.3106
      8 C           5.2092   -0.6542   -0.4823 C.3     1  UNL1        0.0370
      9 C           6.2524    0.4338   -0.3693 C.3     1  UNL1        0.0634
     10 O           5.7407    1.4829    0.3955 O.3     1  UNL1       -0.3767
     11 C           4.7673    2.1572   -0.3076 C.3     1  UNL1        0.0634
     12 C           3.7014    1.2815   -0.8884 C.3     1  UNL1        0.0370
     13 C           2.8553   -2.3133   -0.2256 C.ar    1  UNL1        0.0427
     14 C           1.7600   -3.1101   -0.0940 C.ar    1  UNL1        0.2533
     15 O           1.9308   -4.3379    0.1307 O.2     1  UNL1       -0.2677
     16 N           0.5387   -2.5586   -0.2085 N.ar    1  UNL1       -0.3104
     17 N          -2.7123    0.3349    1.0861 N.am    1  UNL1       -0.2704
     18 C          -3.1254    0.7887    2.4363 C.3     1  UNL1        0.0239
     19 C          -4.5527    0.2581    2.4596 C.3     1  UNL1       -0.0083
     20 C          -5.0045    0.5208    1.0543 C.ar    1  UNL1       -0.0062
     21 C          -6.2574    0.7043    0.5234 C.ar    1  UNL1        0.0460
     22 CL         -7.7116    0.6529    1.4997 Cl      1  UNL1       -0.0832
     23 C          -6.3684    0.9381   -0.8336 C.ar    1  UNL1       -0.0430
     24 C          -5.2283    0.9788   -1.6012 C.ar    1  UNL1       -0.0586
     25 C          -3.9616    0.7952   -1.0766 C.ar    1  UNL1       -0.0399
     26 C          -3.8424    0.5615    0.2749 C.ar    1  UNL1        0.0409
     27 H          -0.9286    0.2103   -1.3003 H       1  UNL1        0.0438
     28 H          -1.6644   -1.4078   -0.9572 H       1  UNL1        0.0438
     29 H           5.2634   -1.3313    0.4194 H       1  UNL1        0.0487
     30 H           5.4513   -1.2920   -1.3421 H       1  UNL1        0.0487
     31 H           6.5957    0.8209   -1.3308 H       1  UNL1        0.0575
     32 H           7.1201    0.0166    0.1957 H       1  UNL1        0.0575
     33 H           5.2863    2.7679   -1.1020 H       1  UNL1        0.0575
     34 H           4.3011    2.8982    0.3969 H       1  UNL1        0.0575
     35 H           2.7030    1.5971   -0.5232 H       1  UNL1        0.0487
     36 H           3.7503    1.3804   -2.0116 H       1  UNL1        0.0487
     37 H           3.8711   -2.7094   -0.1418 H       1  UNL1        0.0706
     38 H          -0.2861   -3.1852   -0.1045 H       1  UNL1        0.1700
     39 H          -3.0968    1.8764    2.5157 H       1  UNL1        0.0472
     40 H          -2.4894    0.3556    3.2055 H       1  UNL1        0.0472
     41 H          -5.1869    0.7908    3.1903 H       1  UNL1        0.0330
     42 H          -4.4859   -0.8226    2.6792 H       1  UNL1        0.0330
     43 H          -7.3392    1.0905   -1.3066 H       1  UNL1        0.0632
     44 H          -5.2917    1.1618   -2.6740 H       1  UNL1        0.0619
     45 H          -3.0754    0.8305   -1.6865 H       1  UNL1        0.0636
@<TRIPOS>BOND
     1     1     2    2
     2     2     3    1
     3     3     4    1
     4     4     5   ar
     5     5     6   ar
     6     6     7    1
     7     7     8    1
     8     8     9    1
     9     9    10    1
    10    10    11    1
    11    11    12    1
    12     6    13   ar
    13    13    14   ar
    14    14    15    2
    15    14    16   ar
    16     2    17   am
    17    17    18    1
    18    18    19    1
    19    19    20    1
    20    20    21   ar
    21    21    22    1
    22    21    23   ar
    23    23    24   ar
    24    24    25   ar
    25    25    26   ar
    26    16     4   ar
    27    26    17    1
    28    12     7    1
    29    26    20   ar
    30     3    27    1
    31     3    28    1
    32     8    29    1
    33     8    30    1
    34     9    31    1
    35     9    32    1
    36    11    33    1
    37    11    34    1
    38    12    35    1
    39    12    36    1
    40    13    37    1
    41    16    38    1
    42    18    39    1
    43    18    40    1
    44    19    41    1
    45    19    42    1
    46    23    43    1
    47    24    44    1
    48    25    45    1
