
     RDKit          3D

 62 64  0  0  0  0  0  0  0  0999 V2000
    1.5362   -0.6446   -1.3556 C   0  0  1  0  0  0  0  0  0  0  0  0
    2.0316   -2.0478   -1.4366 C   0  0  0  0  0  0  0  0  0  0  0  0
    0.8847   -2.8900   -0.9763 C   0  0  1  0  0  0  0  0  0  0  0  0
    1.3048   -3.7125    0.0727 O   0  0  0  0  0  0  0  0  0  0  0  0
   -0.1990   -1.9161   -0.4634 C   0  0  2  0  0  0  0  0  0  0  0  0
   -1.2467   -1.7509   -1.5094 C   0  0  0  0  0  0  0  0  0  0  0  0
   -2.3428   -0.8133   -1.1405 C   0  0  0  0  0  0  0  0  0  0  0  0
   -3.1295   -1.1795    0.0726 C   0  0  1  0  0  0  0  0  0  0  0  0
   -2.3059   -1.2216    1.1802 O   0  0  0  0  0  0  0  0  0  0  0  0
   -4.2349   -0.1879    0.3816 C   0  0  0  0  0  0  0  0  0  0  0  0
   -5.2337   -0.0561   -0.7096 C   0  0  0  0  0  0  0  0  0  0  0  0
   -6.3417    0.9294   -0.3718 C   0  0  0  0  0  0  0  0  0  0  0  0
   -5.8164    2.3036   -0.1136 C   0  0  0  0  0  0  0  0  0  0  0  0
   -7.0078    3.2081    0.2143 C   0  0  0  0  0  0  0  0  0  0  0  0
    0.5428   -0.6275   -0.2245 C   0  0  1  0  0  0  0  0  0  0  0  0
    1.1953   -0.7488    1.1322 C   0  0  0  0  0  0  0  0  0  0  0  0
    2.6115   -0.3068    1.1045 C   0  0  0  0  0  0  0  0  0  0  0  0
    3.3613    0.2201    0.0845 C   0  0  0  0  0  0  0  0  0  0  0  0
    2.6377    0.3669   -1.1812 C   0  0  0  0  0  0  0  0  0  0  0  0
    4.6812    0.5657    0.2868 C   0  0  0  0  0  0  0  0  0  0  0  0
    5.2768    1.0790   -0.8502 O   0  0  0  0  0  0  0  0  0  0  0  0
    6.5855    1.5247   -0.9865 C   0  0  0  0  0  0  0  0  0  0  0  0
    6.7838    2.6717   -0.0280 C   0  0  0  0  0  0  0  0  0  0  0  0
    8.0823    3.1582   -0.0917 O   0  0  0  0  0  0  0  0  0  0  0  0
    5.9861    3.2372    0.7912 O   0  0  0  0  0  0  0  0  0  0  0  0
    5.2423    0.3746    1.5319 C   0  0  0  0  0  0  0  0  0  0  0  0
    4.5292   -0.1514    2.5875 C   0  0  0  0  0  0  0  0  0  0  0  0
    3.1920   -0.4956    2.3628 C   0  0  0  0  0  0  0  0  0  0  0  0
    0.9996   -0.3905   -2.2834 H   0  0  0  0  0  0  0  0  0  0  0  0
    2.2511   -2.3369   -2.5000 H   0  0  0  0  0  0  0  0  0  0  0  0
    2.9391   -2.1985   -0.8208 H   0  0  0  0  0  0  0  0  0  0  0  0
    0.4362   -3.5092   -1.7815 H   0  0  0  0  0  0  0  0  0  0  0  0
    0.5367   -4.2408    0.3566 H   0  0  0  0  0  0  0  0  0  0  0  0
   -0.6168   -2.3816    0.4512 H   0  0  0  0  0  0  0  0  0  0  0  0
   -1.6822   -2.7457   -1.8083 H   0  0  0  0  0  0  0  0  0  0  0  0
   -0.7993   -1.3300   -2.4696 H   0  0  0  0  0  0  0  0  0  0  0  0
   -3.0845   -0.7382   -1.9892 H   0  0  0  0  0  0  0  0  0  0  0  0
   -1.9478    0.2478   -1.0553 H   0  0  0  0  0  0  0  0  0  0  0  0
   -3.5507   -2.1976   -0.1186 H   0  0  0  0  0  0  0  0  0  0  0  0
   -2.6700   -1.7761    1.9208 H   0  0  0  0  0  0  0  0  0  0  0  0
   -4.7711   -0.4525    1.3077 H   0  0  0  0  0  0  0  0  0  0  0  0
   -3.7284    0.8032    0.5100 H   0  0  0  0  0  0  0  0  0  0  0  0
   -5.6807   -1.0448   -0.9301 H   0  0  0  0  0  0  0  0  0  0  0  0
   -4.7228    0.3105   -1.6288 H   0  0  0  0  0  0  0  0  0  0  0  0
   -6.8984    0.5584    0.5059 H   0  0  0  0  0  0  0  0  0  0  0  0
   -7.0322    0.9714   -1.2412 H   0  0  0  0  0  0  0  0  0  0  0  0
   -5.1656    2.3438    0.7696 H   0  0  0  0  0  0  0  0  0  0  0  0
   -5.3402    2.7202   -1.0225 H   0  0  0  0  0  0  0  0  0  0  0  0
   -7.6754    3.3136   -0.6520 H   0  0  0  0  0  0  0  0  0  0  0  0
   -6.5883    4.2085    0.4463 H   0  0  0  0  0  0  0  0  0  0  0  0
   -7.5111    2.7741    1.0964 H   0  0  0  0  0  0  0  0  0  0  0  0
   -0.0764    0.2560   -0.3328 H   0  0  0  0  0  0  0  0  0  0  0  0
    0.6590   -0.0275    1.7913 H   0  0  0  0  0  0  0  0  0  0  0  0
    1.0639   -1.7347    1.6103 H   0  0  0  0  0  0  0  0  0  0  0  0
    3.3698    0.1754   -2.0053 H   0  0  0  0  0  0  0  0  0  0  0  0
    2.2965    1.4017   -1.2855 H   0  0  0  0  0  0  0  0  0  0  0  0
    7.3491    0.7488   -0.8479 H   0  0  0  0  0  0  0  0  0  0  0  0
    6.6642    1.9891   -1.9998 H   0  0  0  0  0  0  0  0  0  0  0  0
    8.3385    3.9088    0.5394 H   0  0  0  0  0  0  0  0  0  0  0  0
    6.2783    0.6600    1.6252 H   0  0  0  0  0  0  0  0  0  0  0  0
    5.0293   -0.2746    3.5363 H   0  0  0  0  0  0  0  0  0  0  0  0
    2.7239   -0.9009    3.2620 H   0  0  0  0  0  0  0  0  0  0  0  0
  1  2  1  0
  2  3  1  0
  3  4  1  0
  3  5  1  0
  5  6  1  0
  6  7  1  0
  7  8  1  0
  8  9  1  0
  8 10  1  0
 10 11  1  0
 11 12  1  0
 12 13  1  0
 13 14  1  0
  5 15  1  0
 15 16  1  0
 16 17  1  0
 17 18  2  0
 18 19  1  0
 18 20  1  0
 20 21  1  0
 21 22  1  0
 22 23  1  0
 23 24  1  0
 23 25  2  0
 20 26  2  0
 26 27  1  0
 27 28  2  0
 15  1  1  0
 28 17  1  0
 19  1  1  0
  1 29  1  6
  2 30  1  0
  2 31  1  0
  3 32  1  6
  4 33  1  0
  5 34  1  1
  6 35  1  0
  6 36  1  0
  7 37  1  0
  7 38  1  0
  8 39  1  6
  9 40  1  0
 10 41  1  0
 10 42  1  0
 11 43  1  0
 11 44  1  0
 12 45  1  0
 12 46  1  0
 13 47  1  0
 13 48  1  0
 14 49  1  0
 14 50  1  0
 14 51  1  0
 15 52  1  1
 16 53  1  0
 16 54  1  0
 19 55  1  0
 19 56  1  0
 22 57  1  0
 22 58  1  0
 24 59  1  0
 26 60  1  0
 27 61  1  0
 28 62  1  0
M  END
$$$$
