
     RDKit          3D

 84 88  0  0  0  0  0  0  0  0999 V2000
   -3.5139    1.2259   -3.3492 C   0  0  0  0  0  0  0  0  0  0  0  0
   -3.2195    1.4503   -1.8386 C   0  0  0  0  0  0  0  0  0  0  0  0
   -3.2495    0.1011   -1.1667 C   0  0  0  0  0  0  0  0  0  0  0  0
   -3.0651    0.1113    0.2863 C   0  0  1  0  0  0  0  0  0  0  0  0
   -3.1693   -1.1937    0.9053 N   0  0  0  0  0  0  0  0  0  0  0  0
   -3.1825   -2.3790    0.1829 C   0  0  0  0  0  0  0  0  0  0  0  0
   -3.0987   -2.4356   -1.0523 O   0  0  0  0  0  0  0  0  0  0  0  0
   -3.3003   -3.6858    0.8609 C   0  0  0  0  0  0  0  0  0  0  0  0
   -2.1621   -4.3050    1.3114 C   0  0  0  0  0  0  0  0  0  0  0  0
   -2.2099   -5.4802    1.9481 N   0  0  0  0  0  0  0  0  0  0  0  0
   -3.4398   -6.0362    2.1304 C   0  0  0  0  0  0  0  0  0  0  0  0
   -4.6038   -5.4488    1.6949 C   0  0  0  0  0  0  0  0  0  0  0  0
   -4.5479   -4.2242    1.0313 C   0  0  0  0  0  0  0  0  0  0  0  0
   -5.8045   -3.6063    0.5485 C   0  0  0  0  0  0  0  0  0  0  0  0
   -5.7631   -3.4609   -0.8479 F   0  0  0  0  0  0  0  0  0  0  0  0
   -6.0643   -2.3820    1.1368 F   0  0  0  0  0  0  0  0  0  0  0  0
   -6.8428   -4.4831    0.8220 F   0  0  0  0  0  0  0  0  0  0  0  0
   -3.2661   -1.2373    2.3506 C   0  0  0  0  0  0  0  0  0  0  0  0
   -2.4327   -0.2240    3.0289 C   0  0  0  0  0  0  0  0  0  0  0  0
   -1.9288    0.9194    2.2636 C   0  0  0  0  0  0  0  0  0  0  0  0
   -1.6692    0.6996    0.7525 C   0  0  2  0  0  0  0  0  0  0  0  0
   -1.6593    1.9508    0.2302 O   0  0  0  0  0  0  0  0  0  0  0  0
   -0.8183    3.0234    0.2911 C   0  0  0  0  0  0  0  0  0  0  0  0
    0.1435    3.3504   -0.6102 C   0  0  0  0  0  0  0  0  0  0  0  0
    0.9866    4.4752   -0.4804 C   0  0  0  0  0  0  0  0  0  0  0  0
    0.8791    5.3236    0.5882 C   0  0  0  0  0  0  0  0  0  0  0  0
    1.7500    6.5183    0.7584 C   0  0  0  0  0  0  0  0  0  0  0  0
    1.3149    7.5732   -0.0366 F   0  0  0  0  0  0  0  0  0  0  0  0
    3.0383    6.2447    0.3748 F   0  0  0  0  0  0  0  0  0  0  0  0
    1.7113    6.9861    2.0631 F   0  0  0  0  0  0  0  0  0  0  0  0
   -0.0926    5.0075    1.5098 C   0  0  0  0  0  0  0  0  0  0  0  0
   -0.9127    3.9163    1.3877 C   0  0  0  0  0  0  0  0  0  0  0  0
   -0.6839   -0.3235    0.5576 C   0  0  0  0  0  0  0  0  0  0  0  0
   -0.6687   -1.2114    1.5736 O   0  0  0  0  0  0  0  0  0  0  0  0
    0.2655   -0.6750   -0.3832 N   0  0  0  0  0  0  0  0  0  0  0  0
    0.4792   -0.0583   -1.6483 C   0  0  0  0  0  0  0  0  0  0  0  0
    1.8891    0.4951   -1.6468 C   0  0  0  0  0  0  0  0  0  0  0  0
    2.8908   -0.6527   -1.6042 C   0  0  0  0  0  0  0  0  0  0  0  0
    3.9830   -0.3649   -0.7965 O   0  0  0  0  0  0  0  0  0  0  0  0
    5.3144   -0.3274   -1.1442 C   0  0  0  0  0  0  0  0  0  0  0  0
    5.8127   -0.5963   -2.3963 C   0  0  0  0  0  0  0  0  0  0  0  0
    7.1633   -0.5465   -2.7037 C   0  0  0  0  0  0  0  0  0  0  0  0
    8.0517   -0.2118   -1.7104 C   0  0  0  0  0  0  0  0  0  0  0  0
    7.5403    0.0567   -0.4557 C   0  0  0  0  0  0  0  0  0  0  0  0
    8.4988    0.4146    0.5986 C   0  0  0  0  0  0  0  0  0  0  0  0
    9.7315    0.4766    0.3870 O   0  0  0  0  0  0  0  0  0  0  0  0
    8.0625    0.7010    1.8867 O   0  0  0  0  0  0  0  0  0  0  0  0
    6.2393   -0.0004   -0.1938 N   0  0  0  0  0  0  0  0  0  0  0  0
    2.2137   -1.9459   -1.2151 C   0  0  0  0  0  0  0  0  0  0  0  0
    1.2018   -1.7963   -0.1079 C   0  0  0  0  0  0  0  0  0  0  0  0
   -3.3107    2.1554   -3.9142 H   0  0  0  0  0  0  0  0  0  0  0  0
   -4.5896    1.0029   -3.4337 H   0  0  0  0  0  0  0  0  0  0  0  0
   -2.8470    0.4446   -3.7254 H   0  0  0  0  0  0  0  0  0  0  0  0
   -3.9337    2.1780   -1.4192 H   0  0  0  0  0  0  0  0  0  0  0  0
   -2.2259    1.9327   -1.8611 H   0  0  0  0  0  0  0  0  0  0  0  0
   -4.1555   -0.4403   -1.5128 H   0  0  0  0  0  0  0  0  0  0  0  0
   -2.3697   -0.4783   -1.6302 H   0  0  0  0  0  0  0  0  0  0  0  0
   -3.7926    0.7728    0.7976 H   0  0  0  0  0  0  0  0  0  0  0  0
   -1.1656   -3.8805    1.1763 H   0  0  0  0  0  0  0  0  0  0  0  0
   -3.4694   -6.9778    2.6437 H   0  0  0  0  0  0  0  0  0  0  0  0
   -5.5649   -5.8987    1.8454 H   0  0  0  0  0  0  0  0  0  0  0  0
   -3.0238   -2.2513    2.7436 H   0  0  0  0  0  0  0  0  0  0  0  0
   -4.3360   -1.0764    2.6782 H   0  0  0  0  0  0  0  0  0  0  0  0
   -3.0107    0.1481    3.9671 H   0  0  0  0  0  0  0  0  0  0  0  0
   -1.5694   -0.7460    3.5399 H   0  0  0  0  0  0  0  0  0  0  0  0
   -2.7612    1.7061    2.3119 H   0  0  0  0  0  0  0  0  0  0  0  0
   -1.0397    1.4079    2.6749 H   0  0  0  0  0  0  0  0  0  0  0  0
    0.2674    2.7587   -1.5003 H   0  0  0  0  0  0  0  0  0  0  0  0
    1.7448    4.6847   -1.2411 H   0  0  0  0  0  0  0  0  0  0  0  0
   -0.1814    5.6843    2.3640 H   0  0  0  0  0  0  0  0  0  0  0  0
   -1.6641    3.6971    2.1179 H   0  0  0  0  0  0  0  0  0  0  0  0
   -0.2629    0.6656   -1.9515 H   0  0  0  0  0  0  0  0  0  0  0  0
    0.5239   -0.9007   -2.4461 H   0  0  0  0  0  0  0  0  0  0  0  0
    2.0994    1.1208   -0.7573 H   0  0  0  0  0  0  0  0  0  0  0  0
    2.0176    1.1310   -2.5232 H   0  0  0  0  0  0  0  0  0  0  0  0
    3.2419   -0.8032   -2.6450 H   0  0  0  0  0  0  0  0  0  0  0  0
    5.1613   -0.8640   -3.2051 H   0  0  0  0  0  0  0  0  0  0  0  0
    7.5542   -0.7586   -3.6879 H   0  0  0  0  0  0  0  0  0  0  0  0
    9.1173   -0.1577   -1.8923 H   0  0  0  0  0  0  0  0  0  0  0  0
    8.5336    1.4167    2.4146 H   0  0  0  0  0  0  0  0  0  0  0  0
    1.8049   -2.4269   -2.1164 H   0  0  0  0  0  0  0  0  0  0  0  0
    2.9986   -2.6381   -0.8359 H   0  0  0  0  0  0  0  0  0  0  0  0
    1.7633   -1.5795    0.8327 H   0  0  0  0  0  0  0  0  0  0  0  0
    0.6539   -2.7582   -0.0496 H   0  0  0  0  0  0  0  0  0  0  0  0
  1  2  1  0
  2  3  1  0
  3  4  1  0
  4  5  1  0
  5  6  1  0
  6  7  2  0
  6  8  1  0
  8  9  2  0
  9 10  1  0
 10 11  2  0
 11 12  1  0
 12 13  2  0
 13 14  1  0
 14 15  1  0
 14 16  1  0
 14 17  1  0
  5 18  1  0
 18 19  1  0
 19 20  1  0
 20 21  1  0
 21 22  1  6
 22 23  1  0
 23 24  2  0
 24 25  1  0
 25 26  2  0
 26 27  1  0
 27 28  1  0
 27 29  1  0
 27 30  1  0
 26 31  1  0
 31 32  2  0
 21 33  1  0
 33 34  2  0
 33 35  1  0
 35 36  1  0
 36 37  1  0
 37 38  1  0
 38 39  1  0
 39 40  1  0
 40 41  2  0
 41 42  1  0
 42 43  2  0
 43 44  1  0
 44 45  1  0
 45 46  2  0
 45 47  1  0
 44 48  2  0
 38 49  1  0
 49 50  1  0
 21  4  1  0
 32 23  1  0
 50 35  1  0
 13  8  1  0
 48 40  1  0
  1 51  1  0
  1 52  1  0
  1 53  1  0
  2 54  1  0
  2 55  1  0
  3 56  1  0
  3 57  1  0
  4 58  1  1
  9 59  1  0
 11 60  1  0
 12 61  1  0
 18 62  1  0
 18 63  1  0
 19 64  1  0
 19 65  1  0
 20 66  1  0
 20 67  1  0
 24 68  1  0
 25 69  1  0
 31 70  1  0
 32 71  1  0
 36 72  1  0
 36 73  1  0
 37 74  1  0
 37 75  1  0
 38 76  1  0
 41 77  1  0
 42 78  1  0
 43 79  1  0
 47 80  1  0
 49 81  1  0
 49 82  1  0
 50 83  1  0
 50 84  1  0
M  END
$$$$
