@<TRIPOS>MOLECULE
*****
 84 88 0 0 0
SMALL
GASTEIGER

@<TRIPOS>ATOM
      1 C          -3.5139    1.2259   -3.3492 C.3     1  UNL1       -0.0652
      2 C          -3.2195    1.4503   -1.8386 C.3     1  UNL1       -0.0541
      3 C          -3.2495    0.1011   -1.1667 C.3     1  UNL1       -0.0303
      4 C          -3.0651    0.1113    0.2863 C.3     1  UNL1        0.0746
      5 N          -3.1693   -1.1937    0.9053 N.am    1  UNL1       -0.2901
      6 C          -3.1825   -2.3790    0.1829 C.2     1  UNL1        0.2490
      7 O          -3.0987   -2.4356   -1.0523 O.2     1  UNL1       -0.2699
      8 C          -3.3003   -3.6858    0.8609 C.ar    1  UNL1        0.0666
      9 C          -2.1621   -4.3050    1.3114 C.ar    1  UNL1        0.0402
     10 N          -2.2099   -5.4802    1.9481 N.ar    1  UNL1       -0.2625
     11 C          -3.4398   -6.0362    2.1304 C.ar    1  UNL1        0.0281
     12 C          -4.6038   -5.4488    1.6949 C.ar    1  UNL1       -0.0312
     13 C          -4.5479   -4.2242    1.0313 C.ar    1  UNL1        0.0698
     14 C          -5.8045   -3.6063    0.5485 C.3     1  UNL1        0.4182
     15 F          -5.7631   -3.4609   -0.8479 F       1  UNL1       -0.1659
     16 F          -6.0643   -2.3820    1.1368 F       1  UNL1       -0.1659
     17 F          -6.8428   -4.4831    0.8220 F       1  UNL1       -0.1659
     18 C          -3.2661   -1.2373    2.3506 C.3     1  UNL1        0.0156
     19 C          -2.4327   -0.2240    3.0289 C.3     1  UNL1       -0.0330
     20 C          -1.9288    0.9194    2.2636 C.3     1  UNL1       -0.0009
     21 C          -1.6692    0.6996    0.7525 C.3     1  UNL1        0.2039
     22 O          -1.6593    1.9508    0.2302 O.3     1  UNL1       -0.4746
     23 C          -0.8183    3.0234    0.2911 C.ar    1  UNL1        0.1221
     24 C           0.1435    3.3504   -0.6102 C.ar    1  UNL1       -0.0194
     25 C           0.9866    4.4752   -0.4804 C.ar    1  UNL1       -0.0467
     26 C           0.8791    5.3236    0.5882 C.ar    1  UNL1        0.0550
     27 C           1.7500    6.5183    0.7584 C.3     1  UNL1        0.4174
     28 F           1.3149    7.5732   -0.0366 F       1  UNL1       -0.1659
     29 F           3.0383    6.2447    0.3748 F       1  UNL1       -0.1659
     30 F           1.7113    6.9861    2.0631 F       1  UNL1       -0.1659
     31 C          -0.0926    5.0075    1.5098 C.ar    1  UNL1       -0.0467
     32 C          -0.9127    3.9163    1.3877 C.ar    1  UNL1       -0.0194
     33 C          -0.6839   -0.3235    0.5576 C.2     1  UNL1        0.2613
     34 O          -0.6687   -1.2114    1.5736 O.2     1  UNL1       -0.2711
     35 N           0.2655   -0.6750   -0.3832 N.am    1  UNL1       -0.2979
     36 C           0.4792   -0.0583   -1.6483 C.3     1  UNL1        0.0181
     37 C           1.8891    0.4951   -1.6468 C.3     1  UNL1        0.0002
     38 C           2.8908   -0.6527   -1.6042 C.3     1  UNL1        0.1047
     39 O           3.9830   -0.3649   -0.7965 O.3     1  UNL1       -0.4729
     40 C           5.3144   -0.3274   -1.1442 C.ar    1  UNL1        0.2157
     41 C           5.8127   -0.5963   -2.3963 C.ar    1  UNL1        0.0000
     42 C           7.1633   -0.5465   -2.7037 C.ar    1  UNL1       -0.0545
     43 C           8.0517   -0.2118   -1.7104 C.ar    1  UNL1       -0.0290
     44 CA          7.5403    0.0567   -0.4557 C.ar    1  UNL1        0.1512
     45 C           8.4988    0.4146    0.5986 C.2     1  UNL1        0.3554
     46 O           9.7315    0.4766    0.3870 O.2     1  UNL1       -0.2434
     47 OXT         8.0625    0.7010    1.8867 O.3     1  UNL1       -0.4761
     48 N           6.2393   -0.0004   -0.1938 N.ar    1  UNL1       -0.2063
     49 C           2.2137   -1.9459   -1.2151 C.3     1  UNL1        0.0002
     50 C           1.2018   -1.7963   -0.1079 C.3     1  UNL1        0.0181
     51 H          -3.3107    2.1554   -3.9142 H       1  UNL1        0.0230
     52 H          -4.5896    1.0029   -3.4337 H       1  UNL1        0.0230
     53 H          -2.8470    0.4446   -3.7254 H       1  UNL1        0.0230
     54 H          -3.9337    2.1780   -1.4192 H       1  UNL1        0.0263
     55 H          -2.2259    1.9327   -1.8611 H       1  UNL1        0.0263
     56 H          -4.1555   -0.4403   -1.5128 H       1  UNL1        0.0284
     57 H          -2.3697   -0.4783   -1.6302 H       1  UNL1        0.0284
     58 H          -3.7926    0.7728    0.7976 H       1  UNL1        0.0545
     59 H          -1.1656   -3.8805    1.1763 H       1  UNL1        0.0837
     60 H          -3.4694   -6.9778    2.6437 H       1  UNL1        0.0829
     61 H          -5.5649   -5.8987    1.8454 H       1  UNL1        0.0638
     62 H          -3.0238   -2.2513    2.7436 H       1  UNL1        0.0465
     63 H          -4.3360   -1.0764    2.6782 H       1  UNL1        0.0465
     64 H          -3.0107    0.1481    3.9671 H       1  UNL1        0.0282
     65 H          -1.5694   -0.7460    3.5399 H       1  UNL1        0.0282
     66 H          -2.7612    1.7061    2.3119 H       1  UNL1        0.0310
     67 H          -1.0397    1.4079    2.6749 H       1  UNL1        0.0310
     68 H           0.2674    2.7587   -1.5003 H       1  UNL1        0.0654
     69 H           1.7448    4.6847   -1.2411 H       1  UNL1        0.0624
     70 H          -0.1814    5.6843    2.3640 H       1  UNL1        0.0624
     71 H          -1.6641    3.6971    2.1179 H       1  UNL1        0.0654
     72 H          -0.2629    0.6656   -1.9515 H       1  UNL1        0.0466
     73 H           0.5239   -0.9007   -2.4461 H       1  UNL1        0.0466
     74 H           2.0994    1.1208   -0.7573 H       1  UNL1        0.0316
     75 H           2.0176    1.1310   -2.5232 H       1  UNL1        0.0316
     76 H           3.2419   -0.8032   -2.6450 H       1  UNL1        0.0734
     77 H           5.1613   -0.8640   -3.2051 H       1  UNL1        0.0671
     78 H           7.5542   -0.7586   -3.6879 H       1  UNL1        0.0620
     79 H           9.1173   -0.1577   -1.8923 H       1  UNL1        0.0641
     80 HXT         8.5336    1.4167    2.4146 H       1  UNL1        0.2955
     81 H           1.8049   -2.4269   -2.1164 H       1  UNL1        0.0316
     82 H           2.9986   -2.6381   -0.8359 H       1  UNL1        0.0316
     83 H           1.7633   -1.5795    0.8327 H       1  UNL1        0.0466
     84 H           0.6539   -2.7582   -0.0496 H       1  UNL1        0.0466
@<TRIPOS>BOND
     1     1     2    1
     2     2     3    1
     3     3     4    1
     4     4     5    1
     5     5     6   am
     6     6     7    2
     7     6     8    1
     8     8     9   ar
     9     9    10   ar
    10    10    11   ar
    11    11    12   ar
    12    12    13   ar
    13    13    14    1
    14    14    15    1
    15    14    16    1
    16    14    17    1
    17     5    18    1
    18    18    19    1
    19    19    20    1
    20    20    21    1
    21    21    22    1
    22    22    23    1
    23    23    24   ar
    24    24    25   ar
    25    25    26   ar
    26    26    27    1
    27    27    28    1
    28    27    29    1
    29    27    30    1
    30    26    31   ar
    31    31    32   ar
    32    21    33    1
    33    33    34    2
    34    33    35   am
    35    35    36    1
    36    36    37    1
    37    37    38    1
    38    38    39    1
    39    39    40    1
    40    40    41   ar
    41    41    42   ar
    42    42    43   ar
    43    43    44   ar
    44    44    45    1
    45    45    46    2
    46    45    47    1
    47    44    48   ar
    48    38    49    1
    49    49    50    1
    50    21     4    1
    51    32    23   ar
    52    50    35    1
    53    13     8   ar
    54    48    40   ar
    55     1    51    1
    56     1    52    1
    57     1    53    1
    58     2    54    1
    59     2    55    1
    60     3    56    1
    61     3    57    1
    62     4    58    1
    63     9    59    1
    64    11    60    1
    65    12    61    1
    66    18    62    1
    67    18    63    1
    68    19    64    1
    69    19    65    1
    70    20    66    1
    71    20    67    1
    72    24    68    1
    73    25    69    1
    74    31    70    1
    75    32    71    1
    76    36    72    1
    77    36    73    1
    78    37    74    1
    79    37    75    1
    80    38    76    1
    81    41    77    1
    82    42    78    1
    83    43    79    1
    84    47    80    1
    85    49    81    1
    86    49    82    1
    87    50    83    1
    88    50    84    1
