@<TRIPOS>MOLECULE
*****
 39 42 0 0 0
SMALL
GASTEIGER

@<TRIPOS>ATOM
      1 C           0.4198   -0.7965    0.7261 C.3     1  UNL1        0.0630
      2 C           1.5511   -1.3670   -0.0422 C.3     1  UNL1        0.0214
      3 N           2.6497   -0.5478   -0.3749 N.3     1  UNL1       -0.3018
      4 C           3.8813   -1.3413   -0.4507 C.3     1  UNL1       -0.0126
      5 C           2.8848    0.6665    0.2838 C.3     1  UNL1        0.0145
      6 C           1.8455    1.1121    1.2595 C.3     1  UNL1        0.0269
      7 N           0.5624    0.6458    0.7063 N.pl3   1  UNL1       -0.3054
      8 C          -0.2689    1.6981    0.2687 C.ar    1  UNL1        0.1253
      9 C          -1.6296    1.6372    0.1666 C.ar    1  UNL1       -0.0031
     10 C          -2.5694    0.5592    0.4529 C.3     1  UNL1        0.0012
     11 C          -2.1561   -0.7980    0.1485 C.ar    1  UNL1       -0.0380
     12 C          -3.2272   -1.5697   -0.3173 C.ar    1  UNL1       -0.0579
     13 C          -3.0100   -2.8900   -0.6548 C.ar    1  UNL1       -0.0615
     14 C          -1.7298   -3.4141   -0.5212 C.ar    1  UNL1       -0.0614
     15 C          -0.6699   -2.6348   -0.0557 C.ar    1  UNL1       -0.0565
     16 C          -0.8820   -1.2949    0.2886 C.ar    1  UNL1       -0.0223
     17 C          -2.2584    2.8032   -0.2919 C.ar    1  UNL1       -0.0536
     18 C          -1.4988    3.9330   -0.6124 C.ar    1  UNL1       -0.0432
     19 C          -0.1218    3.9075   -0.4790 C.ar    1  UNL1        0.0297
     20 N           0.5002    2.7825   -0.0353 N.ar    1  UNL1       -0.2400
     21 H           0.5592   -1.0636    1.8147 H       1  UNL1        0.0563
     22 H           1.9543   -2.2489    0.4996 H       1  UNL1        0.0448
     23 H           1.1143   -1.6840   -1.0366 H       1  UNL1        0.0448
     24 H           4.7751   -0.6952   -0.4796 H       1  UNL1        0.0391
     25 H           3.7713   -2.0147   -1.3198 H       1  UNL1        0.0391
     26 H           3.8480   -1.9887    0.4716 H       1  UNL1        0.0391
     27 H           3.8609    0.6311    0.8124 H       1  UNL1        0.0442
     28 H           2.9721    1.4670   -0.4833 H       1  UNL1        0.0442
     29 H           2.0310    0.6452    2.2415 H       1  UNL1        0.0477
     30 H           1.7952    2.2179    1.3657 H       1  UNL1        0.0477
     31 H          -2.9214    0.6270    1.5150 H       1  UNL1        0.0363
     32 H          -3.4949    0.7807   -0.1437 H       1  UNL1        0.0363
     33 H          -4.2106   -1.0948   -0.3988 H       1  UNL1        0.0620
     34 H          -3.8580   -3.4603   -1.0116 H       1  UNL1        0.0618
     35 H          -1.6693   -4.4471   -0.8098 H       1  UNL1        0.0618
     36 H           0.2411   -3.2245   -0.0240 H       1  UNL1        0.0621
     37 H          -3.3349    2.8369   -0.4009 H       1  UNL1        0.0622
     38 H          -2.0569    4.7938   -0.9593 H       1  UNL1        0.0633
     39 H           0.3506    4.8312   -0.7545 H       1  UNL1        0.0830
@<TRIPOS>BOND
     1     1     2    1
     2     2     3    1
     3     3     4    1
     4     3     5    1
     5     5     6    1
     6     6     7    1
     7     7     8    1
     8     8     9   ar
     9     9    10    1
    10    10    11    1
    11    11    12   ar
    12    12    13   ar
    13    13    14   ar
    14    14    15   ar
    15    15    16   ar
    16     9    17   ar
    17    17    18   ar
    18    18    19   ar
    19    19    20   ar
    20     7     1    1
    21    20     8   ar
    22    16     1    1
    23    16    11   ar
    24     1    21    1
    25     2    22    1
    26     2    23    1
    27     4    24    1
    28     4    25    1
    29     4    26    1
    30     5    27    1
    31     5    28    1
    32     6    29    1
    33     6    30    1
    34    10    31    1
    35    10    32    1
    36    12    33    1
    37    13    34    1
    38    14    35    1
    39    15    36    1
    40    17    37    1
    41    18    38    1
    42    19    39    1
