@<TRIPOS>MOLECULE
*****
 24 24 0 0 0
SMALL
GASTEIGER

@<TRIPOS>ATOM
      1 N          -4.2692    0.3588   -0.3938 N.3     1  UNL1       -0.3261
      2 C          -3.4276   -0.8005   -0.3389 C.3     1  UNL1        0.0185
      3 C          -1.9687   -0.4490   -0.2070 C.ar    1  UNL1       -0.0337
      4 C          -1.1751   -0.2641   -1.3273 C.ar    1  UNL1       -0.0556
      5 C           0.1368    0.0524   -1.1308 C.ar    1  UNL1       -0.0402
      6 C           0.6821    0.1902    0.1304 C.ar    1  UNL1        0.0339
      7 N           2.0587    0.5218    0.2348 N.am    1  UNL1       -0.2762
      8 C           3.0931   -0.4518    0.2984 C.2     1  UNL1        0.3254
      9 O           2.8236   -1.6799    0.2638 O.2     1  UNL1       -0.2627
     10 C           4.3744    0.2287    0.4001 C.2     1  UNL1        0.3926
     11 O           5.7123    0.4660    0.5006 O.3     1  UNL1       -0.4740
     12 O           4.6836    1.4648    0.4377 O.2     1  UNL1       -0.2399
     13 C          -0.1297    0.0008    1.2345 C.ar    1  UNL1       -0.0402
     14 C          -1.4659   -0.3214    1.0708 C.ar    1  UNL1       -0.0556
     15 H          -5.0810    0.3220    0.2893 H       1  UNL1        0.1185
     16 H          -4.5784    0.5562   -1.3564 H       1  UNL1        0.1185
     17 H          -3.5556   -1.3631   -1.2833 H       1  UNL1        0.0471
     18 H          -3.7415   -1.4297    0.5250 H       1  UNL1        0.0471
     19 H          -1.6210   -0.3765   -2.2997 H       1  UNL1        0.0621
     20 H           0.7481    0.1946   -2.0270 H       1  UNL1        0.0636
     21 H           2.1050    1.5605    0.2508 H       1  UNL1        0.1553
     22 H           6.4118   -0.2915    0.5600 H       1  UNL1        0.2956
     23 H           0.2881    0.1066    2.2398 H       1  UNL1        0.0636
     24 H          -2.1040   -0.4703    1.9282 H       1  UNL1        0.0621
@<TRIPOS>BOND
     1     1     2    1
     2     2     3    1
     3     3     4   ar
     4     4     5   ar
     5     5     6   ar
     6     6     7    1
     7     7     8   am
     8     8     9    2
     9     8    10    1
    10    10    11    1
    11    10    12    2
    12     6    13   ar
    13    13    14   ar
    14    14     3   ar
    15     1    15    1
    16     1    16    1
    17     2    17    1
    18     2    18    1
    19     4    19    1
    20     5    20    1
    21     7    21    1
    22    11    22    1
    23    13    23    1
    24    14    24    1
