
     RDKit          3D

 24 24  0  0  0  0  0  0  0  0999 V2000
   -4.2692    0.3588   -0.3938 N   0  0  0  0  0  0  0  0  0  0  0  0
   -3.4276   -0.8005   -0.3389 C   0  0  0  0  0  0  0  0  0  0  0  0
   -1.9687   -0.4490   -0.2070 C   0  0  0  0  0  0  0  0  0  0  0  0
   -1.1751   -0.2641   -1.3273 C   0  0  0  0  0  0  0  0  0  0  0  0
    0.1368    0.0524   -1.1308 C   0  0  0  0  0  0  0  0  0  0  0  0
    0.6821    0.1902    0.1304 C   0  0  0  0  0  0  0  0  0  0  0  0
    2.0587    0.5218    0.2348 N   0  0  0  0  0  0  0  0  0  0  0  0
    3.0931   -0.4518    0.2984 C   0  0  0  0  0  0  0  0  0  0  0  0
    2.8236   -1.6799    0.2638 O   0  0  0  0  0  0  0  0  0  0  0  0
    4.3744    0.2287    0.4001 C   0  0  0  0  0  0  0  0  0  0  0  0
    5.7123    0.4660    0.5006 O   0  0  0  0  0  0  0  0  0  0  0  0
    4.6836    1.4648    0.4377 O   0  0  0  0  0  0  0  0  0  0  0  0
   -0.1297    0.0008    1.2345 C   0  0  0  0  0  0  0  0  0  0  0  0
   -1.4659   -0.3214    1.0708 C   0  0  0  0  0  0  0  0  0  0  0  0
   -5.0810    0.3220    0.2893 H   0  0  0  0  0  0  0  0  0  0  0  0
   -4.5784    0.5562   -1.3564 H   0  0  0  0  0  0  0  0  0  0  0  0
   -3.5556   -1.3631   -1.2833 H   0  0  0  0  0  0  0  0  0  0  0  0
   -3.7415   -1.4297    0.5250 H   0  0  0  0  0  0  0  0  0  0  0  0
   -1.6210   -0.3765   -2.2997 H   0  0  0  0  0  0  0  0  0  0  0  0
    0.7481    0.1946   -2.0270 H   0  0  0  0  0  0  0  0  0  0  0  0
    2.1050    1.5605    0.2508 H   0  0  0  0  0  0  0  0  0  0  0  0
    6.4118   -0.2915    0.5600 H   0  0  0  0  0  0  0  0  0  0  0  0
    0.2881    0.1066    2.2398 H   0  0  0  0  0  0  0  0  0  0  0  0
   -2.1040   -0.4703    1.9282 H   0  0  0  0  0  0  0  0  0  0  0  0
  1  2  1  0
  2  3  1  0
  3  4  2  0
  4  5  1  0
  5  6  2  0
  6  7  1  0
  7  8  1  0
  8  9  2  0
  8 10  1  0
 10 11  1  0
 10 12  2  0
  6 13  1  0
 13 14  2  0
 14  3  1  0
  1 15  1  0
  1 16  1  0
  2 17  1  0
  2 18  1  0
  4 19  1  0
  5 20  1  0
  7 21  1  0
 11 22  1  0
 13 23  1  0
 14 24  1  0
M  END
$$$$
