@<TRIPOS>MOLECULE
*****
 67 70 0 0 0
SMALL
GASTEIGER

@<TRIPOS>ATOM
      1 C          -2.5729   -3.6394    3.8317 C.3     1  UNL1       -0.0650
      2 C          -2.5916   -2.2557    3.2252 C.3     1  UNL1       -0.0518
      3 C          -2.2242   -2.3263    1.7427 C.3     1  UNL1       -0.0244
      4 C          -2.2592   -0.9307    1.1917 C.ar    1  UNL1       -0.0023
      5 C          -3.3146   -0.5535    0.4091 C.ar    1  UNL1       -0.0133
      6 C          -3.3238    0.7254   -0.0856 C.ar    1  UNL1        0.1214
      7 O          -4.3312    1.1869   -0.8711 O.3     1  UNL1       -0.4888
      8 C          -5.4797    0.5445   -1.3086 C.3     1  UNL1        0.1002
      9 C          -6.7008    1.3492   -0.8327 C.3     1  UNL1       -0.0158
     10 C          -6.5187    2.7540   -1.4185 C.3     1  UNL1       -0.0497
     11 C          -6.9435    2.6345   -2.8702 C.3     1  UNL1       -0.0528
     12 C          -6.7555    1.2156   -3.3766 C.3     1  UNL1       -0.0497
     13 C          -5.5056    0.5854   -2.8214 C.3     1  UNL1       -0.0158
     14 C          -2.2761    1.5982    0.2150 C.ar    1  UNL1       -0.0165
     15 C          -1.2217    1.1936    1.0082 C.ar    1  UNL1       -0.0162
     16 C          -1.1787   -0.0824    1.5209 C.ar    1  UNL1        0.1239
     17 O          -0.1859   -0.5828    2.3185 O.3     1  UNL1       -0.4916
     18 C           0.9611    0.0270    2.7452 C.3     1  UNL1        0.0927
     19 C           2.0063    0.3898    1.7465 C.3     1  UNL1        0.0157
     20 C           2.4603   -0.9122    1.0700 C.3     1  UNL1        0.0927
     21 O           3.4645   -0.6981    0.1538 O.3     1  UNL1       -0.4918
     22 C           4.7416   -0.3094    0.4477 C.ar    1  UNL1        0.1211
     23 C           5.2272   -0.1327    1.7111 C.ar    1  UNL1       -0.0199
     24 C           6.5467    0.2764    1.9724 C.ar    1  UNL1       -0.0577
     25 C           7.3767    0.5045    0.8890 C.ar    1  UNL1       -0.0531
     26 C           6.9351    0.3388   -0.4083 C.ar    1  UNL1       -0.0026
     27 C           7.8959    0.6005   -1.4796 C.ar    1  UNL1        0.0838
     28 S           9.5792    1.0857   -1.2215 S.2     1  UNL1       -0.0230
     29 C          10.0067    1.1891   -2.9672 C.ar    1  UNL1        0.2913
     30 O          11.1425    1.5094   -3.4421 O.2     1  UNL1       -0.2596
     31 N           8.8510    0.8519   -3.5549 N.ar    1  UNL1       -0.2870
     32 C           7.8125    0.5622   -2.8227 C.ar    1  UNL1        0.2081
     33 O           6.5509    0.1946   -3.4173 O.3     1  UNL1       -0.4928
     34 C           5.6502   -0.0575   -0.5956 C.ar    1  UNL1       -0.0116
     35 H          -3.6133   -3.9973    3.9479 H       1  UNL1        0.0230
     36 H          -1.9846   -4.3310    3.1837 H       1  UNL1        0.0230
     37 H          -2.0660   -3.6720    4.8211 H       1  UNL1        0.0230
     38 H          -1.8651   -1.6202    3.7735 H       1  UNL1        0.0266
     39 H          -3.6012   -1.8245    3.3402 H       1  UNL1        0.0266
     40 H          -2.9807   -2.9369    1.2367 H       1  UNL1        0.0314
     41 H          -1.1984   -2.7563    1.6964 H       1  UNL1        0.0314
     42 H          -4.1160   -1.2772    0.2014 H       1  UNL1        0.0658
     43 H          -5.5825   -0.5147   -0.9673 H       1  UNL1        0.0733
     44 H          -7.6459    0.8907   -1.1322 H       1  UNL1        0.0301
     45 H          -6.6934    1.4722    0.2602 H       1  UNL1        0.0301
     46 H          -5.4247    2.9660   -1.3672 H       1  UNL1        0.0266
     47 H          -7.0718    3.5155   -0.8716 H       1  UNL1        0.0266
     48 H          -8.0448    2.8391   -2.8933 H       1  UNL1        0.0265
     49 H          -6.4144    3.3659   -3.5121 H       1  UNL1        0.0265
     50 H          -6.6278    1.2670   -4.4776 H       1  UNL1        0.0266
     51 H          -7.6615    0.6361   -3.1784 H       1  UNL1        0.0266
     52 H          -5.4575   -0.4497   -3.2358 H       1  UNL1        0.0301
     53 H          -4.6088    1.1061   -3.2316 H       1  UNL1        0.0301
     54 H          -2.2670    2.6157   -0.1691 H       1  UNL1        0.0655
     55 H          -0.4200    1.9094    1.2575 H       1  UNL1        0.0655
     56 H           1.5070   -0.5930    3.5355 H       1  UNL1        0.0697
     57 H           0.6574    0.9840    3.2684 H       1  UNL1        0.0697
     58 H           1.5723    1.0277    0.9345 H       1  UNL1        0.0331
     59 H           2.8587    0.8647    2.2138 H       1  UNL1        0.0331
     60 H           2.8538   -1.5948    1.8754 H       1  UNL1        0.0697
     61 H           1.5702   -1.4200    0.6038 H       1  UNL1        0.0697
     62 H           4.5993   -0.3487    2.5875 H       1  UNL1        0.0654
     63 H           6.8649    0.3985    3.0012 H       1  UNL1        0.0619
     64 H           8.3836    0.8168    1.0987 H       1  UNL1        0.0624
     65 H           8.8340    0.8359   -4.6414 H       1  UNL1        0.1723
     66 H           6.5394   -0.3151   -4.2808 H       1  UNL1        0.2937
     67 H           5.2804   -0.1937   -1.5833 H       1  UNL1        0.0660
@<TRIPOS>BOND
     1     1     2    1
     2     2     3    1
     3     3     4    1
     4     4     5   ar
     5     5     6   ar
     6     6     7    1
     7     7     8    1
     8     8     9    1
     9     9    10    1
    10    10    11    1
    11    11    12    1
    12    12    13    1
    13     6    14   ar
    14    14    15   ar
    15    15    16   ar
    16    16    17    1
    17    17    18    1
    18    18    19    1
    19    19    20    1
    20    20    21    1
    21    21    22    1
    22    22    23   ar
    23    23    24   ar
    24    24    25   ar
    25    25    26   ar
    26    26    27    1
    27    27    28   ar
    28    28    29   ar
    29    29    30    2
    30    29    31   ar
    31    31    32   ar
    32    32    33    1
    33    26    34   ar
    34    16     4   ar
    35    34    22   ar
    36    13     8    1
    37    32    27   ar
    38     1    35    1
    39     1    36    1
    40     1    37    1
    41     2    38    1
    42     2    39    1
    43     3    40    1
    44     3    41    1
    45     5    42    1
    46     8    43    1
    47     9    44    1
    48     9    45    1
    49    10    46    1
    50    10    47    1
    51    11    48    1
    52    11    49    1
    53    12    50    1
    54    12    51    1
    55    13    52    1
    56    13    53    1
    57    14    54    1
    58    15    55    1
    59    18    56    1
    60    18    57    1
    61    19    58    1
    62    19    59    1
    63    20    60    1
    64    20    61    1
    65    23    62    1
    66    24    63    1
    67    25    64    1
    68    31    65    1
    69    33    66    1
    70    34    67    1
