@<TRIPOS>MOLECULE
*****
 56 58 0 0 0
SMALL
GASTEIGER

@<TRIPOS>ATOM
      1 C           3.3218   -3.1671    1.4377 C.2     1  UNL1       -0.0951
      2 C           2.1940   -2.7270    0.9108 C.2     1  UNL1       -0.0472
      3 C           1.0195   -3.5629    1.1869 C.3     1  UNL1       -0.0396
      4 C           2.1551   -1.4681    0.2423 C.ar    1  UNL1        0.0166
      5 C           3.2047   -0.5657    0.5946 C.ar    1  UNL1        0.0374
      6 N           3.3245    0.6109   -0.0022 N.ar    1  UNL1       -0.2542
      7 C           2.4540    1.0172   -0.9780 C.ar    1  UNL1        0.0755
      8 C           2.7079    2.3357   -1.5442 C.ar    1  UNL1        0.0369
      9 C           3.8020    3.0701   -1.0541 C.ar    1  UNL1       -0.0314
     10 C           4.1135    4.3182   -1.5300 C.ar    1  UNL1        0.0418
     11 CL          5.4675    5.2393   -0.9309 Cl      1  UNL1       -0.0835
     12 C           3.3301    4.8633   -2.5152 C.ar    1  UNL1       -0.0406
     13 C           2.2692    4.1854   -3.0105 C.ar    1  UNL1       -0.0244
     14 C           1.9512    2.9115   -2.5249 C.ar    1  UNL1        0.1326
     15 F           0.8840    2.2688   -3.0466 F       1  UNL1       -0.2048
     16 C           1.4565    0.1695   -1.3186 C.ar    1  UNL1       -0.0138
     17 C           1.2802   -1.1149   -0.7075 C.ar    1  UNL1        0.0423
     18 N           0.2435   -1.8401   -1.2400 N.pl3   1  UNL1       -0.3133
     19 C          -0.9190   -2.5093   -0.9275 C.ar    1  UNL1        0.0465
     20 C          -1.0187   -3.8228   -1.3946 C.ar    1  UNL1       -0.0217
     21 C          -2.1131   -4.5835   -1.1615 C.ar    1  UNL1        0.0293
     22 N          -3.1341   -4.0771   -0.4669 N.ar    1  UNL1       -0.2624
     23 C          -3.0658   -2.8186   -0.0056 C.ar    1  UNL1        0.0415
     24 C          -1.9594   -1.9841   -0.2148 C.ar    1  UNL1        0.0758
     25 C          -1.9617   -0.6409    0.3680 C.2     1  UNL1        0.2478
     26 O          -0.9540    0.1095    0.3582 O.2     1  UNL1       -0.2701
     27 N          -3.0983   -0.0531    0.9984 N.am    1  UNL1       -0.3040
     28 C          -3.0306    1.2962    1.5635 C.3     1  UNL1        0.0523
     29 C          -4.3892    1.6278    2.1354 C.3     1  UNL1       -0.0418
     30 C          -2.6862    2.3352    0.5349 C.3     1  UNL1       -0.0418
     31 C          -2.0207    1.3766    2.6904 C.3     1  UNL1        0.0649
     32 O          -2.3183    0.5217    3.7291 O.3     1  UNL1       -0.3929
     33 H           3.3864   -4.0839    2.0389 H       1  UNL1        0.0538
     34 H           4.2368   -2.6621    1.2839 H       1  UNL1        0.0538
     35 H           0.8586   -4.3637    0.4711 H       1  UNL1        0.0278
     36 H           1.2747   -4.1102    2.1883 H       1  UNL1        0.0278
     37 H           0.1213   -2.9912    1.5160 H       1  UNL1        0.0278
     38 H           3.8931   -0.8560    1.3821 H       1  UNL1        0.0836
     39 H           4.4441    2.6567   -0.2665 H       1  UNL1        0.0639
     40 H           3.5347    5.8533   -2.9285 H       1  UNL1        0.0633
     41 H           1.6294    4.5923   -3.7924 H       1  UNL1        0.0647
     42 H           0.7527    0.4445   -2.0748 H       1  UNL1        0.0658
     43 H           0.3798   -1.9301   -2.3885 H       1  UNL1        0.1522
     44 H          -0.1839   -4.2611   -1.9722 H       1  UNL1        0.0651
     45 H          -2.1799   -5.6252   -1.5377 H       1  UNL1        0.0830
     46 H          -3.8815   -2.3971    0.5609 H       1  UNL1        0.0838
     47 H          -3.9819   -0.5893    1.0509 H       1  UNL1        0.1496
     48 H          -4.4587    1.2971    3.1929 H       1  UNL1        0.0251
     49 H          -4.6459    2.7013    2.0163 H       1  UNL1        0.0251
     50 H          -5.1414    1.0561    1.5529 H       1  UNL1        0.0251
     51 H          -1.6324    2.3457    0.2443 H       1  UNL1        0.0251
     52 H          -3.0000    3.3256    0.9680 H       1  UNL1        0.0251
     53 H          -3.3670    2.2013   -0.3513 H       1  UNL1        0.0251
     54 H          -0.9711    1.2938    2.3517 H       1  UNL1        0.0578
     55 H          -2.0961    2.4165    3.1216 H       1  UNL1        0.0578
     56 H          -1.4822    0.3639    4.2408 H       1  UNL1        0.2095
@<TRIPOS>BOND
     1     1     2    2
     2     2     3    1
     3     2     4    1
     4     4     5   ar
     5     5     6   ar
     6     6     7   ar
     7     7     8    1
     8     8     9   ar
     9     9    10   ar
    10    10    11    1
    11    10    12   ar
    12    12    13   ar
    13    13    14   ar
    14    14    15    1
    15     7    16   ar
    16    16    17   ar
    17    17    18    1
    18    18    19    1
    19    19    20   ar
    20    20    21   ar
    21    21    22   ar
    22    22    23   ar
    23    23    24   ar
    24    24    25    1
    25    25    26    2
    26    25    27   am
    27    27    28    1
    28    28    29    1
    29    28    30    1
    30    28    31    1
    31    31    32    1
    32    17     4   ar
    33    24    19   ar
    34    14     8   ar
    35     1    33    1
    36     1    34    1
    37     3    35    1
    38     3    36    1
    39     3    37    1
    40     5    38    1
    41     9    39    1
    42    12    40    1
    43    13    41    1
    44    16    42    1
    45    18    43    1
    46    20    44    1
    47    21    45    1
    48    23    46    1
    49    27    47    1
    50    29    48    1
    51    29    49    1
    52    29    50    1
    53    30    51    1
    54    30    52    1
    55    30    53    1
    56    31    54    1
    57    31    55    1
    58    32    56    1
