@<TRIPOS>MOLECULE
*****
 42 45 0 0 0
SMALL
GASTEIGER

@<TRIPOS>ATOM
      1 O          -5.5793   -1.4718   -1.8515 O.2     1  UNL1       -0.2451
      2 C          -5.8231   -0.8586   -0.7912 C.2     1  UNL1        0.3369
      3 O          -7.0171   -1.0949   -0.1415 O.3     1  UNL1       -0.4771
      4 C          -4.8331    0.0819   -0.2860 C.ar    1  UNL1        0.0607
      5 C          -5.0790    0.7825    0.8985 C.ar    1  UNL1       -0.0477
      6 C          -4.1581    1.6778    1.3972 C.ar    1  UNL1       -0.0591
      7 C          -2.9801    1.8630    0.6888 C.ar    1  UNL1       -0.0353
      8 C          -2.7032    1.2016   -0.4663 C.ar    1  UNL1        0.1063
      9 S          -1.2458    1.4026   -1.3821 S.O2    1  UNL1        0.0612
     10 O          -0.7489    2.8154   -1.2066 O.2     1  UNL1       -0.1528
     11 O          -1.5705    1.2213   -2.8374 O.2     1  UNL1       -0.1528
     12 N           0.0038    0.3398   -0.9315 N.3     1  UNL1       -0.1720
     13 C          -0.2912   -1.0430   -1.1020 C.3     1  UNL1        0.0248
     14 C           0.5006   -1.9510   -0.1798 C.3     1  UNL1       -0.0129
     15 C           1.8810   -1.4350    0.0502 C.ar    1  UNL1       -0.0416
     16 C           2.9988   -2.2216    0.0341 C.ar    1  UNL1       -0.0576
     17 C           4.2214   -1.6137    0.2631 C.ar    1  UNL1       -0.0507
     18 C           4.3135   -0.2548    0.5009 C.ar    1  UNL1        0.0208
     19 C           5.6212    0.3401    0.7365 C.ar    1  UNL1        0.1794
     20 N           6.8019   -0.2928    0.7528 N.ar    1  UNL1       -0.1084
     21 N           7.7647    0.5879    1.0007 N.ar    1  UNL1       -0.0229
     22 N           7.1852    1.7540    1.1364 N.ar    1  UNL1       -0.0464
     23 N           5.8849    1.6361    0.9816 N.ar    1  UNL1       -0.2388
     24 C           3.1806    0.5285    0.5148 C.ar    1  UNL1       -0.0463
     25 C           1.9799   -0.0659    0.2904 C.ar    1  UNL1       -0.0278
     26 C           0.6740    0.6795    0.2800 C.3     1  UNL1        0.0458
     27 C          -3.6529    0.3045   -0.9437 C.ar    1  UNL1       -0.0214
     28 H          -7.8549   -1.3740   -0.6451 H       1  UNL1        0.2954
     29 H          -6.0147    0.5879    1.3947 H       1  UNL1        0.0626
     30 H          -4.3515    2.2150    2.3096 H       1  UNL1        0.0618
     31 H          -2.2614    2.5629    1.0796 H       1  UNL1        0.0637
     32 H          -1.3531   -1.3043   -1.0006 H       1  UNL1        0.0447
     33 H           0.0207   -1.3382   -2.1464 H       1  UNL1        0.0447
     34 H           0.5176   -2.9661   -0.6164 H       1  UNL1        0.0326
     35 H          -0.0561   -2.0320    0.7849 H       1  UNL1        0.0326
     36 H           2.9048   -3.2672   -0.1513 H       1  UNL1        0.0621
     37 H           5.1023   -2.2445    0.2486 H       1  UNL1        0.0625
     38 H           5.2055    2.4340    1.0451 H       1  UNL1        0.1923
     39 H           3.2239    1.6077    0.7006 H       1  UNL1        0.0628
     40 H           0.1251    0.4233    1.1956 H       1  UNL1        0.0493
     41 H           0.9218    1.7502    0.2601 H       1  UNL1        0.0493
     42 H          -3.4590   -0.2390   -1.8652 H       1  UNL1        0.0645
@<TRIPOS>BOND
     1     1     2    2
     2     2     3    1
     3     2     4    1
     4     4     5   ar
     5     5     6   ar
     6     6     7   ar
     7     7     8   ar
     8     8     9    1
     9     9    10    2
    10     9    11    2
    11     9    12    1
    12    12    13    1
    13    13    14    1
    14    14    15    1
    15    15    16   ar
    16    16    17   ar
    17    17    18   ar
    18    18    19    1
    19    19    20   ar
    20    20    21   ar
    21    21    22   ar
    22    22    23   ar
    23    18    24   ar
    24    24    25   ar
    25    25    26    1
    26     8    27   ar
    27    27     4   ar
    28    26    12    1
    29    25    15   ar
    30    23    19   ar
    31     3    28    1
    32     5    29    1
    33     6    30    1
    34     7    31    1
    35    13    32    1
    36    13    33    1
    37    14    34    1
    38    14    35    1
    39    16    36    1
    40    17    37    1
    41    23    38    1
    42    24    39    1
    43    26    40    1
    44    26    41    1
    45    27    42    1
