@<TRIPOS>MOLECULE
*****
 46 50 0 0 0
SMALL
GASTEIGER

@<TRIPOS>ATOM
      1 N          -3.1678   -4.1573    0.0862 N.1     1  UNL1       -0.1892
      2 C          -2.0785   -3.9627    0.4569 C.1     1  UNL1        0.1208
      3 C          -0.7505   -3.7226    0.9349 C.ar    1  UNL1        0.1618
      4 C           0.1533   -4.5700    1.5340 C.ar    1  UNL1        0.0659
      5 N           1.2679   -3.8660    1.7991 N.ar    1  UNL1       -0.2333
      6 C           1.1054   -2.5752    1.3832 C.ar    1  UNL1        0.1555
      7 C           1.9363   -1.4759    1.4262 C.ar    1  UNL1       -0.0153
      8 C           1.4672   -0.2947    0.9153 C.ar    1  UNL1       -0.0290
      9 C           0.2081   -0.2547    0.3893 C.ar    1  UNL1        0.1103
     10 C          -0.3438    0.9714   -0.1690 C.ar    1  UNL1        0.0969
     11 C          -1.3531    1.6977    0.4196 C.ar    1  UNL1        0.0983
     12 C          -2.0832    1.4304    1.6420 C.ar    1  UNL1        0.0040
     13 C          -2.9798    0.3896    1.7049 C.ar    1  UNL1       -0.0497
     14 C          -3.6953    0.1040    2.8724 C.ar    1  UNL1       -0.0244
     15 C          -3.4835    0.8945    3.9735 C.ar    1  UNL1        0.1417
     16 F          -4.1597    0.6544    5.1431 F       1  UNL1       -0.2040
     17 C          -2.5844    1.9327    3.8979 C.ar    1  UNL1        0.0767
     18 CL         -2.3125    2.9481    5.3108 Cl      1  UNL1       -0.0806
     19 C          -1.8812    2.2115    2.7469 C.ar    1  UNL1       -0.0313
     20 N          -1.5814    2.7506   -0.3742 N.ar    1  UNL1       -0.2351
     21 C          -0.7462    2.6665   -1.4022 C.ar    1  UNL1        0.0974
     22 N           0.0479    1.5604   -1.3083 N.ar    1  UNL1       -0.3251
     23 C           1.0395    1.1907   -2.2676 C.3     1  UNL1        0.0402
     24 C           0.9905   -0.2663   -2.6899 C.3     1  UNL1       -0.0084
     25 C           2.1595   -0.4481   -3.6710 C.3     1  UNL1        0.0495
     26 O           2.5590    0.7804   -4.1908 O.3     1  UNL1       -0.3796
     27 C           3.2104    1.5843   -3.2589 C.3     1  UNL1        0.0495
     28 C           2.4510    1.5187   -1.9242 C.3     1  UNL1       -0.0084
     29 N          -0.5374   -1.3561    0.3818 N.ar    1  UNL1       -0.1623
     30 N          -0.1292   -2.5107    0.8610 N.ar    1  UNL1       -0.2023
     31 H          -0.0377   -5.6188    1.7389 H       1  UNL1        0.0859
     32 H           2.9382   -1.5628    1.8591 H       1  UNL1        0.0655
     33 H           2.1090    0.5789    0.9431 H       1  UNL1        0.0641
     34 H          -3.1703   -0.2561    0.8501 H       1  UNL1        0.0625
     35 H          -4.4056   -0.7360    2.8733 H       1  UNL1        0.0647
     36 H          -1.1656    3.0510    2.7172 H       1  UNL1        0.0640
     37 H          -0.7230    3.4095   -2.2085 H       1  UNL1        0.1029
     38 H           0.8196    1.7544   -3.2293 H       1  UNL1        0.0530
     39 H           0.0146   -0.4142   -3.1985 H       1  UNL1        0.0307
     40 H           1.1695   -0.9579   -1.8682 H       1  UNL1        0.0307
     41 H           1.8206   -1.0783   -4.5006 H       1  UNL1        0.0560
     42 H           3.0197   -0.9617   -3.1737 H       1  UNL1        0.0560
     43 H           3.1598    2.6398   -3.5840 H       1  UNL1        0.0560
     44 H           4.2482    1.2855   -3.0822 H       1  UNL1        0.0560
     45 H           2.5731    2.4266   -1.3369 H       1  UNL1        0.0307
     46 H           2.9015    0.6143   -1.4228 H       1  UNL1        0.0307
@<TRIPOS>BOND
     1     1     2    3
     2     2     3    1
     3     3     4   ar
     4     4     5   ar
     5     5     6   ar
     6     6     7   ar
     7     7     8   ar
     8     8     9   ar
     9     9    10    1
    10    10    11   ar
    11    11    12    1
    12    12    13   ar
    13    13    14   ar
    14    14    15   ar
    15    15    16    1
    16    15    17   ar
    17    17    18    1
    18    17    19   ar
    19    11    20   ar
    20    20    21   ar
    21    21    22   ar
    22    22    23    1
    23    23    24    1
    24    24    25    1
    25    25    26    1
    26    26    27    1
    27    27    28    1
    28     9    29   ar
    29    29    30   ar
    30    30     3   ar
    31    30     6   ar
    32    22    10   ar
    33    28    23    1
    34    19    12   ar
    35     4    31    1
    36     7    32    1
    37     8    33    1
    38    13    34    1
    39    14    35    1
    40    19    36    1
    41    21    37    1
    42    23    38    1
    43    24    39    1
    44    24    40    1
    45    25    41    1
    46    25    42    1
    47    27    43    1
    48    27    44    1
    49    28    45    1
    50    28    46    1
