
     RDKit          3D

 46 50  0  0  0  0  0  0  0  0999 V2000
   -3.1678   -4.1573    0.0862 N   0  0  0  0  0  0  0  0  0  0  0  0
   -2.0785   -3.9627    0.4569 C   0  0  0  0  0  0  0  0  0  0  0  0
   -0.7505   -3.7226    0.9349 C   0  0  0  0  0  0  0  0  0  0  0  0
    0.1533   -4.5700    1.5340 C   0  0  0  0  0  0  0  0  0  0  0  0
    1.2679   -3.8660    1.7991 N   0  0  0  0  0  0  0  0  0  0  0  0
    1.1054   -2.5752    1.3832 C   0  0  0  0  0  0  0  0  0  0  0  0
    1.9363   -1.4759    1.4262 C   0  0  0  0  0  0  0  0  0  0  0  0
    1.4672   -0.2947    0.9153 C   0  0  0  0  0  0  0  0  0  0  0  0
    0.2081   -0.2547    0.3893 C   0  0  0  0  0  0  0  0  0  0  0  0
   -0.3438    0.9714   -0.1690 C   0  0  0  0  0  0  0  0  0  0  0  0
   -1.3531    1.6977    0.4196 C   0  0  0  0  0  0  0  0  0  0  0  0
   -2.0832    1.4304    1.6420 C   0  0  0  0  0  0  0  0  0  0  0  0
   -2.9798    0.3896    1.7049 C   0  0  0  0  0  0  0  0  0  0  0  0
   -3.6953    0.1040    2.8724 C   0  0  0  0  0  0  0  0  0  0  0  0
   -3.4835    0.8945    3.9735 C   0  0  0  0  0  0  0  0  0  0  0  0
   -4.1597    0.6544    5.1431 F   0  0  0  0  0  0  0  0  0  0  0  0
   -2.5844    1.9327    3.8979 C   0  0  0  0  0  0  0  0  0  0  0  0
   -2.3125    2.9481    5.3108 Cl  0  0  0  0  0  0  0  0  0  0  0  0
   -1.8812    2.2115    2.7469 C   0  0  0  0  0  0  0  0  0  0  0  0
   -1.5814    2.7506   -0.3742 N   0  0  0  0  0  0  0  0  0  0  0  0
   -0.7462    2.6665   -1.4022 C   0  0  0  0  0  0  0  0  0  0  0  0
    0.0479    1.5604   -1.3083 N   0  0  0  0  0  0  0  0  0  0  0  0
    1.0395    1.1907   -2.2676 C   0  0  0  0  0  0  0  0  0  0  0  0
    0.9905   -0.2663   -2.6899 C   0  0  0  0  0  0  0  0  0  0  0  0
    2.1595   -0.4481   -3.6710 C   0  0  0  0  0  0  0  0  0  0  0  0
    2.5590    0.7804   -4.1908 O   0  0  0  0  0  0  0  0  0  0  0  0
    3.2104    1.5843   -3.2589 C   0  0  0  0  0  0  0  0  0  0  0  0
    2.4510    1.5187   -1.9242 C   0  0  0  0  0  0  0  0  0  0  0  0
   -0.5374   -1.3561    0.3818 N   0  0  0  0  0  0  0  0  0  0  0  0
   -0.1292   -2.5107    0.8610 N   0  0  0  0  0  0  0  0  0  0  0  0
   -0.0377   -5.6188    1.7389 H   0  0  0  0  0  0  0  0  0  0  0  0
    2.9382   -1.5628    1.8591 H   0  0  0  0  0  0  0  0  0  0  0  0
    2.1090    0.5789    0.9431 H   0  0  0  0  0  0  0  0  0  0  0  0
   -3.1703   -0.2561    0.8501 H   0  0  0  0  0  0  0  0  0  0  0  0
   -4.4056   -0.7360    2.8733 H   0  0  0  0  0  0  0  0  0  0  0  0
   -1.1656    3.0510    2.7172 H   0  0  0  0  0  0  0  0  0  0  0  0
   -0.7230    3.4095   -2.2085 H   0  0  0  0  0  0  0  0  0  0  0  0
    0.8196    1.7544   -3.2293 H   0  0  0  0  0  0  0  0  0  0  0  0
    0.0146   -0.4142   -3.1985 H   0  0  0  0  0  0  0  0  0  0  0  0
    1.1695   -0.9579   -1.8682 H   0  0  0  0  0  0  0  0  0  0  0  0
    1.8206   -1.0783   -4.5006 H   0  0  0  0  0  0  0  0  0  0  0  0
    3.0197   -0.9617   -3.1737 H   0  0  0  0  0  0  0  0  0  0  0  0
    3.1598    2.6398   -3.5840 H   0  0  0  0  0  0  0  0  0  0  0  0
    4.2482    1.2855   -3.0822 H   0  0  0  0  0  0  0  0  0  0  0  0
    2.5731    2.4266   -1.3369 H   0  0  0  0  0  0  0  0  0  0  0  0
    2.9015    0.6143   -1.4228 H   0  0  0  0  0  0  0  0  0  0  0  0
  1  2  3  0
  2  3  1  0
  3  4  2  0
  4  5  1  0
  5  6  2  0
  6  7  1  0
  7  8  2  0
  8  9  1  0
  9 10  1  0
 10 11  2  0
 11 12  1  0
 12 13  2  0
 13 14  1  0
 14 15  2  0
 15 16  1  0
 15 17  1  0
 17 18  1  0
 17 19  2  0
 11 20  1  0
 20 21  2  0
 21 22  1  0
 22 23  1  0
 23 24  1  0
 24 25  1  0
 25 26  1  0
 26 27  1  0
 27 28  1  0
  9 29  2  0
 29 30  1  0
 30  3  1  0
 30  6  1  0
 22 10  1  0
 28 23  1  0
 19 12  1  0
  4 31  1  0
  7 32  1  0
  8 33  1  0
 13 34  1  0
 14 35  1  0
 19 36  1  0
 21 37  1  0
 23 38  1  0
 24 39  1  0
 24 40  1  0
 25 41  1  0
 25 42  1  0
 27 43  1  0
 27 44  1  0
 28 45  1  0
 28 46  1  0
M  END
$$$$
