@<TRIPOS>MOLECULE
*****
 26 25 0 0 0
SMALL
GASTEIGER

@<TRIPOS>ATOM
      1 C          -1.7456    0.5111    1.3208 C.3     1  UNL1       -0.0417
      2 N          -1.2783    0.0458    0.0157 N.4     1  UNL1        0.2387
      3 C          -1.3700    1.1657   -0.8744 C.3     1  UNL1       -0.0417
      4 C          -2.2657   -0.9170   -0.4542 C.3     1  UNL1       -0.0417
      5 C          -0.0364   -0.6375    0.0676 C.3     1  UNL1       -0.0039
      6 C           1.1919    0.1826    0.1635 C.3     1  UNL1        0.0999
      7 O           1.4147    1.0638   -0.8681 O.3     1  UNL1       -0.3862
      8 C           2.3663   -0.7869    0.1669 C.3     1  UNL1        0.0179
      9 C           3.6256    0.0106    0.2637 C.2     1  UNL1        0.0444
     10 O           4.2945    0.1070    1.4847 O.co2   1  UNL1       -0.5497
     11 O           4.0169    0.5686   -0.8144 O.co2   1  UNL1       -0.5497
     12 H          -1.8101   -0.2941    2.0601 H       1  UNL1        0.0778
     13 H          -1.0433    1.3147    1.6254 H       1  UNL1        0.0778
     14 H          -2.7281    0.9849    1.1316 H       1  UNL1        0.0778
     15 H          -0.7166    2.0146   -0.6630 H       1  UNL1        0.0778
     16 H          -1.3719    0.8073   -1.9152 H       1  UNL1        0.0778
     17 H          -2.4128    1.5642   -0.7225 H       1  UNL1        0.0778
     18 H          -3.2184   -0.8355    0.1079 H       1  UNL1        0.0778
     19 H          -2.4564   -0.7824   -1.5390 H       1  UNL1        0.0778
     20 H          -1.9002   -1.9774   -0.3581 H       1  UNL1        0.0778
     21 H          -0.0512   -1.2855    0.9711 H       1  UNL1        0.0840
     22 H           0.0012   -1.3322   -0.7974 H       1  UNL1        0.0840
     23 H           1.2106    0.7109    1.1410 H       1  UNL1        0.0650
     24 H           1.6181    0.5669   -1.6996 H       1  UNL1        0.2100
     25 H           2.3281   -1.4818    1.0140 H       1  UNL1        0.0352
     26 H           2.3369   -1.2886   -0.8281 H       1  UNL1        0.0352
@<TRIPOS>UNITY_ATOM_ATTR
2 1
charge 1
10 1
charge -1
@<TRIPOS>BOND
     1     1     2    1
     2     2     3    1
     3     2     4    1
     4     2     5    1
     5     5     6    1
     6     6     7    1
     7     6     8    1
     8     8     9    1
     9     9    10   ar
    10     9    11   ar
    11     1    12    1
    12     1    13    1
    13     1    14    1
    14     3    15    1
    15     3    16    1
    16     3    17    1
    17     4    18    1
    18     4    19    1
    19     4    20    1
    20     5    21    1
    21     5    22    1
    22     6    23    1
    23     7    24    1
    24     8    25    1
    25     8    26    1
