@<TRIPOS>MOLECULE
*****
 15 14 0 0 0
SMALL
GASTEIGER

@<TRIPOS>ATOM
      1 C           0.4583   -1.1170   -0.6261 C.3     1  UNL1       -0.0366
      2 C           0.0788    0.0183    0.3146 C.3     1  UNL1        0.0577
      3 C          -1.3795    0.3124    0.0178 C.3     1  UNL1       -0.0366
      4 C           0.9824    1.1785    0.0174 C.3     1  UNL1       -0.0366
      5 O           0.1442   -0.4045    1.6384 O.3     1  UNL1       -0.3894
      6 H          -0.1479   -1.0887   -1.5660 H       1  UNL1        0.0257
      7 H           0.2003   -2.0691   -0.1371 H       1  UNL1        0.0257
      8 H           1.5180   -1.0529   -0.9448 H       1  UNL1        0.0257
      9 H          -1.4439    0.6216   -1.0396 H       1  UNL1        0.0257
     10 H          -1.8916   -0.6814    0.0817 H       1  UNL1        0.0257
     11 H          -1.8307    1.0210    0.7259 H       1  UNL1        0.0257
     12 H           0.4392    2.0339   -0.4054 H       1  UNL1        0.0257
     13 H           1.5325    1.5098    0.9347 H       1  UNL1        0.0257
     14 H           1.7972    0.9198   -0.7061 H       1  UNL1        0.0257
     15 H          -0.4571   -1.2017    1.6946 H       1  UNL1        0.2101
@<TRIPOS>BOND
     1     1     2    1
     2     2     3    1
     3     2     4    1
     4     2     5    1
     5     1     6    1
     6     1     7    1
     7     1     8    1
     8     3     9    1
     9     3    10    1
    10     3    11    1
    11     4    12    1
    12     4    13    1
    13     4    14    1
    14     5    15    1
