@<TRIPOS>MOLECULE
*****
 57 59 0 0 0
SMALL
GASTEIGER

@<TRIPOS>ATOM
      1 C           3.6150    2.8261    0.3524 C.3     1  UNL1       -0.0425
      2 C           3.0341    1.6316   -0.3515 C.3     1  UNL1        0.0456
      3 N           2.1743    0.8517    0.5215 N.am    1  UNL1       -0.3075
      4 C           0.7937    0.6372    0.2848 C.2     1  UNL1        0.2307
      5 O           0.3099    1.1634   -0.7459 O.2     1  UNL1       -0.2741
      6 C          -0.0771   -0.1474    1.1586 C.3     1  UNL1        0.0873
      7 C          -0.0722    0.3905    2.5978 C.3     1  UNL1       -0.0288
      8 C          -0.6656   -0.6813    3.4420 C.3     1  UNL1       -0.0500
      9 C          -1.3791   -1.7565    2.6897 C.3     1  UNL1       -0.0401
     10 C          -2.0762   -1.3237    1.4421 C.3     1  UNL1       -0.0003
     11 N          -1.4287   -0.2304    0.7798 N.3     1  UNL1       -0.2883
     12 C          -2.1776    0.9558    0.6277 C.3     1  UNL1        0.0338
     13 C          -3.3322    0.8838   -0.3168 C.3     1  UNL1        0.1023
     14 O          -4.3143   -0.0686    0.0223 O.3     1  UNL1       -0.4907
     15 C          -5.4143   -0.1874   -0.8161 C.ar    1  UNL1        0.1206
     16 C          -6.4309   -1.1039   -0.5556 C.ar    1  UNL1       -0.0199
     17 C          -7.5191   -1.2159   -1.3925 C.ar    1  UNL1       -0.0583
     18 C          -7.6518   -0.4321   -2.5181 C.ar    1  UNL1       -0.0615
     19 C          -6.6491    0.4750   -2.7797 C.ar    1  UNL1       -0.0583
     20 C          -5.5615    0.5905   -1.9478 C.ar    1  UNL1       -0.0199
     21 C           4.1394    0.7496   -0.7804 C.ar    1  UNL1       -0.0274
     22 C           5.4215    1.2384   -0.7739 C.ar    1  UNL1       -0.0560
     23 C           6.4991    0.4451   -1.1685 C.ar    1  UNL1       -0.0475
     24 C           6.2949   -0.8438   -1.5718 C.ar    1  UNL1        0.0589
     25 C           7.3922   -1.7127   -1.9918 C.2     1  UNL1        0.3368
     26 O           8.5646   -1.2630   -1.9801 O.2     1  UNL1       -0.2451
     27 O           7.1772   -3.0179   -2.4031 O.3     1  UNL1       -0.4771
     28 C           4.9980   -1.3276   -1.5750 C.ar    1  UNL1       -0.0475
     29 C           3.9295   -0.5588   -1.1897 C.ar    1  UNL1       -0.0560
     30 H           4.0540    3.4881   -0.4491 H       1  UNL1        0.0251
     31 H           2.8063    3.4377    0.8066 H       1  UNL1        0.0251
     32 H           4.3727    2.5926    1.0999 H       1  UNL1        0.0251
     33 H           2.4947    2.0152   -1.2341 H       1  UNL1        0.0545
     34 H           2.5849    0.4187    1.3760 H       1  UNL1        0.1493
     35 H           0.3162   -1.2003    1.2432 H       1  UNL1        0.0558
     36 H           0.9285    0.6488    2.9400 H       1  UNL1        0.0285
     37 H          -0.7508    1.2934    2.5496 H       1  UNL1        0.0285
     38 H           0.1003   -1.0732    4.1250 H       1  UNL1        0.0266
     39 H          -1.4337   -0.1874    4.1076 H       1  UNL1        0.0266
     40 H          -2.0912   -2.3240    3.3581 H       1  UNL1        0.0278
     41 H          -0.6260   -2.5376    2.4107 H       1  UNL1        0.0278
     42 H          -3.1280   -1.0895    1.7282 H       1  UNL1        0.0427
     43 H          -2.1280   -2.2353    0.7695 H       1  UNL1        0.0427
     44 H          -2.6350    1.1768    1.6422 H       1  UNL1        0.0460
     45 H          -1.5985    1.8558    0.3954 H       1  UNL1        0.0460
     46 H          -3.0395    0.6752   -1.3661 H       1  UNL1        0.0709
     47 H          -3.8598    1.8719   -0.3394 H       1  UNL1        0.0709
     48 H          -6.3553   -1.7309    0.3174 H       1  UNL1        0.0654
     49 H          -8.3188   -1.9339   -1.1924 H       1  UNL1        0.0619
     50 H          -8.5199   -0.5316   -3.1742 H       1  UNL1        0.0618
     51 H          -6.7853    1.0802   -3.6786 H       1  UNL1        0.0619
     52 H          -4.8028    1.3227   -2.2063 H       1  UNL1        0.0654
     53 H           5.6687    2.2451   -0.4694 H       1  UNL1        0.0621
     54 H           7.4993    0.8530   -1.1545 H       1  UNL1        0.0626
     55 H           7.8754   -3.7465   -2.2486 H       1  UNL1        0.2954
     56 H           4.8354   -2.3637   -1.8998 H       1  UNL1        0.0626
     57 H           2.9423   -0.9892   -1.2122 H       1  UNL1        0.0621
@<TRIPOS>BOND
     1     1     2    1
     2     2     3    1
     3     3     4   am
     4     4     5    2
     5     4     6    1
     6     6     7    1
     7     7     8    1
     8     8     9    1
     9     9    10    1
    10    10    11    1
    11    11    12    1
    12    12    13    1
    13    13    14    1
    14    14    15    1
    15    15    16   ar
    16    16    17   ar
    17    17    18   ar
    18    18    19   ar
    19    19    20   ar
    20     2    21    1
    21    21    22   ar
    22    22    23   ar
    23    23    24   ar
    24    24    25    1
    25    25    26    2
    26    25    27    1
    27    24    28   ar
    28    28    29   ar
    29    11     6    1
    30    20    15   ar
    31    29    21   ar
    32     1    30    1
    33     1    31    1
    34     1    32    1
    35     2    33    1
    36     3    34    1
    37     6    35    1
    38     7    36    1
    39     7    37    1
    40     8    38    1
    41     8    39    1
    42     9    40    1
    43     9    41    1
    44    10    42    1
    45    10    43    1
    46    12    44    1
    47    12    45    1
    48    13    46    1
    49    13    47    1
    50    16    48    1
    51    17    49    1
    52    18    50    1
    53    19    51    1
    54    20    52    1
    55    22    53    1
    56    23    54    1
    57    27    55    1
    58    28    56    1
    59    29    57    1
