
     RDKit          3D

 81 87  0  0  0  0  0  0  0  0999 V2000
   -7.8521    4.5347   -1.9515 C   0  0  0  0  0  0  0  0  0  0  0  0
   -6.9630    4.2832   -0.8790 O   0  0  0  0  0  0  0  0  0  0  0  0
   -6.7283    2.9583   -0.5118 C   0  0  0  0  0  0  0  0  0  0  0  0
   -7.3416    1.9113   -1.1699 C   0  0  0  0  0  0  0  0  0  0  0  0
   -7.1220    0.5920   -0.8214 C   0  0  0  0  0  0  0  0  0  0  0  0
   -6.2691    0.2659    0.2125 C   0  0  0  0  0  0  0  0  0  0  0  0
   -6.0403   -1.1023    0.5731 N   0  0  0  0  0  0  0  0  0  0  0  0
   -6.7063   -1.8219    1.4616 N   0  0  0  0  0  0  0  0  0  0  0  0
   -6.2060   -3.0652    1.5289 C   0  0  0  0  0  0  0  0  0  0  0  0
   -6.6900   -4.1591    2.4093 C   0  0  0  0  0  0  0  0  0  0  0  0
   -5.5554   -4.4890    3.3562 C   0  0  0  0  0  0  0  0  0  0  0  0
   -7.1455   -5.3294    1.6042 C   0  0  0  0  0  0  0  0  0  0  0  0
   -5.1712   -3.0905    0.6195 C   0  0  0  0  0  0  0  0  0  0  0  0
   -5.0592   -1.8592    0.0129 C   0  0  0  0  0  0  0  0  0  0  0  0
   -4.1456   -1.4139   -0.9838 N   0  0  0  0  0  0  0  0  0  0  0  0
   -2.8976   -0.8299   -0.6157 C   0  0  0  0  0  0  0  0  0  0  0  0
   -2.6324   -0.7225    0.6152 O   0  0  0  0  0  0  0  0  0  0  0  0
   -1.9615   -0.3742   -1.5903 N   0  0  0  0  0  0  0  0  0  0  0  0
   -0.7224    0.2032   -1.2610 C   0  0  0  0  0  0  0  0  0  0  0  0
   -0.5663    1.5483   -1.0798 C   0  0  0  0  0  0  0  0  0  0  0  0
    0.6328    2.1408   -0.7594 C   0  0  0  0  0  0  0  0  0  0  0  0
    1.7724    1.3586   -0.6028 C   0  0  0  0  0  0  0  0  0  0  0  0
    2.9510    1.8079   -0.3026 O   0  0  0  0  0  0  0  0  0  0  0  0
    3.7761    2.7724   -0.0168 C   0  0  0  0  0  0  0  0  0  0  0  0
    3.4407    4.1249    0.0811 C   0  0  0  0  0  0  0  0  0  0  0  0
    4.3924    5.0736    0.3904 C   0  0  0  0  0  0  0  0  0  0  0  0
    5.6518    4.6987    0.5999 N   0  0  0  0  0  0  0  0  0  0  0  0
    6.0246    3.3788    0.5136 C   0  0  0  0  0  0  0  0  0  0  0  0
    7.3870    3.1304    0.7705 N   0  0  0  0  0  0  0  0  0  0  0  0
    7.9784    1.8629    0.6760 C   0  0  0  0  0  0  0  0  0  0  0  0
    7.3756    0.7872    0.1209 C   0  0  0  0  0  0  0  0  0  0  0  0
    7.9759   -0.4731    0.0471 C   0  0  0  0  0  0  0  0  0  0  0  0
    7.2792   -1.6252   -0.5689 C   0  0  0  0  0  0  0  0  0  0  0  0
    9.2287   -0.6365    0.5550 C   0  0  0  0  0  0  0  0  0  0  0  0
   10.0913   -1.6751    0.6551 N   0  0  0  0  0  0  0  0  0  0  0  0
   11.1991   -1.2704    1.2512 N   0  0  0  0  0  0  0  0  0  0  0  0
   11.1188    0.0332    1.5665 C   0  0  0  0  0  0  0  0  0  0  0  0
    9.8780    0.4301    1.1275 C   0  0  0  0  0  0  0  0  0  0  0  0
    9.2725    1.6555    1.1902 C   0  0  0  0  0  0  0  0  0  0  0  0
    5.1139    2.4922    0.2203 N   0  0  0  0  0  0  0  0  0  0  0  0
    1.5831   -0.0508   -0.7979 C   0  0  0  0  0  0  0  0  0  0  0  0
    2.6912   -0.8406   -0.6470 C   0  0  0  0  0  0  0  0  0  0  0  0
    2.5695   -2.2018   -0.8205 C   0  0  0  0  0  0  0  0  0  0  0  0
    1.3370   -2.7764   -1.1459 C   0  0  0  0  0  0  0  0  0  0  0  0
    0.2378   -1.9857   -1.2950 C   0  0  0  0  0  0  0  0  0  0  0  0
    0.3900   -0.6081   -1.1132 C   0  0  0  0  0  0  0  0  0  0  0  0
   -5.6543    1.3093    0.8726 C   0  0  0  0  0  0  0  0  0  0  0  0
   -5.8740    2.6311    0.5238 C   0  0  0  0  0  0  0  0  0  0  0  0
   -8.8465    4.0570   -1.7779 H   0  0  0  0  0  0  0  0  0  0  0  0
   -7.4515    4.0960   -2.9085 H   0  0  0  0  0  0  0  0  0  0  0  0
   -8.0193    5.5997   -2.1266 H   0  0  0  0  0  0  0  0  0  0  0  0
   -8.0215    2.1733   -1.9954 H   0  0  0  0  0  0  0  0  0  0  0  0
   -7.6067   -0.2238   -1.3417 H   0  0  0  0  0  0  0  0  0  0  0  0
   -7.5387   -3.7825    3.0072 H   0  0  0  0  0  0  0  0  0  0  0  0
   -5.4832   -3.6573    4.1085 H   0  0  0  0  0  0  0  0  0  0  0  0
   -5.7504   -5.4116    3.9301 H   0  0  0  0  0  0  0  0  0  0  0  0
   -4.5641   -4.5008    2.8448 H   0  0  0  0  0  0  0  0  0  0  0  0
   -7.3650   -4.9623    0.5674 H   0  0  0  0  0  0  0  0  0  0  0  0
   -6.4082   -6.1560    1.5425 H   0  0  0  0  0  0  0  0  0  0  0  0
   -8.1083   -5.7123    2.0006 H   0  0  0  0  0  0  0  0  0  0  0  0
   -4.5337   -3.9341    0.4011 H   0  0  0  0  0  0  0  0  0  0  0  0
   -4.3367   -1.4894   -2.0096 H   0  0  0  0  0  0  0  0  0  0  0  0
   -2.2019   -0.4705   -2.6193 H   0  0  0  0  0  0  0  0  0  0  0  0
   -1.4197    2.2398   -1.1852 H   0  0  0  0  0  0  0  0  0  0  0  0
    0.6869    3.2287   -0.6283 H   0  0  0  0  0  0  0  0  0  0  0  0
    2.4310    4.4507   -0.0827 H   0  0  0  0  0  0  0  0  0  0  0  0
    4.0749    6.1273    0.4552 H   0  0  0  0  0  0  0  0  0  0  0  0
    8.0188    3.9589    1.0561 H   0  0  0  0  0  0  0  0  0  0  0  0
    6.3721    0.8215   -0.3264 H   0  0  0  0  0  0  0  0  0  0  0  0
    7.4474   -1.5798   -1.6637 H   0  0  0  0  0  0  0  0  0  0  0  0
    6.1829   -1.4849   -0.4278 H   0  0  0  0  0  0  0  0  0  0  0  0
    7.6472   -2.5541   -0.1170 H   0  0  0  0  0  0  0  0  0  0  0  0
    9.8662   -2.6239    0.3014 H   0  0  0  0  0  0  0  0  0  0  0  0
   11.8833    0.6271    2.0621 H   0  0  0  0  0  0  0  0  0  0  0  0
    9.7674    2.5246    1.6415 H   0  0  0  0  0  0  0  0  0  0  0  0
    3.6347   -0.4133   -0.3989 H   0  0  0  0  0  0  0  0  0  0  0  0
    3.4499   -2.8042   -0.6978 H   0  0  0  0  0  0  0  0  0  0  0  0
    1.2693   -3.8381   -1.2752 H   0  0  0  0  0  0  0  0  0  0  0  0
   -0.7531   -2.3672   -1.5474 H   0  0  0  0  0  0  0  0  0  0  0  0
   -4.9793    1.0369    1.6919 H   0  0  0  0  0  0  0  0  0  0  0  0
   -5.3890    3.4408    1.0457 H   0  0  0  0  0  0  0  0  0  0  0  0
  1  2  1  0
  2  3  1  0
  3  4  2  0
  4  5  1  0
  5  6  2  0
  6  7  1  0
  7  8  1  0
  8  9  2  0
  9 10  1  0
 10 11  1  0
 10 12  1  0
  9 13  1  0
 13 14  2  0
 14 15  1  0
 15 16  1  0
 16 17  2  0
 16 18  1  0
 18 19  1  0
 19 20  2  0
 20 21  1  0
 21 22  2  0
 22 23  1  0
 23 24  1  0
 24 25  2  0
 25 26  1  0
 26 27  2  0
 27 28  1  0
 28 29  1  0
 29 30  1  0
 30 31  2  0
 31 32  1  0
 32 33  1  0
 32 34  2  0
 34 35  1  0
 35 36  1  0
 36 37  2  0
 37 38  1  0
 38 39  2  0
 28 40  2  0
 22 41  1  0
 41 42  2  0
 42 43  1  0
 43 44  2  0
 44 45  1  0
 45 46  2  0
  6 47  1  0
 47 48  2  0
 48  3  1  0
 14  7  1  0
 46 19  1  0
 40 24  1  0
 46 41  1  0
 39 30  1  0
 38 34  1  0
  1 49  1  0
  1 50  1  0
  1 51  1  0
  4 52  1  0
  5 53  1  0
 10 54  1  0
 11 55  1  0
 11 56  1  0
 11 57  1  0
 12 58  1  0
 12 59  1  0
 12 60  1  0
 13 61  1  0
 15 62  1  0
 18 63  1  0
 20 64  1  0
 21 65  1  0
 25 66  1  0
 26 67  1  0
 29 68  1  0
 31 69  1  0
 33 70  1  0
 33 71  1  0
 33 72  1  0
 35 73  1  0
 37 74  1  0
 39 75  1  0
 42 76  1  0
 43 77  1  0
 44 78  1  0
 45 79  1  0
 47 80  1  0
 48 81  1  0
M  END
$$$$
