@<TRIPOS>MOLECULE
*****
 81 87 0 0 0
SMALL
GASTEIGER

@<TRIPOS>ATOM
      1 C          -7.8521    4.5347   -1.9515 C.3     1  UNL1        0.0788
      2 O          -6.9630    4.2832   -0.8790 O.3     1  UNL1       -0.4951
      3 C          -6.7283    2.9583   -0.5118 C.ar    1  UNL1        0.1202
      4 C          -7.3416    1.9113   -1.1699 C.ar    1  UNL1       -0.0179
      5 C          -7.1220    0.5920   -0.8214 C.ar    1  UNL1       -0.0327
      6 C          -6.2691    0.2659    0.2125 C.ar    1  UNL1        0.0677
      7 N          -6.0403   -1.1023    0.5731 N.ar    1  UNL1       -0.2181
      8 N          -6.7063   -1.8219    1.4616 N.ar    1  UNL1       -0.1694
      9 C          -6.2060   -3.0652    1.5289 C.ar    1  UNL1        0.0679
     10 C          -6.6900   -4.1591    2.4093 C.3     1  UNL1       -0.0025
     11 C          -5.5554   -4.4890    3.3562 C.3     1  UNL1       -0.0572
     12 C          -7.1455   -5.3294    1.6042 C.3     1  UNL1       -0.0572
     13 C          -5.1712   -3.0905    0.6195 C.ar    1  UNL1        0.0018
     14 C          -5.0592   -1.8592    0.0129 C.ar    1  UNL1        0.1299
     15 N          -4.1456   -1.4139   -0.9838 N.am    1  UNL1       -0.2538
     16 C          -2.8976   -0.8299   -0.6157 C.2     1  UNL1        0.3092
     17 O          -2.6324   -0.7225    0.6152 O.2     1  UNL1       -0.2521
     18 N          -1.9615   -0.3742   -1.5903 N.am    1  UNL1       -0.2686
     19 C          -0.7224    0.2032   -1.2610 C.ar    1  UNL1        0.0427
     20 C          -0.5663    1.5483   -1.0798 C.ar    1  UNL1       -0.0363
     21 C           0.6328    2.1408   -0.7594 C.ar    1  UNL1       -0.0169
     22 C           1.7724    1.3586   -0.6028 C.ar    1  UNL1        0.1381
     23 O           2.9510    1.8079   -0.3026 O.3     1  UNL1       -0.4373
     24 C           3.7761    2.7724   -0.0168 C.ar    1  UNL1        0.2249
     25 C           3.4407    4.1249    0.0811 C.ar    1  UNL1        0.0186
     26 C           4.3924    5.0736    0.3904 C.ar    1  UNL1        0.0362
     27 N           5.6518    4.6987    0.5999 N.ar    1  UNL1       -0.2225
     28 C           6.0246    3.3788    0.5136 C.ar    1  UNL1        0.2226
     29 N           7.3870    3.1304    0.7705 N.pl3   1  UNL1       -0.2835
     30 C           7.9784    1.8629    0.6760 C.ar    1  UNL1        0.0346
     31 C           7.3756    0.7872    0.1209 C.ar    1  UNL1       -0.0355
     32 C           7.9759   -0.4731    0.0471 C.ar    1  UNL1       -0.0233
     33 C           7.2792   -1.6252   -0.5689 C.3     1  UNL1       -0.0376
     34 C           9.2287   -0.6365    0.5550 C.ar    1  UNL1        0.0687
     35 N          10.0913   -1.6751    0.6551 N.ar    1  UNL1       -0.2767
     36 N          11.1991   -1.2704    1.2512 N.ar    1  UNL1       -0.1812
     37 C          11.1188    0.0332    1.5665 C.ar    1  UNL1        0.0569
     38 C           9.8780    0.4301    1.1275 C.ar    1  UNL1        0.0215
     39 C           9.2725    1.6555    1.1902 C.ar    1  UNL1       -0.0298
     40 N           5.1139    2.4922    0.2203 N.ar    1  UNL1       -0.1789
     41 C           1.5831   -0.0508   -0.7979 C.ar    1  UNL1        0.0262
     42 C           2.6912   -0.8406   -0.6470 C.ar    1  UNL1       -0.0505
     43 C           2.5695   -2.2018   -0.8205 C.ar    1  UNL1       -0.0611
     44 C           1.3370   -2.7764   -1.1459 C.ar    1  UNL1       -0.0611
     45 C           0.2378   -1.9857   -1.2950 C.ar    1  UNL1       -0.0521
     46 C           0.3900   -0.6081   -1.1132 C.ar    1  UNL1        0.0069
     47 C          -5.6543    1.3093    0.8726 C.ar    1  UNL1       -0.0327
     48 C          -5.8740    2.6311    0.5238 C.ar    1  UNL1       -0.0179
     49 H          -8.8465    4.0570   -1.7779 H       1  UNL1        0.0660
     50 H          -7.4515    4.0960   -2.9085 H       1  UNL1        0.0660
     51 H          -8.0193    5.5997   -2.1266 H       1  UNL1        0.0660
     52 H          -8.0215    2.1733   -1.9954 H       1  UNL1        0.0655
     53 H          -7.6067   -0.2238   -1.3417 H       1  UNL1        0.0640
     54 H          -7.5387   -3.7825    3.0072 H       1  UNL1        0.0359
     55 H          -5.4832   -3.6573    4.1085 H       1  UNL1        0.0236
     56 H          -5.7504   -5.4116    3.9301 H       1  UNL1        0.0236
     57 H          -4.5641   -4.5008    2.8448 H       1  UNL1        0.0236
     58 H          -7.3650   -4.9623    0.5674 H       1  UNL1        0.0236
     59 H          -6.4082   -6.1560    1.5425 H       1  UNL1        0.0236
     60 H          -8.1083   -5.7123    2.0006 H       1  UNL1        0.0236
     61 H          -4.5337   -3.9341    0.4011 H       1  UNL1        0.0671
     62 H          -4.3367   -1.4894   -2.0096 H       1  UNL1        0.1578
     63 H          -2.2019   -0.4705   -2.6193 H       1  UNL1        0.1564
     64 H          -1.4197    2.2398   -1.1852 H       1  UNL1        0.0637
     65 H           0.6869    3.2287   -0.6283 H       1  UNL1        0.0655
     66 H           2.4310    4.4507   -0.0827 H       1  UNL1        0.0686
     67 H           4.0749    6.1273    0.4552 H       1  UNL1        0.0832
     68 H           8.0188    3.9589    1.0561 H       1  UNL1        0.1550
     69 H           6.3721    0.8215   -0.3264 H       1  UNL1        0.0639
     70 H           7.4474   -1.5798   -1.6637 H       1  UNL1        0.0278
     71 H           6.1829   -1.4849   -0.4278 H       1  UNL1        0.0278
     72 H           7.6472   -2.5541   -0.1170 H       1  UNL1        0.0278
     73 H           9.8662   -2.6239    0.3014 H       1  UNL1        0.1889
     74 H          11.8833    0.6271    2.0621 H       1  UNL1        0.0854
     75 H           9.7674    2.5246    1.6415 H       1  UNL1        0.0643
     76 H           3.6347   -0.4133   -0.3989 H       1  UNL1        0.0625
     77 H           3.4499   -2.8042   -0.6978 H       1  UNL1        0.0618
     78 H           1.2693   -3.8381   -1.2752 H       1  UNL1        0.0618
     79 H          -0.7531   -2.3672   -1.5474 H       1  UNL1        0.0624
     80 H          -4.9793    1.0369    1.6919 H       1  UNL1        0.0640
     81 H          -5.3890    3.4408    1.0457 H       1  UNL1        0.0655
@<TRIPOS>BOND
     1     1     2    1
     2     2     3    1
     3     3     4   ar
     4     4     5   ar
     5     5     6   ar
     6     6     7    1
     7     7     8   ar
     8     8     9   ar
     9     9    10    1
    10    10    11    1
    11    10    12    1
    12     9    13   ar
    13    13    14   ar
    14    14    15    1
    15    15    16   am
    16    16    17    2
    17    16    18   am
    18    18    19    1
    19    19    20   ar
    20    20    21   ar
    21    21    22   ar
    22    22    23    1
    23    23    24    1
    24    24    25   ar
    25    25    26   ar
    26    26    27   ar
    27    27    28   ar
    28    28    29    1
    29    29    30    1
    30    30    31   ar
    31    31    32   ar
    32    32    33    1
    33    32    34   ar
    34    34    35   ar
    35    35    36   ar
    36    36    37   ar
    37    37    38   ar
    38    38    39   ar
    39    28    40   ar
    40    22    41   ar
    41    41    42   ar
    42    42    43   ar
    43    43    44   ar
    44    44    45   ar
    45    45    46   ar
    46     6    47   ar
    47    47    48   ar
    48    48     3   ar
    49    14     7   ar
    50    46    19   ar
    51    40    24   ar
    52    46    41   ar
    53    39    30   ar
    54    38    34   ar
    55     1    49    1
    56     1    50    1
    57     1    51    1
    58     4    52    1
    59     5    53    1
    60    10    54    1
    61    11    55    1
    62    11    56    1
    63    11    57    1
    64    12    58    1
    65    12    59    1
    66    12    60    1
    67    13    61    1
    68    15    62    1
    69    18    63    1
    70    20    64    1
    71    21    65    1
    72    25    66    1
    73    26    67    1
    74    29    68    1
    75    31    69    1
    76    33    70    1
    77    33    71    1
    78    33    72    1
    79    35    73    1
    80    37    74    1
    81    39    75    1
    82    42    76    1
    83    43    77    1
    84    44    78    1
    85    45    79    1
    86    47    80    1
    87    48    81    1
