@<TRIPOS>MOLECULE
*****
 21 20 0 0 0
SMALL
GASTEIGER

@<TRIPOS>ATOM
      1 C          -0.7976   -1.6360    0.5692 C.3     1  UNL1       -0.0350
      2 C          -0.0709   -0.6000   -0.2183 C.3     1  UNL1        0.0834
      3 O          -0.1027   -0.9539   -1.5605 O.3     1  UNL1       -0.3878
      4 C          -0.5081    0.8092    0.0187 C.3     1  UNL1        0.0738
      5 C          -1.9128    1.0817   -0.2882 C.2     1  UNL1        0.3075
      6 O          -2.3483    2.3862   -0.0775 O.3     1  UNL1       -0.4805
      7 O          -2.7200    0.1916   -0.7269 O.2     1  UNL1       -0.2509
      8 C           1.3902   -0.6864    0.2321 C.3     1  UNL1        0.0738
      9 C           2.2473    0.2797   -0.4569 C.2     1  UNL1        0.3075
     10 O           2.3335    1.2981   -1.3898 O.3     1  UNL1       -0.4805
     11 O           3.4849    0.2921   -0.1557 O.2     1  UNL1       -0.2509
     12 H          -0.1415   -2.5436    0.5416 H       1  UNL1        0.0257
     13 H          -0.8175   -1.3503    1.6366 H       1  UNL1        0.0257
     14 H          -1.7618   -1.9566    0.1484 H       1  UNL1        0.0257
     15 H          -0.2690   -1.9238   -1.6978 H       1  UNL1        0.2102
     16 H           0.1046    1.4430   -0.6764 H       1  UNL1        0.0406
     17 H          -0.2997    1.1282    1.0566 H       1  UNL1        0.0406
     18 H          -3.3412    2.6345   -0.1294 H       1  UNL1        0.2951
     19 H           1.3838   -0.4759    1.3370 H       1  UNL1        0.0406
     20 H           1.7647   -1.7093    0.0565 H       1  UNL1        0.0406
     21 H           2.3822    2.2913   -1.1573 H       1  UNL1        0.2951
@<TRIPOS>BOND
     1     1     2    1
     2     2     3    1
     3     2     4    1
     4     4     5    1
     5     5     6    1
     6     5     7    2
     7     2     8    1
     8     8     9    1
     9     9    10    1
    10     9    11    2
    11     1    12    1
    12     1    13    1
    13     1    14    1
    14     3    15    1
    15     4    16    1
    16     4    17    1
    17     6    18    1
    18     8    19    1
    19     8    20    1
    20    10    21    1
