@<TRIPOS>MOLECULE
*****
 35 36 0 0 0
SMALL
GASTEIGER

@<TRIPOS>ATOM
      1 N           6.1901    1.3808    1.0176 N.3     1  UNL1       -0.3225
      2 C           6.0444   -0.0120    0.5938 C.3     1  UNL1        0.0711
      3 C           4.5873   -0.1554    0.2676 C.2     1  UNL1        0.2309
      4 O           3.9485    0.9318    0.4511 O.2     1  UNL1       -0.2741
      5 N           3.8958   -1.3023   -0.1934 N.am    1  UNL1       -0.2845
      6 C           2.5315   -0.9686   -0.3659 C.ar    1  UNL1        0.0336
      7 C           1.7728   -1.1847    0.7786 C.ar    1  UNL1       -0.0370
      8 C           0.4116   -0.8947    0.7393 C.ar    1  UNL1       -0.0182
      9 C          -0.1828   -0.4058   -0.3970 C.ar    1  UNL1        0.1211
     10 O          -1.5332   -0.1028   -0.4833 O.3     1  UNL1       -0.4874
     11 C          -2.3554   -0.2986    0.6386 C.3     1  UNL1        0.1146
     12 C          -3.7326    0.1092    0.2454 C.ar    1  UNL1       -0.0104
     13 C          -4.0991    1.4182    0.4414 C.ar    1  UNL1       -0.0554
     14 C          -5.3272    1.9162    0.1244 C.ar    1  UNL1       -0.0614
     15 C          -6.2524    1.0550   -0.4241 C.ar    1  UNL1       -0.0617
     16 C          -5.8966   -0.2634   -0.6264 C.ar    1  UNL1       -0.0614
     17 C          -4.6383   -0.7815   -0.3035 C.ar    1  UNL1       -0.0554
     18 C           0.6200   -0.2127   -1.4985 C.ar    1  UNL1       -0.0182
     19 C           1.9726   -0.4760   -1.5361 C.ar    1  UNL1       -0.0370
     20 H           5.7028    1.4516    1.9394 H       1  UNL1        0.1186
     21 H           5.6186    1.9633    0.3512 H       1  UNL1        0.1186
     22 H           6.6724   -0.1393   -0.3242 H       1  UNL1        0.0518
     23 H           6.3581   -0.7063    1.4020 H       1  UNL1        0.0518
     24 H           4.5092   -2.1373   -0.3102 H       1  UNL1        0.1548
     25 H           2.1620   -1.5654    1.7095 H       1  UNL1        0.0637
     26 H          -0.2247   -1.0478    1.6123 H       1  UNL1        0.0655
     27 H          -1.9902    0.3228    1.5022 H       1  UNL1        0.0748
     28 H          -2.3881   -1.3399    1.0038 H       1  UNL1        0.0748
     29 H          -3.3981    2.1238    0.8703 H       1  UNL1        0.0621
     30 H          -5.5847    2.9522    0.2913 H       1  UNL1        0.0618
     31 H          -7.2565    1.3560   -0.7099 H       1  UNL1        0.0618
     32 H          -6.5669   -1.0107   -1.0547 H       1  UNL1        0.0618
     33 H          -4.3667   -1.8089   -0.4632 H       1  UNL1        0.0621
     34 H           0.1791    0.1687   -2.3992 H       1  UNL1        0.0655
     35 H           2.6169   -0.3358   -2.3741 H       1  UNL1        0.0637
@<TRIPOS>BOND
     1     1     2    1
     2     2     3    1
     3     3     4    2
     4     3     5   am
     5     5     6    1
     6     6     7   ar
     7     7     8   ar
     8     8     9   ar
     9     9    10    1
    10    10    11    1
    11    11    12    1
    12    12    13   ar
    13    13    14   ar
    14    14    15   ar
    15    15    16   ar
    16    16    17   ar
    17     9    18   ar
    18    18    19   ar
    19    19     6   ar
    20    17    12   ar
    21     1    20    1
    22     1    21    1
    23     2    22    1
    24     2    23    1
    25     5    24    1
    26     7    25    1
    27     8    26    1
    28    11    27    1
    29    11    28    1
    30    13    29    1
    31    14    30    1
    32    15    31    1
    33    16    32    1
    34    17    33    1
    35    18    34    1
    36    19    35    1
