@<TRIPOS>MOLECULE
*****
 53 55 0 0 0
SMALL
GASTEIGER

@<TRIPOS>ATOM
      1 C           8.4797    1.8478    0.6321 C.3     1  UNL1        0.0003
      2 N           7.7278    1.2404    1.6970 N.pl3   1  UNL1       -0.3165
      3 C           6.4128    0.7479    1.4414 C.ar    1  UNL1        0.2180
      4 N           5.6770    0.1739    2.4083 N.ar    1  UNL1       -0.2220
      5 C           4.4571   -0.2822    2.1685 C.ar    1  UNL1        0.0485
      6 C           3.8498   -0.2041    0.9146 C.ar    1  UNL1        0.1165
      7 C           2.5240   -0.7224    0.7379 C.2     1  UNL1        0.2549
      8 O           1.9488   -1.2423    1.7581 O.2     1  UNL1       -0.2696
      9 N           1.7463   -0.7380   -0.4378 N.am    1  UNL1       -0.2811
     10 C           0.4236   -1.2944   -0.4679 C.ar    1  UNL1        0.0373
     11 C          -0.6817   -0.5180   -0.1999 C.ar    1  UNL1       -0.0281
     12 C          -1.9647   -1.0647   -0.2308 C.ar    1  UNL1        0.0388
     13 C          -3.1235   -0.2370    0.0535 C.2     1  UNL1        0.2484
     14 O          -2.9207    0.9954    0.3291 O.2     1  UNL1       -0.2699
     15 N          -4.4617   -0.6667    0.0546 N.am    1  UNL1       -0.2792
     16 C          -5.5662    0.1504    0.3322 C.ar    1  UNL1        0.0698
     17 C          -6.0172    0.2776    1.6180 C.ar    1  UNL1       -0.0376
     18 C          -7.1015    1.0678    1.9582 C.ar    1  UNL1       -0.0593
     19 C          -7.7197    1.7355    0.9192 C.ar    1  UNL1       -0.0472
     20 C          -7.2980    1.6348   -0.3867 C.ar    1  UNL1        0.0917
     21 C          -8.0099    2.3822   -1.4616 C.3     1  UNL1        0.4201
     22 F          -9.0386    3.0925   -0.9149 F       1  UNL1       -0.1658
     23 F          -8.4952    1.4961   -2.4034 F       1  UNL1       -0.1658
     24 F          -7.0978    3.2421   -2.0626 F       1  UNL1       -0.1658
     25 C          -6.2023    0.8260   -0.6723 C.ar    1  UNL1        0.1561
     26 F          -5.8143    0.7518   -1.9786 F       1  UNL1       -0.2030
     27 C          -2.0610   -2.4016   -0.5392 C.ar    1  UNL1       -0.0493
     28 C          -0.9344   -3.1922   -0.8123 C.ar    1  UNL1       -0.0564
     29 C           0.3168   -2.6333   -0.7761 C.ar    1  UNL1       -0.0292
     30 C           1.5350   -3.4297   -1.0575 C.3     1  UNL1       -0.0380
     31 C           4.6091    0.3828   -0.0627 C.ar    1  UNL1        0.2313
     32 O           4.0994    0.5109   -1.3476 O.3     1  UNL1       -0.4790
     33 C           4.8666    1.1106   -2.3597 C.3     1  UNL1        0.0804
     34 N           5.8398    0.8272    0.2376 N.ar    1  UNL1       -0.1788
     35 H           9.5529    1.9389    0.9411 H       1  UNL1        0.0426
     36 H           8.4082    1.2903   -0.3220 H       1  UNL1        0.0426
     37 H           8.0930    2.8779    0.4294 H       1  UNL1        0.0426
     38 H           8.1070    1.1452    2.6521 H       1  UNL1        0.1486
     39 H           3.8862   -0.7396    2.9632 H       1  UNL1        0.0840
     40 H           2.1086   -0.3477   -1.3140 H       1  UNL1        0.1551
     41 H          -0.5560    0.5414    0.0408 H       1  UNL1        0.0644
     42 H          -4.6391   -1.6891   -0.1733 H       1  UNL1        0.1552
     43 H          -5.5413   -0.2428    2.4539 H       1  UNL1        0.0637
     44 H          -7.4598    1.1696    2.9757 H       1  UNL1        0.0618
     45 H          -8.5712    2.3639    1.1414 H       1  UNL1        0.0624
     46 H          -3.0541   -2.8463   -0.5683 H       1  UNL1        0.0625
     47 H          -1.0786   -4.2389   -1.0485 H       1  UNL1        0.0621
     48 H           1.6015   -3.5407   -2.1783 H       1  UNL1        0.0278
     49 H           1.4293   -4.4660   -0.6712 H       1  UNL1        0.0278
     50 H           2.4461   -2.9359   -0.7276 H       1  UNL1        0.0278
     51 H           5.4550    1.9347   -1.9286 H       1  UNL1        0.0660
     52 H           5.5735    0.3690   -2.7757 H       1  UNL1        0.0660
     53 H           4.2334    1.5489   -3.1652 H       1  UNL1        0.0660
@<TRIPOS>BOND
     1     1     2    1
     2     2     3    1
     3     3     4   ar
     4     4     5   ar
     5     5     6   ar
     6     6     7    1
     7     7     8    2
     8     7     9   am
     9     9    10    1
    10    10    11   ar
    11    11    12   ar
    12    12    13    1
    13    13    14    2
    14    13    15   am
    15    15    16    1
    16    16    17   ar
    17    17    18   ar
    18    18    19   ar
    19    19    20   ar
    20    20    21    1
    21    21    22    1
    22    21    23    1
    23    21    24    1
    24    20    25   ar
    25    25    26    1
    26    12    27   ar
    27    27    28   ar
    28    28    29   ar
    29    29    30    1
    30     6    31   ar
    31    31    32    1
    32    32    33    1
    33    31    34   ar
    34    34     3   ar
    35    29    10   ar
    36    25    16   ar
    37     1    35    1
    38     1    36    1
    39     1    37    1
    40     2    38    1
    41     5    39    1
    42     9    40    1
    43    11    41    1
    44    15    42    1
    45    17    43    1
    46    18    44    1
    47    19    45    1
    48    27    46    1
    49    28    47    1
    50    30    48    1
    51    30    49    1
    52    30    50    1
    53    33    51    1
    54    33    52    1
    55    33    53    1
