
     RDKit          3D

 42 45  0  0  0  0  0  0  0  0999 V2000
    4.5765   -1.2074    0.2537 C   0  0  0  0  0  0  0  0  0  0  0  0
    3.1141   -1.4871    0.5223 C   0  0  0  0  0  0  0  0  0  0  0  0
    2.5415   -0.2854    1.2856 C   0  0  0  0  0  0  0  0  0  0  0  0
    1.1856   -0.4160    1.6417 N   0  0  0  0  0  0  0  0  0  0  0  0
    0.8182   -0.8714    2.9385 C   0  0  0  0  0  0  0  0  0  0  0  0
   -0.4559   -0.8276    2.9453 N   0  0  0  0  0  0  0  0  0  0  0  0
   -1.0100   -0.3979    1.8262 C   0  0  0  0  0  0  0  0  0  0  0  0
   -2.4679   -0.2945    1.7324 C   0  0  0  0  0  0  0  0  0  0  0  0
   -3.0845    0.9093    2.1143 C   0  0  0  0  0  0  0  0  0  0  0  0
   -4.4436    1.1141    2.1375 C   0  0  0  0  0  0  0  0  0  0  0  0
   -5.2014   -0.0103    1.7257 C   0  0  0  0  0  0  0  0  0  0  0  0
   -6.5833    0.1583    1.7489 F   0  0  0  0  0  0  0  0  0  0  0  0
   -4.6900   -1.1773    1.3380 C   0  0  0  0  0  0  0  0  0  0  0  0
   -3.2985   -1.3248    1.3439 C   0  0  0  0  0  0  0  0  0  0  0  0
    0.0426   -0.1310    0.9800 C   0  0  0  0  0  0  0  0  0  0  0  0
   -0.0845    0.3240   -0.4089 C   0  0  0  0  0  0  0  0  0  0  0  0
   -1.3537    0.3281   -1.0022 C   0  0  0  0  0  0  0  0  0  0  0  0
   -1.4798    0.6790   -2.3256 C   0  0  0  0  0  0  0  0  0  0  0  0
   -0.4892    1.0317   -3.1378 C   0  0  0  0  0  0  0  0  0  0  0  0
   -0.3696    1.3613   -4.4077 N   0  0  0  0  0  0  0  0  0  0  0  0
    1.0674    1.6066   -4.6998 C   0  0  0  0  0  0  0  0  0  0  0  0
    1.5712    1.3746   -3.5207 C   0  0  0  0  0  0  0  0  0  0  0  0
    3.0175    1.5558   -3.2876 C   0  0  0  0  0  0  0  0  0  0  0  0
    4.3457    1.7086   -3.0934 N   0  0  0  0  0  0  0  0  0  0  0  0
    0.8255    1.0457   -2.5584 N   0  0  0  0  0  0  0  0  0  0  0  0
    0.9130    0.6920   -1.2580 C   0  0  0  0  0  0  0  0  0  0  0  0
    4.7098   -0.2265   -0.2816 H   0  0  0  0  0  0  0  0  0  0  0  0
    5.0221   -2.0726   -0.3247 H   0  0  0  0  0  0  0  0  0  0  0  0
    5.1523   -1.1178    1.1906 H   0  0  0  0  0  0  0  0  0  0  0  0
    2.6067   -1.6023   -0.4913 H   0  0  0  0  0  0  0  0  0  0  0  0
    2.9791   -2.4218    1.1032 H   0  0  0  0  0  0  0  0  0  0  0  0
    3.1901   -0.3235    2.2635 H   0  0  0  0  0  0  0  0  0  0  0  0
    2.8529    0.6849    0.8493 H   0  0  0  0  0  0  0  0  0  0  0  0
    1.5333   -1.1689    3.7024 H   0  0  0  0  0  0  0  0  0  0  0  0
   -2.4486    1.7379    2.4041 H   0  0  0  0  0  0  0  0  0  0  0  0
   -4.9486    1.9956    2.4406 H   0  0  0  0  0  0  0  0  0  0  0  0
   -5.2593   -2.0242    1.0226 H   0  0  0  0  0  0  0  0  0  0  0  0
   -2.8555   -2.2626    1.0541 H   0  0  0  0  0  0  0  0  0  0  0  0
   -2.2464    0.0787   -0.5035 H   0  0  0  0  0  0  0  0  0  0  0  0
   -2.5072    0.6841   -2.7794 H   0  0  0  0  0  0  0  0  0  0  0  0
    1.2939    1.8828   -5.6733 H   0  0  0  0  0  0  0  0  0  0  0  0
    1.9185    0.6978   -0.8630 H   0  0  0  0  0  0  0  0  0  0  0  0
  1  2  1  0
  2  3  1  0
  3  4  1  0
  4  5  1  0
  5  6  2  0
  6  7  1  0
  7  8  1  0
  8  9  2  0
  9 10  1  0
 10 11  2  0
 11 12  1  0
 11 13  1  0
 13 14  2  0
  7 15  2  0
 15 16  1  0
 16 17  1  0
 17 18  2  0
 18 19  1  0
 19 20  2  0
 20 21  1  0
 21 22  2  0
 22 23  1  0
 23 24  3  0
 22 25  1  0
 25 26  1  0
 15  4  1  0
 26 16  2  0
 14  8  1  0
 25 19  1  0
  1 27  1  0
  1 28  1  0
  1 29  1  0
  2 30  1  0
  2 31  1  0
  3 32  1  0
  3 33  1  0
  5 34  1  0
  9 35  1  0
 10 36  1  0
 13 37  1  0
 14 38  1  0
 17 39  1  0
 18 40  1  0
 21 41  1  0
 26 42  1  0
M  END
$$$$
