@<TRIPOS>MOLECULE
*****
 42 45 0 0 0
SMALL
GASTEIGER

@<TRIPOS>ATOM
      1 C           4.5765   -1.2074    0.2537 C.3     1  UNL1       -0.0637
      2 C           3.1141   -1.4871    0.5223 C.3     1  UNL1       -0.0378
      3 C           2.5415   -0.2854    1.2856 C.3     1  UNL1        0.0245
      4 N           1.1856   -0.4160    1.6417 N.ar    1  UNL1       -0.3296
      5 C           0.8182   -0.8714    2.9385 C.ar    1  UNL1        0.0971
      6 N          -0.4559   -0.8276    2.9453 N.ar    1  UNL1       -0.2351
      7 C          -1.0100   -0.3979    1.8262 C.ar    1  UNL1        0.0967
      8 C          -2.4679   -0.2945    1.7324 C.ar    1  UNL1        0.0026
      9 C          -3.0845    0.9093    2.1143 C.ar    1  UNL1       -0.0498
     10 C          -4.4436    1.1141    2.1375 C.ar    1  UNL1       -0.0258
     11 C          -5.2014   -0.0103    1.7257 C.ar    1  UNL1        0.1234
     12 F          -6.5833    0.1583    1.7489 F       1  UNL1       -0.2055
     13 C          -4.6900   -1.1773    1.3380 C.ar    1  UNL1       -0.0258
     14 C          -3.2985   -1.3248    1.3439 C.ar    1  UNL1       -0.0498
     15 C           0.0426   -0.1310    0.9800 C.ar    1  UNL1        0.0778
     16 C          -0.0845    0.3240   -0.4089 C.ar    1  UNL1        0.0173
     17 C          -1.3537    0.3281   -1.0022 C.ar    1  UNL1       -0.0477
     18 C          -1.4798    0.6790   -2.3256 C.ar    1  UNL1       -0.0181
     19 C          -0.4892    1.0317   -3.1378 C.ar    1  UNL1        0.1385
     20 N          -0.3696    1.3613   -4.4077 N.ar    1  UNL1       -0.2348
     21 C           1.0674    1.6066   -4.6998 C.ar    1  UNL1        0.0643
     22 C           1.5712    1.3746   -3.5207 C.ar    1  UNL1        0.1438
     23 C           3.0175    1.5558   -3.2876 C.1     1  UNL1        0.1192
     24 N           4.3457    1.7086   -3.0934 N.1     1  UNL1       -0.1893
     25 N           0.8255    1.0457   -2.5584 N.ar    1  UNL1       -0.2906
     26 C           0.9130    0.6920   -1.2580 C.ar    1  UNL1        0.0216
     27 H           4.7098   -0.2265   -0.2816 H       1  UNL1        0.0230
     28 H           5.0221   -2.0726   -0.3247 H       1  UNL1        0.0230
     29 H           5.1523   -1.1178    1.1906 H       1  UNL1        0.0230
     30 H           2.6067   -1.6023   -0.4913 H       1  UNL1        0.0280
     31 H           2.9791   -2.4218    1.1032 H       1  UNL1        0.0280
     32 H           3.1901   -0.3235    2.2635 H       1  UNL1        0.0492
     33 H           2.8529    0.6849    0.8493 H       1  UNL1        0.0492
     34 H           1.5333   -1.1689    3.7024 H       1  UNL1        0.1029
     35 H          -2.4486    1.7379    2.4041 H       1  UNL1        0.0625
     36 H          -4.9486    1.9956    2.4406 H       1  UNL1        0.0646
     37 H          -5.2593   -2.0242    1.0226 H       1  UNL1        0.0646
     38 H          -2.8555   -2.2626    1.0541 H       1  UNL1        0.0625
     39 H          -2.2464    0.0787   -0.5035 H       1  UNL1        0.0626
     40 H          -2.5072    0.6841   -2.7794 H       1  UNL1        0.0654
     41 H           1.2939    1.8828   -5.6733 H       1  UNL1        0.0859
     42 H           1.9185    0.6978   -0.8630 H       1  UNL1        0.0820
@<TRIPOS>BOND
     1     1     2    1
     2     2     3    1
     3     3     4    1
     4     4     5   ar
     5     5     6   ar
     6     6     7   ar
     7     7     8    1
     8     8     9   ar
     9     9    10   ar
    10    10    11   ar
    11    11    12    1
    12    11    13   ar
    13    13    14   ar
    14     7    15   ar
    15    15    16    1
    16    16    17   ar
    17    17    18   ar
    18    18    19   ar
    19    19    20   ar
    20    20    21   ar
    21    21    22   ar
    22    22    23    1
    23    23    24    3
    24    22    25   ar
    25    25    26   ar
    26    15     4   ar
    27    26    16   ar
    28    14     8   ar
    29    25    19   ar
    30     1    27    1
    31     1    28    1
    32     1    29    1
    33     2    30    1
    34     2    31    1
    35     3    32    1
    36     3    33    1
    37     5    34    1
    38     9    35    1
    39    10    36    1
    40    13    37    1
    41    14    38    1
    42    17    39    1
    43    18    40    1
    44    21    41    1
    45    26    42    1
