@<TRIPOS>MOLECULE
*****
 51 53 0 0 0
SMALL
GASTEIGER

@<TRIPOS>ATOM
      1 C           8.0783    2.0074   -1.3610 C.3     1  UNL1       -0.0209
      2 C           6.8171    1.2460   -1.1419 C.ar    1  UNL1        0.0563
      3 C           6.2040    1.2204    0.0915 C.ar    1  UNL1        0.0494
      4 N           5.0705    0.5353    0.2858 N.ar    1  UNL1       -0.2471
      5 C           4.4991   -0.1440   -0.7086 C.ar    1  UNL1        0.1437
      6 C           3.2735   -0.8820   -0.4892 C.2     1  UNL1        0.2681
      7 O           2.7552   -1.5105   -1.4314 O.2     1  UNL1       -0.2681
      8 N           2.6718   -0.8863    0.7893 N.am    1  UNL1       -0.2802
      9 C           1.4856   -1.6010    1.0002 C.ar    1  UNL1        0.0343
     10 C           1.4597   -2.9213    1.3996 C.ar    1  UNL1       -0.0377
     11 C           0.2534   -3.5329    1.5792 C.ar    1  UNL1       -0.0243
     12 C          -0.9338   -2.8389    1.3637 C.ar    1  UNL1        0.1311
     13 F          -2.0876   -3.4795    1.5532 F       1  UNL1       -0.2050
     14 C          -0.9385   -1.5260    0.9664 C.ar    1  UNL1        0.0420
     15 C          -2.1997   -0.8184    0.7455 C.3     1  UNL1        0.1959
     16 C          -2.9492   -0.8098    2.0887 C.3     1  UNL1       -0.0112
     17 C          -3.0334   -1.4693   -0.3363 C.3     1  UNL1        0.1183
     18 S          -4.5974   -0.5789   -0.3389 S.O2    1  UNL1       -0.0101
     19 O          -5.2494   -0.8863   -1.6507 O.2     1  UNL1       -0.1731
     20 O          -5.4902   -0.9956    0.7682 O.2     1  UNL1       -0.1731
     21 C          -4.1455    1.1330   -0.2906 C.3     1  UNL1        0.1831
     22 C          -4.4965    1.7861   -1.6378 C.3     1  UNL1       -0.0288
     23 C          -5.0292    1.8215    0.7243 C.3     1  UNL1       -0.0288
     24 C          -2.7141    1.3417   -0.0973 C.2     1  UNL1        0.3067
     25 N          -2.2018    2.6462   -0.4532 N.pl3   1  UNL1       -0.2488
     26 N          -1.8708    0.5156    0.3447 N.2     1  UNL1       -0.0727
     27 C           0.2843   -0.9298    0.7915 C.ar    1  UNL1       -0.0301
     28 C           5.0857   -0.1355   -1.9408 C.ar    1  UNL1        0.0583
     29 N           6.2348    0.5601   -2.1344 N.ar    1  UNL1       -0.2564
     30 H           8.5289    1.6265   -2.2952 H       1  UNL1        0.0293
     31 H           8.8161    1.8093   -0.5367 H       1  UNL1        0.0293
     32 H           7.8311    3.0889   -1.4140 H       1  UNL1        0.0293
     33 H           6.6859    1.7799    0.8861 H       1  UNL1        0.0848
     34 H           3.1160   -0.3596    1.5577 H       1  UNL1        0.1552
     35 H           2.4028   -3.4341    1.5591 H       1  UNL1        0.0637
     36 H           0.2252   -4.5777    1.8953 H       1  UNL1        0.0647
     37 H          -3.3076    0.1908    2.3557 H       1  UNL1        0.0279
     38 H          -2.2288   -1.0775    2.9200 H       1  UNL1        0.0279
     39 H          -3.6984   -1.6109    2.1170 H       1  UNL1        0.0279
     40 H          -3.2467   -2.5215   -0.1747 H       1  UNL1        0.0550
     41 H          -2.5568   -1.2301   -1.3005 H       1  UNL1        0.0550
     42 H          -3.9676    1.2841   -2.4728 H       1  UNL1        0.0256
     43 H          -4.2620    2.8679   -1.5597 H       1  UNL1        0.0256
     44 H          -5.6037    1.7027   -1.7141 H       1  UNL1        0.0256
     45 H          -5.9431    2.2657    0.2476 H       1  UNL1        0.0256
     46 H          -5.4234    1.0743    1.4517 H       1  UNL1        0.0256
     47 H          -4.4805    2.5707    1.3229 H       1  UNL1        0.0256
     48 H          -2.4281    3.4604    0.1498 H       1  UNL1        0.2881
     49 H          -1.6173    2.7989   -1.2876 H       1  UNL1        0.2881
     50 H           0.3081    0.1137    0.4758 H       1  UNL1        0.0641
     51 H           4.6136   -0.6893   -2.7380 H       1  UNL1        0.0853
@<TRIPOS>BOND
     1     1     2    1
     2     2     3   ar
     3     3     4   ar
     4     4     5   ar
     5     5     6    1
     6     6     7    2
     7     6     8   am
     8     8     9    1
     9     9    10   ar
    10    10    11   ar
    11    11    12   ar
    12    12    13    1
    13    12    14   ar
    14    14    15    1
    15    15    16    1
    16    15    17    1
    17    17    18    1
    18    18    19    2
    19    18    20    2
    20    18    21    1
    21    21    22    1
    22    21    23    1
    23    21    24    1
    24    24    25    1
    25    24    26    2
    26    14    27   ar
    27     5    28   ar
    28    28    29   ar
    29    29     2   ar
    30    27     9   ar
    31    26    15    1
    32     1    30    1
    33     1    31    1
    34     1    32    1
    35     3    33    1
    36     8    34    1
    37    10    35    1
    38    11    36    1
    39    16    37    1
    40    16    38    1
    41    16    39    1
    42    17    40    1
    43    17    41    1
    44    22    42    1
    45    22    43    1
    46    22    44    1
    47    23    45    1
    48    23    46    1
    49    23    47    1
    50    25    48    1
    51    25    49    1
    52    27    50    1
    53    28    51    1
