
     RDKit          3D

 64 69  0  0  0  0  0  0  0  0999 V2000
    8.6831   -2.5129   -0.6104 C   0  0  0  0  0  0  0  0  0  0  0  0
    7.3872   -1.8577   -0.6348 N   0  0  0  0  0  0  0  0  0  0  0  0
    7.2596   -1.0181    0.5154 C   0  0  0  0  0  0  0  0  0  0  0  0
    5.9323   -0.3091    0.5029 C   0  0  0  0  0  0  0  0  0  0  0  0
    4.8898   -1.3186    0.3505 N   0  0  0  0  0  0  0  0  0  0  0  0
    3.5549   -0.8797    0.2163 C   0  0  0  0  0  0  0  0  0  0  0  0
    2.4946   -1.7579    0.0658 C   0  0  0  0  0  0  0  0  0  0  0  0
    1.2127   -1.2755   -0.0602 C   0  0  0  0  0  0  0  0  0  0  0  0
    1.0392    0.0915   -0.0300 C   0  0  0  0  0  0  0  0  0  0  0  0
    2.0829    0.9731    0.1187 C   0  0  0  0  0  0  0  0  0  0  0  0
    3.3104    0.4394    0.2368 N   0  0  0  0  0  0  0  0  0  0  0  0
    1.5808    2.2211    0.1080 N   0  0  0  0  0  0  0  0  0  0  0  0
    0.2339    2.1596   -0.0448 C   0  0  0  0  0  0  0  0  0  0  0  0
   -0.6952    3.2760   -0.1079 C   0  0  0  0  0  0  0  0  0  0  0  0
   -0.8811    4.0624    1.0096 C   0  0  0  0  0  0  0  0  0  0  0  0
   -1.7445    5.1364    1.0245 C   0  0  0  0  0  0  0  0  0  0  0  0
   -2.4647    5.4664   -0.0995 C   0  0  0  0  0  0  0  0  0  0  0  0
   -3.3239    6.5183   -0.1184 F   0  0  0  0  0  0  0  0  0  0  0  0
   -2.2942    4.6935   -1.2284 C   0  0  0  0  0  0  0  0  0  0  0  0
   -1.4255    3.6246   -1.2197 C   0  0  0  0  0  0  0  0  0  0  0  0
   -0.0737    0.8437   -0.1271 N   0  0  0  0  0  0  0  0  0  0  0  0
   -1.4062    0.3383   -0.2942 C   0  0  0  0  0  0  0  0  0  0  0  0
   -1.7419   -0.3587   -1.4365 C   0  0  0  0  0  0  0  0  0  0  0  0
   -3.0398   -0.8155   -1.5306 C   0  0  0  0  0  0  0  0  0  0  0  0
   -3.9259   -0.5837   -0.5450 N   0  0  0  0  0  0  0  0  0  0  0  0
   -3.5948    0.0975    0.5697 C   0  0  0  0  0  0  0  0  0  0  0  0
   -4.5607    0.3291    1.6031 N   0  0  0  0  0  0  0  0  0  0  0  0
   -5.9169   -0.1467    1.5063 C   0  0  0  0  0  0  0  0  0  0  0  0
   -6.0073   -1.6417    1.3783 C   0  0  0  0  0  0  0  0  0  0  0  0
   -6.7179   -1.9566    0.1035 C   0  0  0  0  0  0  0  0  0  0  0  0
   -7.1955   -0.6694   -0.4892 C   0  0  0  0  0  0  0  0  0  0  0  0
   -6.6562    0.4509    0.3372 C   0  0  0  0  0  0  0  0  0  0  0  0
   -2.3318    0.5418    0.6610 N   0  0  0  0  0  0  0  0  0  0  0  0
    5.3304   -2.6906    0.3518 C   0  0  0  0  0  0  0  0  0  0  0  0
    6.3441   -2.8194   -0.7909 C   0  0  0  0  0  0  0  0  0  0  0  0
    9.3146   -2.0584    0.1812 H   0  0  0  0  0  0  0  0  0  0  0  0
    8.5458   -3.5884   -0.3329 H   0  0  0  0  0  0  0  0  0  0  0  0
    9.1388   -2.4508   -1.6151 H   0  0  0  0  0  0  0  0  0  0  0  0
    7.3912   -1.5898    1.4632 H   0  0  0  0  0  0  0  0  0  0  0  0
    8.1078   -0.2847    0.4914 H   0  0  0  0  0  0  0  0  0  0  0  0
    5.8655    0.3628   -0.3642 H   0  0  0  0  0  0  0  0  0  0  0  0
    5.7177    0.2072    1.4613 H   0  0  0  0  0  0  0  0  0  0  0  0
    2.6521   -2.8392    0.0442 H   0  0  0  0  0  0  0  0  0  0  0  0
    0.3409   -1.9149   -0.1809 H   0  0  0  0  0  0  0  0  0  0  0  0
   -0.3327    3.8494    1.9427 H   0  0  0  0  0  0  0  0  0  0  0  0
   -1.8882    5.7527    1.9054 H   0  0  0  0  0  0  0  0  0  0  0  0
   -2.8395    4.9049   -2.1568 H   0  0  0  0  0  0  0  0  0  0  0  0
   -1.3204    3.0464   -2.1197 H   0  0  0  0  0  0  0  0  0  0  0  0
   -1.0272   -0.5475   -2.2351 H   0  0  0  0  0  0  0  0  0  0  0  0
   -3.3208   -1.3701   -2.4313 H   0  0  0  0  0  0  0  0  0  0  0  0
   -4.2261    0.8645    2.4350 H   0  0  0  0  0  0  0  0  0  0  0  0
   -6.4523    0.1398    2.4345 H   0  0  0  0  0  0  0  0  0  0  0  0
   -5.0015   -2.1317    1.4480 H   0  0  0  0  0  0  0  0  0  0  0  0
   -6.6004   -2.1025    2.2161 H   0  0  0  0  0  0  0  0  0  0  0  0
   -6.0598   -2.4529   -0.6517 H   0  0  0  0  0  0  0  0  0  0  0  0
   -7.5783   -2.6548    0.2478 H   0  0  0  0  0  0  0  0  0  0  0  0
   -8.3156   -0.6576   -0.5252 H   0  0  0  0  0  0  0  0  0  0  0  0
   -6.8660   -0.5384   -1.5540 H   0  0  0  0  0  0  0  0  0  0  0  0
   -7.5020    1.0864    0.6758 H   0  0  0  0  0  0  0  0  0  0  0  0
   -6.0077    1.1121   -0.2762 H   0  0  0  0  0  0  0  0  0  0  0  0
    5.9025   -2.9600    1.2796 H   0  0  0  0  0  0  0  0  0  0  0  0
    4.5525   -3.4417    0.2539 H   0  0  0  0  0  0  0  0  0  0  0  0
    6.6958   -3.8515   -0.9068 H   0  0  0  0  0  0  0  0  0  0  0  0
    5.7754   -2.5433   -1.7173 H   0  0  0  0  0  0  0  0  0  0  0  0
  1  2  1  0
  2  3  1  0
  3  4  1  0
  4  5  1  0
  5  6  1  0
  6  7  2  0
  7  8  1  0
  8  9  2  0
  9 10  1  0
 10 11  2  0
 10 12  1  0
 12 13  2  0
 13 14  1  0
 14 15  2  0
 15 16  1  0
 16 17  2  0
 17 18  1  0
 17 19  1  0
 19 20  2  0
 13 21  1  0
 21 22  1  0
 22 23  2  0
 23 24  1  0
 24 25  2  0
 25 26  1  0
 26 27  1  0
 27 28  1  0
 28 29  1  0
 29 30  1  0
 30 31  1  0
 31 32  1  0
 26 33  2  0
  5 34  1  0
 34 35  1  0
 35  2  1  0
 11  6  1  0
 20 14  1  0
 33 22  1  0
 21  9  1  0
 32 28  1  0
  1 36  1  0
  1 37  1  0
  1 38  1  0
  3 39  1  0
  3 40  1  0
  4 41  1  0
  4 42  1  0
  7 43  1  0
  8 44  1  0
 15 45  1  0
 16 46  1  0
 19 47  1  0
 20 48  1  0
 23 49  1  0
 24 50  1  0
 27 51  1  0
 28 52  1  0
 29 53  1  0
 29 54  1  0
 30 55  1  0
 30 56  1  0
 31 57  1  0
 31 58  1  0
 32 59  1  0
 32 60  1  0
 34 61  1  0
 34 62  1  0
 35 63  1  0
 35 64  1  0
M  END
$$$$
