@<TRIPOS>MOLECULE
*****
 64 69 0 0 0
SMALL
GASTEIGER

@<TRIPOS>ATOM
      1 C           8.6831   -2.5129   -0.6104 C.3     1  UNL1       -0.0126
      2 N           7.3872   -1.8577   -0.6348 N.3     1  UNL1       -0.3024
      3 C           7.2596   -1.0181    0.5154 C.3     1  UNL1        0.0144
      4 C           5.9323   -0.3091    0.5029 C.3     1  UNL1        0.0263
      5 N           4.8898   -1.3186    0.3505 N.pl3   1  UNL1       -0.3127
      6 C           3.5549   -0.8797    0.2163 C.ar    1  UNL1        0.1238
      7 C           2.4946   -1.7579    0.0658 C.ar    1  UNL1       -0.0196
      8 C           1.2127   -1.2755   -0.0602 C.ar    1  UNL1       -0.0309
      9 C           1.0392    0.0915   -0.0300 C.ar    1  UNL1        0.0942
     10 C           2.0829    0.9731    0.1187 C.ar    1  UNL1        0.1806
     11 N           3.3104    0.4394    0.2368 N.ar    1  UNL1       -0.2111
     12 N           1.5808    2.2211    0.1080 N.ar    1  UNL1       -0.2077
     13 C           0.2339    2.1596   -0.0448 C.ar    1  UNL1        0.1492
     14 C          -0.6952    3.2760   -0.1079 C.ar    1  UNL1        0.0181
     15 C          -0.8811    4.0624    1.0096 C.ar    1  UNL1       -0.0484
     16 C          -1.7445    5.1364    1.0245 C.ar    1  UNL1       -0.0258
     17 C          -2.4647    5.4664   -0.0995 C.ar    1  UNL1        0.1234
     18 F          -3.3239    6.5183   -0.1184 F       1  UNL1       -0.2055
     19 C          -2.2942    4.6935   -1.2284 C.ar    1  UNL1       -0.0258
     20 C          -1.4255    3.6246   -1.2197 C.ar    1  UNL1       -0.0484
     21 N          -0.0737    0.8437   -0.1271 N.ar    1  UNL1       -0.2747
     22 C          -1.4062    0.3383   -0.2942 C.ar    1  UNL1        0.1446
     23 C          -1.7419   -0.3587   -1.4365 C.ar    1  UNL1       -0.0005
     24 C          -3.0398   -0.8155   -1.5306 C.ar    1  UNL1        0.0347
     25 N          -3.9259   -0.5837   -0.5450 N.ar    1  UNL1       -0.2228
     26 C          -3.5948    0.0975    0.5697 C.ar    1  UNL1        0.2172
     27 N          -4.5607    0.3291    1.6031 N.pl3   1  UNL1       -0.3106
     28 C          -5.9169   -0.1467    1.5063 C.3     1  UNL1        0.0233
     29 C          -6.0073   -1.6417    1.3783 C.3     1  UNL1       -0.0345
     30 C          -6.7179   -1.9566    0.1035 C.3     1  UNL1       -0.0513
     31 C          -7.1955   -0.6694   -0.4892 C.3     1  UNL1       -0.0513
     32 C          -6.6562    0.4509    0.3372 C.3     1  UNL1       -0.0345
     33 N          -2.3318    0.5418    0.6610 N.ar    1  UNL1       -0.1967
     34 C           5.3304   -2.6906    0.3518 C.3     1  UNL1        0.0263
     35 C           6.3441   -2.8194   -0.7909 C.3     1  UNL1        0.0144
     36 H           9.3146   -2.0584    0.1812 H       1  UNL1        0.0391
     37 H           8.5458   -3.5884   -0.3329 H       1  UNL1        0.0391
     38 H           9.1388   -2.4508   -1.6151 H       1  UNL1        0.0391
     39 H           7.3912   -1.5898    1.4632 H       1  UNL1        0.0442
     40 H           8.1078   -0.2847    0.4914 H       1  UNL1        0.0442
     41 H           5.8655    0.3628   -0.3642 H       1  UNL1        0.0477
     42 H           5.7177    0.2072    1.4613 H       1  UNL1        0.0477
     43 H           2.6521   -2.8392    0.0442 H       1  UNL1        0.0652
     44 H           0.3409   -1.9149   -0.1809 H       1  UNL1        0.0640
     45 H          -0.3327    3.8494    1.9427 H       1  UNL1        0.0625
     46 H          -1.8882    5.7527    1.9054 H       1  UNL1        0.0646
     47 H          -2.8395    4.9049   -2.1568 H       1  UNL1        0.0646
     48 H          -1.3204    3.0464   -2.1197 H       1  UNL1        0.0625
     49 H          -1.0272   -0.5475   -2.2351 H       1  UNL1        0.0669
     50 H          -3.3208   -1.3701   -2.4313 H       1  UNL1        0.0832
     51 H          -4.2261    0.8645    2.4350 H       1  UNL1        0.1492
     52 H          -6.4523    0.1398    2.4345 H       1  UNL1        0.0498
     53 H          -5.0015   -2.1317    1.4480 H       1  UNL1        0.0283
     54 H          -6.6004   -2.1025    2.2161 H       1  UNL1        0.0283
     55 H          -6.0598   -2.4529   -0.6517 H       1  UNL1        0.0266
     56 H          -7.5783   -2.6548    0.2478 H       1  UNL1        0.0266
     57 H          -8.3156   -0.6576   -0.5252 H       1  UNL1        0.0266
     58 H          -6.8660   -0.5384   -1.5540 H       1  UNL1        0.0266
     59 H          -7.5020    1.0864    0.6758 H       1  UNL1        0.0283
     60 H          -6.0077    1.1121   -0.2762 H       1  UNL1        0.0283
     61 H           5.9025   -2.9600    1.2796 H       1  UNL1        0.0477
     62 H           4.5525   -3.4417    0.2539 H       1  UNL1        0.0477
     63 H           6.6958   -3.8515   -0.9068 H       1  UNL1        0.0442
     64 H           5.7754   -2.5433   -1.7173 H       1  UNL1        0.0442
@<TRIPOS>BOND
     1     1     2    1
     2     2     3    1
     3     3     4    1
     4     4     5    1
     5     5     6    1
     6     6     7   ar
     7     7     8   ar
     8     8     9   ar
     9     9    10   ar
    10    10    11   ar
    11    10    12   ar
    12    12    13   ar
    13    13    14    1
    14    14    15   ar
    15    15    16   ar
    16    16    17   ar
    17    17    18    1
    18    17    19   ar
    19    19    20   ar
    20    13    21   ar
    21    21    22    1
    22    22    23   ar
    23    23    24   ar
    24    24    25   ar
    25    25    26   ar
    26    26    27    1
    27    27    28    1
    28    28    29    1
    29    29    30    1
    30    30    31    1
    31    31    32    1
    32    26    33   ar
    33     5    34    1
    34    34    35    1
    35    35     2    1
    36    11     6   ar
    37    20    14   ar
    38    33    22   ar
    39    21     9   ar
    40    32    28    1
    41     1    36    1
    42     1    37    1
    43     1    38    1
    44     3    39    1
    45     3    40    1
    46     4    41    1
    47     4    42    1
    48     7    43    1
    49     8    44    1
    50    15    45    1
    51    16    46    1
    52    19    47    1
    53    20    48    1
    54    23    49    1
    55    24    50    1
    56    27    51    1
    57    28    52    1
    58    29    53    1
    59    29    54    1
    60    30    55    1
    61    30    56    1
    62    31    57    1
    63    31    58    1
    64    32    59    1
    65    32    60    1
    66    34    61    1
    67    34    62    1
    68    35    63    1
    69    35    64    1
