@<TRIPOS>MOLECULE
*****
 55 57 0 0 0
SMALL
GASTEIGER

@<TRIPOS>ATOM
      1 CL          0.6875    0.0000    0.0000 Cl      1  UNL1       -0.1454
      2 N          -9.5826   -2.0177   -1.1508 N.3     2  UNL2       -0.3267
      3 C          -8.5145   -1.4122   -0.3713 C.3     2  UNL2        0.0123
      4 C          -8.6550    0.0412    0.0343 C.3     2  UNL2       -0.0289
      5 C          -7.7370   -0.3620   -1.0894 C.3     2  UNL2        0.0008
      6 C          -6.2782   -0.2201   -0.8217 C.ar    2  UNL2       -0.0426
      7 C          -5.4029    0.2829   -1.7598 C.ar    2  UNL2       -0.0565
      8 C          -4.0521    0.4054   -1.4882 C.ar    2  UNL2       -0.0402
      9 C          -3.5264    0.0301   -0.2701 C.ar    2  UNL2        0.0337
     10 N          -2.1188    0.1507    0.0314 N.am    2  UNL2       -0.2815
     11 C          -1.5789    1.3140    0.6053 C.2     2  UNL2        0.2483
     12 O          -2.3674    2.2593    0.8519 O.2     2  UNL2       -0.2699
     13 C          -0.1701    1.4070    0.8957 C.ar    2  UNL2        0.0388
     14 C           0.2999    2.5892    1.4649 C.ar    2  UNL2       -0.0495
     15 C           1.6321    2.7444    1.7671 C.ar    2  UNL2       -0.0593
     16 C           2.5435    1.7069    1.5046 C.ar    2  UNL2       -0.0403
     17 C           2.1039    0.5429    0.9483 C.ar    2  UNL2        0.0372
     18 N           2.9734   -0.5236    0.6663 N.am    2  UNL2       -0.2511
     19 C           4.3545   -0.6064    0.8795 C.2     2  UNL2        0.4049
     20 O           4.9486    0.3458    1.3764 O.2     2  UNL2       -0.2261
     21 O           5.1108   -1.7232    0.5566 O.3     2  UNL2       -0.4454
     22 C           6.4644   -1.8984    0.7262 C.3     2  UNL2        0.1191
     23 C           7.3604   -0.9683    0.0321 C.ar    2  UNL2       -0.0103
     24 C           7.7011   -1.2666   -1.2648 C.ar    2  UNL2       -0.0554
     25 C           8.5486   -0.4289   -1.9505 C.ar    2  UNL2       -0.0614
     26 C           9.0868    0.7165   -1.3996 C.ar    2  UNL2       -0.0617
     27 C           8.7109    0.9708   -0.0886 C.ar    2  UNL2       -0.0614
     28 C           7.8680    0.1532    0.6188 C.ar    2  UNL2       -0.0554
     29 C           0.7403    0.4321    0.6587 C.ar    2  UNL2       -0.0283
     30 C          -4.4041   -0.4729    0.6670 C.ar    2  UNL2       -0.0402
     31 C          -5.7569   -0.5964    0.3971 C.ar    2  UNL2       -0.0565
     32 H          -0.6875    0.0000    0.0000 H       1  UNL1        0.1454
     33 H          -9.2016   -2.1048   -2.1405 H       2  UNL2        0.1185
     34 H         -10.3439   -1.2929   -1.2291 H       2  UNL2        0.1185
     35 H          -7.9373   -2.0857    0.2861 H       2  UNL2        0.0464
     36 H          -8.1870    0.3078    1.0089 H       2  UNL2        0.0287
     37 H          -9.5883    0.5834   -0.1935 H       2  UNL2        0.0287
     38 H          -8.0846   -0.0390   -2.0919 H       2  UNL2        0.0364
     39 H          -5.7849    0.5850   -2.7222 H       2  UNL2        0.0621
     40 H          -3.3463    0.7990   -2.2132 H       2  UNL2        0.0636
     41 H          -1.5343   -0.6615   -0.1971 H       2  UNL2        0.1551
     42 H          -0.4125    3.3915    1.6666 H       2  UNL2        0.0625
     43 H           1.9965    3.6601    2.2081 H       2  UNL2        0.0618
     44 H           3.5627    1.9275    1.7776 H       2  UNL2        0.0636
     45 H           2.5460   -1.4078    0.2271 H       2  UNL2        0.1582
     46 H           6.6930   -2.9728    0.4583 H       2  UNL2        0.0749
     47 H           6.7062   -1.8311    1.8202 H       2  UNL2        0.0749
     48 H           7.3097   -2.1638   -1.7685 H       2  UNL2        0.0621
     49 H           8.8225   -0.6653   -2.9874 H       2  UNL2        0.0618
     50 H           9.7586    1.3774   -1.9488 H       2  UNL2        0.0618
     51 H           9.1443    1.8854    0.3422 H       2  UNL2        0.0618
     52 H           7.6317    0.4298    1.6567 H       2  UNL2        0.0621
     53 H           0.4151   -0.4862    0.2236 H       2  UNL2        0.0644
     54 H          -4.0234   -0.7783    1.6373 H       2  UNL2        0.0636
     55 H          -6.4442   -0.9983    1.1520 H       2  UNL2        0.0621
@<TRIPOS>BOND
     1     2     3    1
     2     3     4    1
     3     4     5    1
     4     5     6    1
     5     6     7   ar
     6     7     8   ar
     7     8     9   ar
     8     9    10    1
     9    10    11   am
    10    11    12    2
    11    11    13    1
    12    13    14   ar
    13    14    15   ar
    14    15    16   ar
    15    16    17   ar
    16    17    18    1
    17    18    19   am
    18    19    20    2
    19    19    21    1
    20    21    22    1
    21    22    23    1
    22    23    24   ar
    23    24    25   ar
    24    25    26   ar
    25    26    27   ar
    26    27    28   ar
    27    17    29   ar
    28     9    30   ar
    29    30    31   ar
    30     5     3    1
    31    31     6   ar
    32    29    13   ar
    33    28    23   ar
    34     1    32    1
    35     2    33    1
    36     2    34    1
    37     3    35    1
    38     4    36    1
    39     4    37    1
    40     5    38    1
    41     7    39    1
    42     8    40    1
    43    10    41    1
    44    14    42    1
    45    15    43    1
    46    16    44    1
    47    18    45    1
    48    22    46    1
    49    22    47    1
    50    24    48    1
    51    25    49    1
    52    26    50    1
    53    27    51    1
    54    28    52    1
    55    29    53    1
    56    30    54    1
    57    31    55    1
