
     RDKit          3D

 55 57  0  0  0  0  0  0  0  0999 V2000
    0.6875    0.0000    0.0000 Cl  0  0  0  0  0  0  0  0  0  0  0  0
   -9.5826   -2.0177   -1.1508 N   0  0  0  0  0  0  0  0  0  0  0  0
   -8.5145   -1.4122   -0.3713 C   0  0  2  0  0  0  0  0  0  0  0  0
   -8.6550    0.0412    0.0343 C   0  0  0  0  0  0  0  0  0  0  0  0
   -7.7370   -0.3620   -1.0894 C   0  0  1  0  0  0  0  0  0  0  0  0
   -6.2782   -0.2201   -0.8217 C   0  0  0  0  0  0  0  0  0  0  0  0
   -5.4029    0.2829   -1.7598 C   0  0  0  0  0  0  0  0  0  0  0  0
   -4.0521    0.4054   -1.4882 C   0  0  0  0  0  0  0  0  0  0  0  0
   -3.5264    0.0301   -0.2701 C   0  0  0  0  0  0  0  0  0  0  0  0
   -2.1188    0.1507    0.0314 N   0  0  0  0  0  0  0  0  0  0  0  0
   -1.5789    1.3140    0.6053 C   0  0  0  0  0  0  0  0  0  0  0  0
   -2.3674    2.2593    0.8519 O   0  0  0  0  0  0  0  0  0  0  0  0
   -0.1701    1.4070    0.8957 C   0  0  0  0  0  0  0  0  0  0  0  0
    0.2999    2.5892    1.4649 C   0  0  0  0  0  0  0  0  0  0  0  0
    1.6321    2.7444    1.7671 C   0  0  0  0  0  0  0  0  0  0  0  0
    2.5435    1.7069    1.5046 C   0  0  0  0  0  0  0  0  0  0  0  0
    2.1039    0.5429    0.9483 C   0  0  0  0  0  0  0  0  0  0  0  0
    2.9734   -0.5236    0.6663 N   0  0  0  0  0  0  0  0  0  0  0  0
    4.3545   -0.6064    0.8795 C   0  0  0  0  0  0  0  0  0  0  0  0
    4.9486    0.3458    1.3764 O   0  0  0  0  0  0  0  0  0  0  0  0
    5.1108   -1.7232    0.5566 O   0  0  0  0  0  0  0  0  0  0  0  0
    6.4644   -1.8984    0.7262 C   0  0  0  0  0  0  0  0  0  0  0  0
    7.3604   -0.9683    0.0321 C   0  0  0  0  0  0  0  0  0  0  0  0
    7.7011   -1.2666   -1.2648 C   0  0  0  0  0  0  0  0  0  0  0  0
    8.5486   -0.4289   -1.9505 C   0  0  0  0  0  0  0  0  0  0  0  0
    9.0868    0.7165   -1.3996 C   0  0  0  0  0  0  0  0  0  0  0  0
    8.7109    0.9708   -0.0886 C   0  0  0  0  0  0  0  0  0  0  0  0
    7.8680    0.1532    0.6188 C   0  0  0  0  0  0  0  0  0  0  0  0
    0.7403    0.4321    0.6587 C   0  0  0  0  0  0  0  0  0  0  0  0
   -4.4041   -0.4729    0.6670 C   0  0  0  0  0  0  0  0  0  0  0  0
   -5.7569   -0.5964    0.3971 C   0  0  0  0  0  0  0  0  0  0  0  0
   -0.6875    0.0000    0.0000 H   0  0  0  0  0  0  0  0  0  0  0  0
   -9.2016   -2.1048   -2.1405 H   0  0  0  0  0  0  0  0  0  0  0  0
  -10.3439   -1.2929   -1.2291 H   0  0  0  0  0  0  0  0  0  0  0  0
   -7.9373   -2.0857    0.2861 H   0  0  0  0  0  0  0  0  0  0  0  0
   -8.1870    0.3078    1.0089 H   0  0  0  0  0  0  0  0  0  0  0  0
   -9.5883    0.5834   -0.1935 H   0  0  0  0  0  0  0  0  0  0  0  0
   -8.0846   -0.0390   -2.0919 H   0  0  0  0  0  0  0  0  0  0  0  0
   -5.7849    0.5850   -2.7222 H   0  0  0  0  0  0  0  0  0  0  0  0
   -3.3463    0.7990   -2.2132 H   0  0  0  0  0  0  0  0  0  0  0  0
   -1.5343   -0.6615   -0.1971 H   0  0  0  0  0  0  0  0  0  0  0  0
   -0.4125    3.3915    1.6666 H   0  0  0  0  0  0  0  0  0  0  0  0
    1.9965    3.6601    2.2081 H   0  0  0  0  0  0  0  0  0  0  0  0
    3.5627    1.9275    1.7776 H   0  0  0  0  0  0  0  0  0  0  0  0
    2.5460   -1.4078    0.2271 H   0  0  0  0  0  0  0  0  0  0  0  0
    6.6930   -2.9728    0.4583 H   0  0  0  0  0  0  0  0  0  0  0  0
    6.7062   -1.8311    1.8202 H   0  0  0  0  0  0  0  0  0  0  0  0
    7.3097   -2.1638   -1.7685 H   0  0  0  0  0  0  0  0  0  0  0  0
    8.8225   -0.6653   -2.9874 H   0  0  0  0  0  0  0  0  0  0  0  0
    9.7586    1.3774   -1.9488 H   0  0  0  0  0  0  0  0  0  0  0  0
    9.1443    1.8854    0.3422 H   0  0  0  0  0  0  0  0  0  0  0  0
    7.6317    0.4298    1.6567 H   0  0  0  0  0  0  0  0  0  0  0  0
    0.4151   -0.4862    0.2236 H   0  0  0  0  0  0  0  0  0  0  0  0
   -4.0234   -0.7783    1.6373 H   0  0  0  0  0  0  0  0  0  0  0  0
   -6.4442   -0.9983    1.1520 H   0  0  0  0  0  0  0  0  0  0  0  0
  2  3  1  0
  3  4  1  0
  4  5  1  0
  5  6  1  0
  6  7  2  0
  7  8  1  0
  8  9  2  0
  9 10  1  0
 10 11  1  0
 11 12  2  0
 11 13  1  0
 13 14  2  0
 14 15  1  0
 15 16  2  0
 16 17  1  0
 17 18  1  0
 18 19  1  0
 19 20  2  0
 19 21  1  0
 21 22  1  0
 22 23  1  0
 23 24  2  0
 24 25  1  0
 25 26  2  0
 26 27  1  0
 27 28  2  0
 17 29  2  0
  9 30  1  0
 30 31  2  0
  5  3  1  0
 31  6  1  0
 29 13  1  0
 28 23  1  0
  1 32  1  0
  2 33  1  0
  2 34  1  0
  3 35  1  1
  4 36  1  0
  4 37  1  0
  5 38  1  6
  7 39  1  0
  8 40  1  0
 10 41  1  0
 14 42  1  0
 15 43  1  0
 16 44  1  0
 18 45  1  0
 22 46  1  0
 22 47  1  0
 24 48  1  0
 25 49  1  0
 26 50  1  0
 27 51  1  0
 28 52  1  0
 29 53  1  0
 30 54  1  0
 31 55  1  0
M  END
$$$$
