@<TRIPOS>MOLECULE
*****
 53 54 0 0 0
SMALL
GASTEIGER

@<TRIPOS>ATOM
      1 C           0.2369   -4.6292    1.1650 C.3     1  UNL1       -0.0306
      2 C           1.2263   -4.0929    0.1898 C.3     1  UNL1        0.0900
      3 O           1.3223   -2.7089    0.0988 O.3     1  UNL1       -0.4616
      4 C           0.3537   -1.8296   -0.2416 C.2     1  UNL1        0.3376
      5 O          -0.1389   -2.9756   -0.2799 O.2     1  UNL1       -0.2452
      6 C           0.2650   -0.3935   -0.3875 C.2     1  UNL1        0.0677
      7 C           1.2722    0.4088   -0.1781 C.2     1  UNL1        0.0448
      8 C           2.6618    0.0349    0.2364 C.3     1  UNL1        0.0861
      9 O           3.5763    0.4415   -0.7035 O.3     1  UNL1       -0.3727
     10 C           4.8544    0.1019   -0.3599 C.3     1  UNL1        0.0604
     11 C           5.3274    0.6951    0.9378 C.3     1  UNL1        0.0167
     12 N           5.2960    2.1600    0.8976 N.3     1  UNL1       -0.3279
     13 N           0.9623    1.7568   -0.3773 N.pl3   1  UNL1       -0.3187
     14 C          -0.2775    2.3075   -0.7652 C.2     1  UNL1        0.0157
     15 C          -0.5094    3.7673   -0.9524 C.3     1  UNL1       -0.0260
     16 C          -1.2628    1.4526   -0.9642 C.2     1  UNL1        0.0652
     17 C          -1.1042   -0.0143   -0.7966 C.3     1  UNL1        0.0521
     18 C          -2.1696   -0.5855    0.0708 C.ar    1  UNL1       -0.0168
     19 C          -2.8920   -1.7348   -0.1850 C.ar    1  UNL1       -0.0563
     20 C          -3.8657   -2.1878    0.6806 C.ar    1  UNL1       -0.0614
     21 C          -4.1667   -1.5098    1.8516 C.ar    1  UNL1       -0.0604
     22 C          -3.4481   -0.3519    2.1222 C.ar    1  UNL1       -0.0431
     23 C          -2.4806    0.0777    1.2394 C.ar    1  UNL1        0.0450
     24 CL         -1.6823    1.5539    1.7493 Cl      1  UNL1       -0.0832
     25 C          -2.6031    1.8705   -1.3684 C.2     1  UNL1        0.3373
     26 O          -3.6148    1.1557   -1.5865 O.2     1  UNL1       -0.2452
     27 O          -2.9961    3.1587   -1.5853 O.3     1  UNL1       -0.4646
     28 C          -4.3511    3.3954   -1.9783 C.3     1  UNL1        0.0820
     29 H          -0.6059   -5.0970    0.5766 H       1  UNL1        0.0262
     30 H          -0.2118   -3.9150    1.8573 H       1  UNL1        0.0262
     31 H           0.6583   -5.4474    1.8047 H       1  UNL1        0.0262
     32 H           2.2396   -4.4364    0.5581 H       1  UNL1        0.0695
     33 H           1.1494   -4.6139   -0.8081 H       1  UNL1        0.0695
     34 H           2.7632   -0.9734    0.6205 H       1  UNL1        0.0623
     35 H           2.8443    0.7012    1.1366 H       1  UNL1        0.0623
     36 H           5.5911    0.3654   -1.1652 H       1  UNL1        0.0572
     37 H           4.9375   -0.9991   -0.2537 H       1  UNL1        0.0572
     38 H           4.7164    0.3264    1.7760 H       1  UNL1        0.0444
     39 H           6.3710    0.3609    1.1390 H       1  UNL1        0.0444
     40 H           6.2523    2.4429    0.5258 H       1  UNL1        0.1183
     41 H           4.5559    2.3826    0.1885 H       1  UNL1        0.1183
     42 H           1.7358    2.4711   -0.2248 H       1  UNL1        0.1516
     43 H          -0.8298    3.9296   -2.0031 H       1  UNL1        0.0290
     44 H           0.4381    4.3026   -0.7482 H       1  UNL1        0.0290
     45 H          -1.3124    4.1252   -0.2776 H       1  UNL1        0.0290
     46 H          -1.2517   -0.4749   -1.8021 H       1  UNL1        0.0452
     47 H          -2.6588   -2.2614   -1.0962 H       1  UNL1        0.0621
     48 H          -4.3957   -3.1006    0.4161 H       1  UNL1        0.0618
     49 H          -4.9403   -1.9200    2.4838 H       1  UNL1        0.0618
     50 H          -3.7165    0.1429    3.0451 H       1  UNL1        0.0632
     51 H          -4.4605    4.4724   -2.1014 H       1  UNL1        0.0661
     52 H          -4.6000    2.9072   -2.9440 H       1  UNL1        0.0661
     53 H          -5.0613    2.9844   -1.2334 H       1  UNL1        0.0661
@<TRIPOS>BOND
     1     1     2    1
     2     2     3    1
     3     3     4    1
     4     4     5    2
     5     4     6    1
     6     6     7    2
     7     7     8    1
     8     8     9    1
     9     9    10    1
    10    10    11    1
    11    11    12    1
    12     7    13    1
    13    13    14    1
    14    14    15    1
    15    14    16    2
    16    16    17    1
    17    17    18    1
    18    18    19   ar
    19    19    20   ar
    20    20    21   ar
    21    21    22   ar
    22    22    23   ar
    23    23    24    1
    24    16    25    1
    25    25    26    2
    26    25    27    1
    27    27    28    1
    28    17     6    1
    29    23    18   ar
    30     1    29    1
    31     1    30    1
    32     1    31    1
    33     2    32    1
    34     2    33    1
    35     8    34    1
    36     8    35    1
    37    10    36    1
    38    10    37    1
    39    11    38    1
    40    11    39    1
    41    12    40    1
    42    12    41    1
    43    13    42    1
    44    15    43    1
    45    15    44    1
    46    15    45    1
    47    17    46    1
    48    19    47    1
    49    20    48    1
    50    21    49    1
    51    22    50    1
    52    28    51    1
    53    28    52    1
    54    28    53    1
