
     RDKit          3D

 76 81  0  0  0  0  0  0  0  0999 V2000
   -1.7146    3.2510   -1.4943 C   0  0  0  0  0  0  0  0  0  0  0  0
   -2.1465    3.4766   -0.0546 C   0  0  0  0  0  0  0  0  0  0  0  0
   -3.4275    2.7536    0.1583 C   0  0  0  0  0  0  0  0  0  0  0  0
   -4.6482    3.4204    0.1395 C   0  0  0  0  0  0  0  0  0  0  0  0
   -5.7946    2.6814    0.3233 C   0  0  0  0  0  0  0  0  0  0  0  0
   -5.7956    1.2982    0.5265 C   0  0  0  0  0  0  0  0  0  0  0  0
   -7.0524    0.6925    0.6710 N   0  0  0  0  0  0  0  0  0  0  0  0
   -7.3316   -0.6628    0.9657 C   0  0  0  0  0  0  0  0  0  0  0  0
   -6.3856   -1.4400    1.1342 O   0  0  0  0  0  0  0  0  0  0  0  0
   -8.6896   -1.2080    1.0861 C   0  0  0  0  0  0  0  0  0  0  0  0
   -8.8823   -2.4741    1.5984 C   0  0  0  0  0  0  0  0  0  0  0  0
  -10.1533   -3.0521    1.6994 C   0  0  0  0  0  0  0  0  0  0  0  0
  -11.2669   -2.3655    1.2855 C   0  0  0  0  0  0  0  0  0  0  0  0
  -11.0838   -1.0995    0.7731 C   0  0  0  0  0  0  0  0  0  0  0  0
   -9.8195   -0.5370    0.6785 C   0  0  0  0  0  0  0  0  0  0  0  0
  -12.3708   -0.6390    0.4340 O   0  0  0  0  0  0  0  0  0  0  0  0
  -13.1837   -1.8076    0.1844 C   0  0  0  0  0  0  0  0  0  0  0  0
  -12.7669   -2.2588   -1.0617 F   0  0  0  0  0  0  0  0  0  0  0  0
  -14.5106   -1.5710    0.2540 F   0  0  0  0  0  0  0  0  0  0  0  0
  -12.6590   -2.6243    1.2372 O   0  0  0  0  0  0  0  0  0  0  0  0
   -4.5661    0.7089    0.5351 C   0  0  0  0  0  0  0  0  0  0  0  0
   -3.3828    1.3981    0.3573 C   0  0  0  0  0  0  0  0  0  0  0  0
   -2.0939    0.7396    0.3801 C   0  0  0  0  0  0  0  0  0  0  0  0
   -1.6433    0.0938   -0.6080 O   0  0  0  0  0  0  0  0  0  0  0  0
   -1.3103    0.8237    1.5539 N   0  0  0  0  0  0  0  0  0  0  0  0
   -0.0126    0.2708    1.7289 C   0  0  0  0  0  0  0  0  0  0  0  0
    0.4561    0.0944    3.0184 C   0  0  0  0  0  0  0  0  0  0  0  0
    1.7138   -0.3629    3.2188 N   0  0  0  0  0  0  0  0  0  0  0  0
    2.5480   -0.6574    2.2260 C   0  0  0  0  0  0  0  0  0  0  0  0
    3.8478   -1.1529    2.3924 N   0  0  0  0  0  0  0  0  0  0  0  0
    4.7990   -1.0852    1.3704 C   0  0  0  0  0  0  0  0  0  0  0  0
    4.7053   -0.1403    0.3873 C   0  0  0  0  0  0  0  0  0  0  0  0
    5.6598   -0.1097   -0.5944 C   0  0  0  0  0  0  0  0  0  0  0  0
    6.7211   -0.9949   -0.6385 C   0  0  0  0  0  0  0  0  0  0  0  0
    7.6932   -0.8792   -1.6917 N   0  0  0  0  0  0  0  0  0  0  0  0
    8.6540   -1.9003   -1.9729 C   0  0  0  0  0  0  0  0  0  0  0  0
   10.0217   -1.3526   -1.6328 C   0  0  0  0  0  0  0  0  0  0  0  0
   10.0536    0.0629   -1.8236 N   0  0  0  0  0  0  0  0  0  0  0  0
   11.3753    0.5654   -2.1296 C   0  0  0  0  0  0  0  0  0  0  0  0
    9.1735    0.5380   -2.8827 C   0  0  0  0  0  0  0  0  0  0  0  0
    7.7148    0.3258   -2.4951 C   0  0  0  0  0  0  0  0  0  0  0  0
    6.8069   -1.9397    0.3513 C   0  0  0  0  0  0  0  0  0  0  0  0
    5.8474   -1.9730    1.3412 C   0  0  0  0  0  0  0  0  0  0  0  0
    2.0840   -0.4835    0.9545 N   0  0  0  0  0  0  0  0  0  0  0  0
    0.8465   -0.0353    0.7140 C   0  0  0  0  0  0  0  0  0  0  0  0
   -2.1090    2.3473   -1.9535 H   0  0  0  0  0  0  0  0  0  0  0  0
   -2.1078    4.1010   -2.1070 H   0  0  0  0  0  0  0  0  0  0  0  0
   -0.6161    3.2593   -1.5932 H   0  0  0  0  0  0  0  0  0  0  0  0
   -1.3542    3.2012    0.6644 H   0  0  0  0  0  0  0  0  0  0  0  0
   -2.3234    4.5678    0.0607 H   0  0  0  0  0  0  0  0  0  0  0  0
   -4.6871    4.4902   -0.0190 H   0  0  0  0  0  0  0  0  0  0  0  0
   -6.7312    3.2288    0.3076 H   0  0  0  0  0  0  0  0  0  0  0  0
   -7.9504    1.2721    0.5597 H   0  0  0  0  0  0  0  0  0  0  0  0
   -8.0250   -3.0279    1.9303 H   0  0  0  0  0  0  0  0  0  0  0  0
  -10.2765   -4.0281    2.0971 H   0  0  0  0  0  0  0  0  0  0  0  0
   -9.7156    0.4515    0.2709 H   0  0  0  0  0  0  0  0  0  0  0  0
   -4.4984   -0.3520    0.6905 H   0  0  0  0  0  0  0  0  0  0  0  0
   -1.7702    1.3590    2.3581 H   0  0  0  0  0  0  0  0  0  0  0  0
   -0.1911    0.3230    3.8636 H   0  0  0  0  0  0  0  0  0  0  0  0
    4.1198   -1.5879    3.3089 H   0  0  0  0  0  0  0  0  0  0  0  0
    3.9333    0.6115    0.3249 H   0  0  0  0  0  0  0  0  0  0  0  0
    5.5784    0.6465   -1.3785 H   0  0  0  0  0  0  0  0  0  0  0  0
    8.6456   -2.0587   -3.0912 H   0  0  0  0  0  0  0  0  0  0  0  0
    8.4436   -2.8738   -1.5306 H   0  0  0  0  0  0  0  0  0  0  0  0
   10.8272   -1.8705   -2.1960 H   0  0  0  0  0  0  0  0  0  0  0  0
   10.1995   -1.5809   -0.5501 H   0  0  0  0  0  0  0  0  0  0  0  0
   12.1270    0.2937   -1.3763 H   0  0  0  0  0  0  0  0  0  0  0  0
   11.3336    1.6880   -2.1506 H   0  0  0  0  0  0  0  0  0  0  0  0
   11.6540    0.1965   -3.1488 H   0  0  0  0  0  0  0  0  0  0  0  0
    9.4054    0.1169   -3.8638 H   0  0  0  0  0  0  0  0  0  0  0  0
    9.3259    1.6336   -2.9517 H   0  0  0  0  0  0  0  0  0  0  0  0
    7.0911    0.2531   -3.3915 H   0  0  0  0  0  0  0  0  0  0  0  0
    7.4488    1.1907   -1.8401 H   0  0  0  0  0  0  0  0  0  0  0  0
    7.6385   -2.6397    0.3250 H   0  0  0  0  0  0  0  0  0  0  0  0
    5.9804   -2.7524    2.0976 H   0  0  0  0  0  0  0  0  0  0  0  0
    0.5741    0.0752   -0.3161 H   0  0  0  0  0  0  0  0  0  0  0  0
  1  2  1  0
  2  3  1  0
  3  4  2  0
  4  5  1  0
  5  6  2  0
  6  7  1  0
  7  8  1  0
  8  9  2  0
  8 10  1  0
 10 11  2  0
 11 12  1  0
 12 13  2  0
 13 14  1  0
 14 15  2  0
 14 16  1  0
 16 17  1  0
 17 18  1  0
 17 19  1  0
 17 20  1  0
  6 21  1  0
 21 22  2  0
 22 23  1  0
 23 24  2  0
 23 25  1  0
 25 26  1  0
 26 27  2  0
 27 28  1  0
 28 29  2  0
 29 30  1  0
 30 31  1  0
 31 32  2  0
 32 33  1  0
 33 34  2  0
 34 35  1  0
 35 36  1  0
 36 37  1  0
 37 38  1  0
 38 39  1  0
 38 40  1  0
 40 41  1  0
 34 42  1  0
 42 43  2  0
 29 44  1  0
 44 45  2  0
 22  3  1  0
 45 26  1  0
 15 10  1  0
 43 31  1  0
 20 13  1  0
 41 35  1  0
  1 46  1  0
  1 47  1  0
  1 48  1  0
  2 49  1  0
  2 50  1  0
  4 51  1  0
  5 52  1  0
  7 53  1  0
 11 54  1  0
 12 55  1  0
 15 56  1  0
 21 57  1  0
 25 58  1  0
 27 59  1  0
 30 60  1  0
 32 61  1  0
 33 62  1  0
 36 63  1  0
 36 64  1  0
 37 65  1  0
 37 66  1  0
 39 67  1  0
 39 68  1  0
 39 69  1  0
 40 70  1  0
 40 71  1  0
 41 72  1  0
 41 73  1  0
 42 74  1  0
 43 75  1  0
 45 76  1  0
M  END
$$$$
