@<TRIPOS>MOLECULE
*****
 76 81 0 0 0
SMALL
GASTEIGER

@<TRIPOS>ATOM
      1 C          -1.7146    3.2510   -1.4943 C.3     1  UNL1       -0.0612
      2 C          -2.1465    3.4766   -0.0546 C.3     1  UNL1       -0.0298
      3 C          -3.4275    2.7536    0.1583 C.ar    1  UNL1       -0.0354
      4 C          -4.6482    3.4204    0.1395 C.ar    1  UNL1       -0.0561
      5 C          -5.7946    2.6814    0.3233 C.ar    1  UNL1       -0.0402
      6 C          -5.7956    1.2982    0.5265 C.ar    1  UNL1        0.0344
      7 N          -7.0524    0.6925    0.6710 N.am    1  UNL1       -0.2815
      8 C          -7.3316   -0.6628    0.9657 C.2     1  UNL1        0.2484
      9 O          -6.3856   -1.4400    1.1342 O.2     1  UNL1       -0.2699
     10 C          -8.6896   -1.2080    1.0861 C.ar    1  UNL1        0.0407
     11 C          -8.8823   -2.4741    1.5984 C.ar    1  UNL1       -0.0459
     12 C         -10.1533   -3.0521    1.6994 C.ar    1  UNL1       -0.0152
     13 C         -11.2669   -2.3655    1.2855 C.ar    1  UNL1        0.1727
     14 C         -11.0838   -1.0995    0.7731 C.ar    1  UNL1        0.1734
     15 C          -9.8195   -0.5370    0.6785 C.ar    1  UNL1       -0.0038
     16 O         -12.3708   -0.6390    0.4340 O.3     1  UNL1       -0.3954
     17 C         -13.1837   -1.8076    0.1844 C.3     1  UNL1        0.5891
     18 F         -12.7669   -2.2588   -1.0617 F       1  UNL1       -0.1252
     19 F         -14.5106   -1.5710    0.2540 F       1  UNL1       -0.1252
     20 O         -12.6590   -2.6243    1.2372 O.3     1  UNL1       -0.3955
     21 C          -4.5661    0.7089    0.5351 C.ar    1  UNL1       -0.0281
     22 C          -3.3828    1.3981    0.3573 C.ar    1  UNL1        0.0419
     23 C          -2.0939    0.7396    0.3801 C.2     1  UNL1        0.2486
     24 O          -1.6433    0.0938   -0.6080 O.2     1  UNL1       -0.2698
     25 N          -1.3103    0.8237    1.5539 N.am    1  UNL1       -0.2790
     26 C          -0.0126    0.2708    1.7289 C.ar    1  UNL1        0.0704
     27 C           0.4561    0.0944    3.0184 C.ar    1  UNL1        0.0539
     28 N           1.7138   -0.3629    3.2188 N.ar    1  UNL1       -0.2208
     29 C           2.5480   -0.6574    2.2260 C.ar    1  UNL1        0.2195
     30 N           3.8478   -1.1529    2.3924 N.pl3   1  UNL1       -0.2836
     31 C           4.7990   -1.0852    1.3704 C.ar    1  UNL1        0.0337
     32 C           4.7053   -0.1403    0.3873 C.ar    1  UNL1       -0.0387
     33 C           5.6598   -0.1097   -0.5944 C.ar    1  UNL1       -0.0389
     34 C           6.7211   -0.9949   -0.6385 C.ar    1  UNL1        0.0299
     35 N           7.6932   -0.8792   -1.6917 N.pl3   1  UNL1       -0.3275
     36 C           8.6540   -1.9003   -1.9729 C.3     1  UNL1        0.0250
     37 C          10.0217   -1.3526   -1.6328 C.3     1  UNL1        0.0144
     38 N          10.0536    0.0629   -1.8236 N.3     1  UNL1       -0.3024
     39 C          11.3753    0.5654   -2.1296 C.3     1  UNL1       -0.0126
     40 C           9.1735    0.5380   -2.8827 C.3     1  UNL1        0.0144
     41 C           7.7148    0.3258   -2.4951 C.3     1  UNL1        0.0250
     42 C           6.8069   -1.9397    0.3513 C.ar    1  UNL1       -0.0389
     43 C           5.8474   -1.9730    1.3412 C.ar    1  UNL1       -0.0387
     44 N           2.0840   -0.4835    0.9545 N.ar    1  UNL1       -0.2208
     45 C           0.8465   -0.0353    0.7140 C.ar    1  UNL1        0.0539
     46 H          -2.1090    2.3473   -1.9535 H       1  UNL1        0.0233
     47 H          -2.1078    4.1010   -2.1070 H       1  UNL1        0.0233
     48 H          -0.6161    3.2593   -1.5932 H       1  UNL1        0.0233
     49 H          -1.3542    3.2012    0.6644 H       1  UNL1        0.0311
     50 H          -2.3234    4.5678    0.0607 H       1  UNL1        0.0311
     51 H          -4.6871    4.4902   -0.0190 H       1  UNL1        0.0621
     52 H          -6.7312    3.2288    0.3076 H       1  UNL1        0.0636
     53 H          -7.9504    1.2721    0.5597 H       1  UNL1        0.1551
     54 H          -8.0250   -3.0279    1.9303 H       1  UNL1        0.0626
     55 H         -10.2765   -4.0281    2.0971 H       1  UNL1        0.0655
     56 H          -9.7156    0.4515    0.2709 H       1  UNL1        0.0663
     57 H          -4.4984   -0.3520    0.6905 H       1  UNL1        0.0644
     58 H          -1.7702    1.3590    2.3581 H       1  UNL1        0.1552
     59 H          -0.1911    0.3230    3.8636 H       1  UNL1        0.0850
     60 H           4.1198   -1.5879    3.3089 H       1  UNL1        0.1550
     61 H           3.9333    0.6115    0.3249 H       1  UNL1        0.0637
     62 H           5.5784    0.6465   -1.3785 H       1  UNL1        0.0637
     63 H           8.6456   -2.0587   -3.0912 H       1  UNL1        0.0476
     64 H           8.4436   -2.8738   -1.5306 H       1  UNL1        0.0476
     65 H          10.8272   -1.8705   -2.1960 H       1  UNL1        0.0442
     66 H          10.1995   -1.5809   -0.5501 H       1  UNL1        0.0442
     67 H          12.1270    0.2937   -1.3763 H       1  UNL1        0.0391
     68 H          11.3336    1.6880   -2.1506 H       1  UNL1        0.0391
     69 H          11.6540    0.1965   -3.1488 H       1  UNL1        0.0391
     70 H           9.4054    0.1169   -3.8638 H       1  UNL1        0.0442
     71 H           9.3259    1.6336   -2.9517 H       1  UNL1        0.0442
     72 H           7.0911    0.2531   -3.3915 H       1  UNL1        0.0476
     73 H           7.4488    1.1907   -1.8401 H       1  UNL1        0.0476
     74 H           7.6385   -2.6397    0.3250 H       1  UNL1        0.0637
     75 H           5.9804   -2.7524    2.0976 H       1  UNL1        0.0637
     76 H           0.5741    0.0752   -0.3161 H       1  UNL1        0.0850
@<TRIPOS>BOND
     1     1     2    1
     2     2     3    1
     3     3     4   ar
     4     4     5   ar
     5     5     6   ar
     6     6     7    1
     7     7     8   am
     8     8     9    2
     9     8    10    1
    10    10    11   ar
    11    11    12   ar
    12    12    13   ar
    13    13    14   ar
    14    14    15   ar
    15    14    16    1
    16    16    17    1
    17    17    18    1
    18    17    19    1
    19    17    20    1
    20     6    21   ar
    21    21    22   ar
    22    22    23    1
    23    23    24    2
    24    23    25   am
    25    25    26    1
    26    26    27   ar
    27    27    28   ar
    28    28    29   ar
    29    29    30    1
    30    30    31    1
    31    31    32   ar
    32    32    33   ar
    33    33    34   ar
    34    34    35    1
    35    35    36    1
    36    36    37    1
    37    37    38    1
    38    38    39    1
    39    38    40    1
    40    40    41    1
    41    34    42   ar
    42    42    43   ar
    43    29    44   ar
    44    44    45   ar
    45    22     3   ar
    46    45    26   ar
    47    15    10   ar
    48    43    31   ar
    49    20    13    1
    50    41    35    1
    51     1    46    1
    52     1    47    1
    53     1    48    1
    54     2    49    1
    55     2    50    1
    56     4    51    1
    57     5    52    1
    58     7    53    1
    59    11    54    1
    60    12    55    1
    61    15    56    1
    62    21    57    1
    63    25    58    1
    64    27    59    1
    65    30    60    1
    66    32    61    1
    67    33    62    1
    68    36    63    1
    69    36    64    1
    70    37    65    1
    71    37    66    1
    72    39    67    1
    73    39    68    1
    74    39    69    1
    75    40    70    1
    76    40    71    1
    77    41    72    1
    78    41    73    1
    79    42    74    1
    80    43    75    1
    81    45    76    1
