
     RDKit          3D

 52 56  0  0  0  0  0  0  0  0999 V2000
    5.4363   -3.0326   -2.1366 C   0  0  0  0  0  0  0  0  0  0  0  0
    4.7110   -1.8643   -1.5641 C   0  0  0  0  0  0  0  0  0  0  0  0
    4.5371   -0.8272   -2.2364 O   0  0  0  0  0  0  0  0  0  0  0  0
    4.2025   -1.9091   -0.2384 N   0  0  0  0  0  0  0  0  0  0  0  0
    3.5097   -0.8596    0.3797 C   0  0  0  0  0  0  0  0  0  0  0  0
    3.9605    0.2009    1.1366 C   0  0  0  0  0  0  0  0  0  0  0  0
    2.9503    0.9652    1.5284 N   0  0  0  0  0  0  0  0  0  0  0  0
    3.0251    2.1698    2.3379 C   0  0  0  0  0  0  0  0  0  0  0  0
    1.7930    0.4365    1.0436 C   0  0  0  0  0  0  0  0  0  0  0  0
    2.1204   -0.6859    0.3356 C   0  0  0  0  0  0  0  0  0  0  0  0
    0.8947   -1.2662   -0.1827 C   0  0  0  0  0  0  0  0  0  0  0  0
    0.8618   -2.3154   -0.8827 O   0  0  0  0  0  0  0  0  0  0  0  0
   -0.1840   -0.4495    0.2424 N   0  0  0  0  0  0  0  0  0  0  0  0
   -1.5461   -0.7714   -0.0817 C   0  0  0  0  0  0  0  0  0  0  0  0
   -2.0750   -0.3105   -1.2617 C   0  0  0  0  0  0  0  0  0  0  0  0
   -3.3889   -0.5961   -1.6085 C   0  0  0  0  0  0  0  0  0  0  0  0
   -3.9285   -0.0915   -2.8743 C   0  0  0  0  0  0  0  0  0  0  0  0
   -4.1699   -1.3503   -0.7591 C   0  0  0  0  0  0  0  0  0  0  0  0
   -5.4536   -1.7787   -0.8283 N   0  0  0  0  0  0  0  0  0  0  0  0
   -5.6647   -2.4686    0.2791 N   0  0  0  0  0  0  0  0  0  0  0  0
   -4.5787   -2.4919    1.0343 N   0  0  0  0  0  0  0  0  0  0  0  0
   -4.4670   -3.1610    2.3160 C   0  0  0  0  0  0  0  0  0  0  0  0
   -3.6044   -1.7947    0.4148 C   0  0  0  0  0  0  0  0  0  0  0  0
   -2.3142   -1.5038    0.7366 N   0  0  0  0  0  0  0  0  0  0  0  0
    0.3364    0.6282    0.9950 C   0  0  0  0  0  0  0  0  0  0  0  0
   -0.0383    1.9822    0.5317 C   0  0  0  0  0  0  0  0  0  0  0  0
    0.0225    2.3969   -0.7669 C   0  0  0  0  0  0  0  0  0  0  0  0
   -0.3428    3.6813   -1.1374 C   0  0  0  0  0  0  0  0  0  0  0  0
   -0.7785    4.5695   -0.1857 C   0  0  0  0  0  0  0  0  0  0  0  0
   -1.2567    6.2101   -0.5828 Cl  0  0  0  0  0  0  0  0  0  0  0  0
   -0.8545    4.1896    1.1375 C   0  0  0  0  0  0  0  0  0  0  0  0
   -0.4813    2.9021    1.4625 C   0  0  0  0  0  0  0  0  0  0  0  0
    6.2063   -2.7309   -2.8707 H   0  0  0  0  0  0  0  0  0  0  0  0
    5.9807   -3.5489   -1.3053 H   0  0  0  0  0  0  0  0  0  0  0  0
    4.7607   -3.7727   -2.5874 H   0  0  0  0  0  0  0  0  0  0  0  0
    4.3749   -2.8062    0.2884 H   0  0  0  0  0  0  0  0  0  0  0  0
    5.0242    0.3372    1.3496 H   0  0  0  0  0  0  0  0  0  0  0  0
    2.5434    3.0283    1.8049 H   0  0  0  0  0  0  0  0  0  0  0  0
    2.6141    2.0135    3.3419 H   0  0  0  0  0  0  0  0  0  0  0  0
    4.1014    2.4616    2.4359 H   0  0  0  0  0  0  0  0  0  0  0  0
   -1.5038    0.2701   -1.9441 H   0  0  0  0  0  0  0  0  0  0  0  0
   -4.2179    0.9971   -2.8081 H   0  0  0  0  0  0  0  0  0  0  0  0
   -3.1801   -0.1752   -3.7158 H   0  0  0  0  0  0  0  0  0  0  0  0
   -4.8214   -0.6290   -3.2254 H   0  0  0  0  0  0  0  0  0  0  0  0
   -4.6027   -4.2636    2.1683 H   0  0  0  0  0  0  0  0  0  0  0  0
   -3.4866   -2.9489    2.7780 H   0  0  0  0  0  0  0  0  0  0  0  0
   -5.3159   -2.8137    2.9375 H   0  0  0  0  0  0  0  0  0  0  0  0
   -0.0202    0.5080    2.0468 H   0  0  0  0  0  0  0  0  0  0  0  0
    0.3620    1.7156   -1.5269 H   0  0  0  0  0  0  0  0  0  0  0  0
   -0.3014    4.0283   -2.1614 H   0  0  0  0  0  0  0  0  0  0  0  0
   -1.2029    4.8993    1.8998 H   0  0  0  0  0  0  0  0  0  0  0  0
   -0.5494    2.6259    2.5096 H   0  0  0  0  0  0  0  0  0  0  0  0
  1  2  1  0
  2  3  2  0
  2  4  1  0
  4  5  1  0
  5  6  2  0
  6  7  1  0
  7  8  1  0
  7  9  1  0
  9 10  2  0
 10 11  1  0
 11 12  2  0
 11 13  1  0
 13 14  1  0
 14 15  2  0
 15 16  1  0
 16 17  1  0
 16 18  2  0
 18 19  1  0
 19 20  2  0
 20 21  1  0
 21 22  1  0
 21 23  1  0
 23 24  2  0
 13 25  1  0
 25 26  1  0
 26 27  2  0
 27 28  1  0
 28 29  2  0
 29 30  1  0
 29 31  1  0
 31 32  2  0
 10  5  1  0
 24 14  1  0
 32 26  1  0
 25  9  1  0
 23 18  1  0
  1 33  1  0
  1 34  1  0
  1 35  1  0
  4 36  1  0
  6 37  1  0
  8 38  1  0
  8 39  1  0
  8 40  1  0
 15 41  1  0
 17 42  1  0
 17 43  1  0
 17 44  1  0
 22 45  1  0
 22 46  1  0
 22 47  1  0
 25 48  1  0
 27 49  1  0
 28 50  1  0
 31 51  1  0
 32 52  1  0
M  END
$$$$
