@<TRIPOS>MOLECULE
*****
 52 56 0 0 0
SMALL
GASTEIGER

@<TRIPOS>ATOM
      1 C           5.4363   -3.0326   -2.1366 C.3     1  UNL1        0.0125
      2 C           4.7110   -1.8643   -1.5641 C.2     1  UNL1        0.2141
      3 O           4.5371   -0.8272   -2.2364 O.2     1  UNL1       -0.2758
      4 N           4.2025   -1.9091   -0.2384 N.am    1  UNL1       -0.2839
      5 C           3.5097   -0.8596    0.3797 C.ar    1  UNL1        0.0637
      6 C           3.9605    0.2009    1.1366 C.ar    1  UNL1        0.0266
      7 N           2.9503    0.9652    1.5284 N.ar    1  UNL1       -0.3492
      8 C           3.0251    2.1698    2.3379 C.3     1  UNL1        0.0117
      9 C           1.7930    0.4365    1.0436 C.ar    1  UNL1        0.0581
     10 C           2.1204   -0.6859    0.3356 C.ar    1  UNL1        0.0813
     11 C           0.8947   -1.2662   -0.1827 C.2     1  UNL1        0.2563
     12 O           0.8618   -2.3154   -0.8827 O.2     1  UNL1       -0.2694
     13 N          -0.1840   -0.4495    0.2424 N.am    1  UNL1       -0.2387
     14 C          -1.5461   -0.7714   -0.0817 C.ar    1  UNL1        0.1313
     15 C          -2.0750   -0.3105   -1.2617 C.ar    1  UNL1       -0.0161
     16 C          -3.3889   -0.5961   -1.6085 C.ar    1  UNL1       -0.0164
     17 C          -3.9285   -0.0915   -2.8743 C.3     1  UNL1       -0.0374
     18 C          -4.1699   -1.3503   -0.7591 C.ar    1  UNL1        0.1345
     19 N          -5.4536   -1.7787   -0.8283 N.ar    1  UNL1       -0.1276
     20 N          -5.6647   -2.4686    0.2791 N.ar    1  UNL1       -0.0635
     21 N          -4.5787   -2.4919    1.0343 N.ar    1  UNL1       -0.2297
     22 C          -4.4670   -3.1610    2.3160 C.3     1  UNL1        0.0341
     23 C          -3.6044   -1.7947    0.4148 C.ar    1  UNL1        0.1803
     24 N          -2.3142   -1.5038    0.7366 N.ar    1  UNL1       -0.2108
     25 C           0.3364    0.6282    0.9950 C.3     1  UNL1        0.0986
     26 C          -0.0383    1.9822    0.5317 C.ar    1  UNL1       -0.0207
     27 C           0.0225    2.3969   -0.7669 C.ar    1  UNL1       -0.0550
     28 C          -0.3428    3.6813   -1.1374 C.ar    1  UNL1       -0.0431
     29 C          -0.7785    4.5695   -0.1857 C.ar    1  UNL1        0.0410
     30 CL         -1.2567    6.2101   -0.5828 Cl      1  UNL1       -0.0835
     31 C          -0.8545    4.1896    1.1375 C.ar    1  UNL1       -0.0431
     32 C          -0.4813    2.9021    1.4625 C.ar    1  UNL1       -0.0550
     33 H           6.2063   -2.7309   -2.8707 H       1  UNL1        0.0323
     34 H           5.9807   -3.5489   -1.3053 H       1  UNL1        0.0323
     35 H           4.7607   -3.7727   -2.5874 H       1  UNL1        0.0323
     36 H           4.3749   -2.8062    0.2884 H       1  UNL1        0.1549
     37 H           5.0242    0.3372    1.3496 H       1  UNL1        0.0828
     38 H           2.5434    3.0283    1.8049 H       1  UNL1        0.0456
     39 H           2.6141    2.0135    3.3419 H       1  UNL1        0.0456
     40 H           4.1014    2.4616    2.4359 H       1  UNL1        0.0456
     41 H          -1.5038    0.2701   -1.9441 H       1  UNL1        0.0655
     42 H          -4.2179    0.9971   -2.8081 H       1  UNL1        0.0278
     43 H          -3.1801   -0.1752   -3.7158 H       1  UNL1        0.0278
     44 H          -4.8214   -0.6290   -3.2254 H       1  UNL1        0.0278
     45 H          -4.6027   -4.2636    2.1683 H       1  UNL1        0.0474
     46 H          -3.4866   -2.9489    2.7780 H       1  UNL1        0.0474
     47 H          -5.3159   -2.8137    2.9375 H       1  UNL1        0.0474
     48 H          -0.0202    0.5080    2.0468 H       1  UNL1        0.0620
     49 H           0.3620    1.7156   -1.5269 H       1  UNL1        0.0621
     50 H          -0.3014    4.0283   -2.1614 H       1  UNL1        0.0632
     51 H          -1.2029    4.8993    1.8998 H       1  UNL1        0.0632
     52 H          -0.5494    2.6259    2.5096 H       1  UNL1        0.0621
@<TRIPOS>BOND
     1     1     2    1
     2     2     3    2
     3     2     4   am
     4     4     5    1
     5     5     6   ar
     6     6     7   ar
     7     7     8    1
     8     7     9   ar
     9     9    10   ar
    10    10    11    1
    11    11    12    2
    12    11    13   am
    13    13    14    1
    14    14    15   ar
    15    15    16   ar
    16    16    17    1
    17    16    18   ar
    18    18    19   ar
    19    19    20   ar
    20    20    21   ar
    21    21    22    1
    22    21    23   ar
    23    23    24   ar
    24    13    25    1
    25    25    26    1
    26    26    27   ar
    27    27    28   ar
    28    28    29   ar
    29    29    30    1
    30    29    31   ar
    31    31    32   ar
    32    10     5   ar
    33    24    14   ar
    34    32    26   ar
    35    25     9    1
    36    23    18   ar
    37     1    33    1
    38     1    34    1
    39     1    35    1
    40     4    36    1
    41     6    37    1
    42     8    38    1
    43     8    39    1
    44     8    40    1
    45    15    41    1
    46    17    42    1
    47    17    43    1
    48    17    44    1
    49    22    45    1
    50    22    46    1
    51    22    47    1
    52    25    48    1
    53    27    49    1
    54    28    50    1
    55    31    51    1
    56    32    52    1
