@<TRIPOS>MOLECULE
*****
 55 58 0 0 0
SMALL
GASTEIGER

@<TRIPOS>ATOM
      1 C          -0.5363   -4.3246   -3.2374 C.3     1  UNL1        0.0790
      2 O          -0.6450   -3.3439   -2.2410 O.3     1  UNL1       -0.4914
      3 C           0.4223   -2.8992   -1.5334 C.ar    1  UNL1        0.1636
      4 C           1.6831   -3.3710   -1.7500 C.ar    1  UNL1        0.0098
      5 C           2.7856   -2.9376   -1.0515 C.ar    1  UNL1        0.0797
      6 N           4.0237   -3.3924   -1.2728 N.ar    1  UNL1       -0.2352
      7 C           5.0993   -2.9444   -0.5788 C.ar    1  UNL1        0.1187
      8 N           4.8777   -2.0160    0.3515 N.ar    1  UNL1       -0.2200
      9 C           3.6435   -1.5225    0.6162 C.ar    1  UNL1        0.1340
     10 N           3.5455   -0.5641    1.6285 N.pl3   1  UNL1       -0.2988
     11 C           3.5285    0.8069    1.3351 C.ar    1  UNL1        0.0339
     12 C           3.2766    1.3181    0.0756 C.ar    1  UNL1       -0.0377
     13 C           3.2809    2.6633   -0.1687 C.ar    1  UNL1       -0.0232
     14 C           3.5418    3.5404    0.8583 C.ar    1  UNL1        0.1417
     15 F           3.5709    4.8952    0.6873 F       1  UNL1       -0.2040
     16 C           3.7990    3.0559    2.1368 C.ar    1  UNL1        0.0778
     17 CL          4.1352    4.1838    3.4396 Cl      1  UNL1       -0.0805
     18 C           3.7891    1.7002    2.3589 C.ar    1  UNL1       -0.0194
     19 C           2.5597   -1.9774   -0.0881 C.ar    1  UNL1        0.0441
     20 C           1.2856   -1.4881    0.1454 C.ar    1  UNL1       -0.0038
     21 C           0.1892   -1.9228   -0.5568 C.ar    1  UNL1        0.1627
     22 O          -1.0353   -1.4371   -0.3228 O.3     1  UNL1       -0.4882
     23 C          -1.6686   -0.5235    0.4406 C.3     1  UNL1        0.0909
     24 C          -1.2457    0.8741    0.1743 C.3     1  UNL1       -0.0058
     25 C          -1.9300    1.9299    1.0066 C.3     1  UNL1        0.0021
     26 N          -3.3254    2.0439    0.8794 N.3     1  UNL1       -0.2979
     27 C          -3.7580    2.5142   -0.3604 C.3     1  UNL1        0.0224
     28 C          -5.0399    1.9073   -0.8685 C.3     1  UNL1        0.0604
     29 O          -5.1117    0.5990   -0.4356 O.3     1  UNL1       -0.3772
     30 C          -5.2874    0.5728    0.9226 C.3     1  UNL1        0.0604
     31 C          -4.1380    1.2286    1.6577 C.3     1  UNL1        0.0224
     32 H          -1.5686   -4.4220   -3.6850 H       1  UNL1        0.0660
     33 H           0.1578   -4.0537   -4.0654 H       1  UNL1        0.0660
     34 H          -0.2611   -5.2709   -2.7718 H       1  UNL1        0.0660
     35 H           1.9020   -4.1402   -2.5056 H       1  UNL1        0.0677
     36 H           6.0796   -3.3602   -0.8192 H       1  UNL1        0.1048
     37 H           3.4857   -0.9255    2.6266 H       1  UNL1        0.1536
     38 H           3.0693    0.6227   -0.7286 H       1  UNL1        0.0637
     39 H           3.0733    3.0386   -1.1741 H       1  UNL1        0.0647
     40 H           3.9952    1.2991    3.3660 H       1  UNL1        0.0652
     41 H           1.2104   -0.7440    0.9345 H       1  UNL1        0.0663
     42 H          -2.7718   -0.5754    0.1740 H       1  UNL1        0.0697
     43 H          -1.5440   -0.8013    1.5200 H       1  UNL1        0.0697
     44 H          -0.1703    0.9989    0.3630 H       1  UNL1        0.0310
     45 H          -1.3948    1.1207   -0.9052 H       1  UNL1        0.0310
     46 H          -1.4131    2.8964    0.6999 H       1  UNL1        0.0428
     47 H          -1.5796    1.8085    2.0724 H       1  UNL1        0.0428
     48 H          -3.9249    3.6327   -0.3546 H       1  UNL1        0.0449
     49 H          -2.9829    2.3612   -1.1335 H       1  UNL1        0.0449
     50 H          -5.0392    1.9714   -1.9850 H       1  UNL1        0.0572
     51 H          -5.8930    2.5228   -0.5374 H       1  UNL1        0.0572
     52 H          -6.2143    1.0751    1.2214 H       1  UNL1        0.0572
     53 H          -5.3999   -0.4984    1.2677 H       1  UNL1        0.0572
     54 H          -3.5643    0.4220    2.1472 H       1  UNL1        0.0449
     55 H          -4.5673    1.8524    2.4981 H       1  UNL1        0.0449
@<TRIPOS>BOND
     1     1     2    1
     2     2     3    1
     3     3     4   ar
     4     4     5   ar
     5     5     6   ar
     6     6     7   ar
     7     7     8   ar
     8     8     9   ar
     9     9    10    1
    10    10    11    1
    11    11    12   ar
    12    12    13   ar
    13    13    14   ar
    14    14    15    1
    15    14    16   ar
    16    16    17    1
    17    16    18   ar
    18     9    19   ar
    19    19    20   ar
    20    20    21   ar
    21    21    22    1
    22    22    23    1
    23    23    24    1
    24    24    25    1
    25    25    26    1
    26    26    27    1
    27    27    28    1
    28    28    29    1
    29    29    30    1
    30    30    31    1
    31    21     3   ar
    32    31    26    1
    33    19     5   ar
    34    18    11   ar
    35     1    32    1
    36     1    33    1
    37     1    34    1
    38     4    35    1
    39     7    36    1
    40    10    37    1
    41    12    38    1
    42    13    39    1
    43    18    40    1
    44    20    41    1
    45    23    42    1
    46    23    43    1
    47    24    44    1
    48    24    45    1
    49    25    46    1
    50    25    47    1
    51    27    48    1
    52    27    49    1
    53    28    50    1
    54    28    51    1
    55    30    52    1
    56    30    53    1
    57    31    54    1
    58    31    55    1
