
     RDKit          3D

 55 58  0  0  0  0  0  0  0  0999 V2000
   -0.5363   -4.3246   -3.2374 C   0  0  0  0  0  0  0  0  0  0  0  0
   -0.6450   -3.3439   -2.2410 O   0  0  0  0  0  0  0  0  0  0  0  0
    0.4223   -2.8992   -1.5334 C   0  0  0  0  0  0  0  0  0  0  0  0
    1.6831   -3.3710   -1.7500 C   0  0  0  0  0  0  0  0  0  0  0  0
    2.7856   -2.9376   -1.0515 C   0  0  0  0  0  0  0  0  0  0  0  0
    4.0237   -3.3924   -1.2728 N   0  0  0  0  0  0  0  0  0  0  0  0
    5.0993   -2.9444   -0.5788 C   0  0  0  0  0  0  0  0  0  0  0  0
    4.8777   -2.0160    0.3515 N   0  0  0  0  0  0  0  0  0  0  0  0
    3.6435   -1.5225    0.6162 C   0  0  0  0  0  0  0  0  0  0  0  0
    3.5455   -0.5641    1.6285 N   0  0  0  0  0  0  0  0  0  0  0  0
    3.5285    0.8069    1.3351 C   0  0  0  0  0  0  0  0  0  0  0  0
    3.2766    1.3181    0.0756 C   0  0  0  0  0  0  0  0  0  0  0  0
    3.2809    2.6633   -0.1687 C   0  0  0  0  0  0  0  0  0  0  0  0
    3.5418    3.5404    0.8583 C   0  0  0  0  0  0  0  0  0  0  0  0
    3.5709    4.8952    0.6873 F   0  0  0  0  0  0  0  0  0  0  0  0
    3.7990    3.0559    2.1368 C   0  0  0  0  0  0  0  0  0  0  0  0
    4.1352    4.1838    3.4396 Cl  0  0  0  0  0  0  0  0  0  0  0  0
    3.7891    1.7002    2.3589 C   0  0  0  0  0  0  0  0  0  0  0  0
    2.5597   -1.9774   -0.0881 C   0  0  0  0  0  0  0  0  0  0  0  0
    1.2856   -1.4881    0.1454 C   0  0  0  0  0  0  0  0  0  0  0  0
    0.1892   -1.9228   -0.5568 C   0  0  0  0  0  0  0  0  0  0  0  0
   -1.0353   -1.4371   -0.3228 O   0  0  0  0  0  0  0  0  0  0  0  0
   -1.6686   -0.5235    0.4406 C   0  0  0  0  0  0  0  0  0  0  0  0
   -1.2457    0.8741    0.1743 C   0  0  0  0  0  0  0  0  0  0  0  0
   -1.9300    1.9299    1.0066 C   0  0  0  0  0  0  0  0  0  0  0  0
   -3.3254    2.0439    0.8794 N   0  0  0  0  0  0  0  0  0  0  0  0
   -3.7580    2.5142   -0.3604 C   0  0  0  0  0  0  0  0  0  0  0  0
   -5.0399    1.9073   -0.8685 C   0  0  0  0  0  0  0  0  0  0  0  0
   -5.1117    0.5990   -0.4356 O   0  0  0  0  0  0  0  0  0  0  0  0
   -5.2874    0.5728    0.9226 C   0  0  0  0  0  0  0  0  0  0  0  0
   -4.1380    1.2286    1.6577 C   0  0  0  0  0  0  0  0  0  0  0  0
   -1.5686   -4.4220   -3.6850 H   0  0  0  0  0  0  0  0  0  0  0  0
    0.1578   -4.0537   -4.0654 H   0  0  0  0  0  0  0  0  0  0  0  0
   -0.2611   -5.2709   -2.7718 H   0  0  0  0  0  0  0  0  0  0  0  0
    1.9020   -4.1402   -2.5056 H   0  0  0  0  0  0  0  0  0  0  0  0
    6.0796   -3.3602   -0.8192 H   0  0  0  0  0  0  0  0  0  0  0  0
    3.4857   -0.9255    2.6266 H   0  0  0  0  0  0  0  0  0  0  0  0
    3.0693    0.6227   -0.7286 H   0  0  0  0  0  0  0  0  0  0  0  0
    3.0733    3.0386   -1.1741 H   0  0  0  0  0  0  0  0  0  0  0  0
    3.9952    1.2991    3.3660 H   0  0  0  0  0  0  0  0  0  0  0  0
    1.2104   -0.7440    0.9345 H   0  0  0  0  0  0  0  0  0  0  0  0
   -2.7718   -0.5754    0.1740 H   0  0  0  0  0  0  0  0  0  0  0  0
   -1.5440   -0.8013    1.5200 H   0  0  0  0  0  0  0  0  0  0  0  0
   -0.1703    0.9989    0.3630 H   0  0  0  0  0  0  0  0  0  0  0  0
   -1.3948    1.1207   -0.9052 H   0  0  0  0  0  0  0  0  0  0  0  0
   -1.4131    2.8964    0.6999 H   0  0  0  0  0  0  0  0  0  0  0  0
   -1.5796    1.8085    2.0724 H   0  0  0  0  0  0  0  0  0  0  0  0
   -3.9249    3.6327   -0.3546 H   0  0  0  0  0  0  0  0  0  0  0  0
   -2.9829    2.3612   -1.1335 H   0  0  0  0  0  0  0  0  0  0  0  0
   -5.0392    1.9714   -1.9850 H   0  0  0  0  0  0  0  0  0  0  0  0
   -5.8930    2.5228   -0.5374 H   0  0  0  0  0  0  0  0  0  0  0  0
   -6.2143    1.0751    1.2214 H   0  0  0  0  0  0  0  0  0  0  0  0
   -5.3999   -0.4984    1.2677 H   0  0  0  0  0  0  0  0  0  0  0  0
   -3.5643    0.4220    2.1472 H   0  0  0  0  0  0  0  0  0  0  0  0
   -4.5673    1.8524    2.4981 H   0  0  0  0  0  0  0  0  0  0  0  0
  1  2  1  0
  2  3  1  0
  3  4  2  0
  4  5  1  0
  5  6  2  0
  6  7  1  0
  7  8  2  0
  8  9  1  0
  9 10  1  0
 10 11  1  0
 11 12  2  0
 12 13  1  0
 13 14  2  0
 14 15  1  0
 14 16  1  0
 16 17  1  0
 16 18  2  0
  9 19  2  0
 19 20  1  0
 20 21  2  0
 21 22  1  0
 22 23  1  0
 23 24  1  0
 24 25  1  0
 25 26  1  0
 26 27  1  0
 27 28  1  0
 28 29  1  0
 29 30  1  0
 30 31  1  0
 21  3  1  0
 31 26  1  0
 19  5  1  0
 18 11  1  0
  1 32  1  0
  1 33  1  0
  1 34  1  0
  4 35  1  0
  7 36  1  0
 10 37  1  0
 12 38  1  0
 13 39  1  0
 18 40  1  0
 20 41  1  0
 23 42  1  0
 23 43  1  0
 24 44  1  0
 24 45  1  0
 25 46  1  0
 25 47  1  0
 27 48  1  0
 27 49  1  0
 28 50  1  0
 28 51  1  0
 30 52  1  0
 30 53  1  0
 31 54  1  0
 31 55  1  0
M  END
$$$$
