@<TRIPOS>MOLECULE
*****
 109 112 0 0 0
SMALL
GASTEIGER

@<TRIPOS>ATOM
      1 C          -6.7504   -2.8289    2.8247 C.3     1  UNK1       -0.0626
      2 C          -5.6725   -3.8213    2.4068 C.3     1  UNK1       -0.0443
      3 C          -5.4046   -4.7106    3.5738 C.3     1  UNK1       -0.0626
      4 C          -4.4941   -3.1287    1.8232 C.3     1  UNK1       -0.0220
      5 C          -3.3919   -4.0649    1.3907 C.3     1  UNK1        0.0830
      6 O          -3.8084   -4.9547    0.4363 O.3     1  UNK1       -0.3892
      7 C          -2.1453   -3.3137    0.9763 C.3     1  UNK1        0.0993
      8 O          -1.9069   -2.4843    2.1050 O.3     1  UNK1       -0.3874
      9 C          -2.3047   -2.4698   -0.2492 C.3     1  UNK1        0.0518
     10 C          -2.6933   -3.1561   -1.4894 C.3     1  UNK1       -0.0292
     11 C          -1.8584   -4.2611   -2.0059 C.3     1  UNK1       -0.0393
     12 C          -2.5036   -4.6969   -3.3252 C.3     1  UNK1       -0.0502
     13 C          -1.9085   -5.9173   -3.9221 C.3     1  UNK1       -0.0528
     14 C          -0.3965   -5.9134   -3.9039 C.3     1  UNK1       -0.0530
     15 C           0.1595   -5.4627   -2.5973 C.3     1  UNK1       -0.0528
     16 C          -0.4159   -4.0765   -2.2052 C.3     1  UNK1       -0.0502
     17 N          -1.2299   -1.5591   -0.5345 N.am    1  UNK1       -0.3080
     18 C          -1.1395   -0.3112    0.1888 C.2     1  UNK1        0.2428
     19 O          -2.0200   -0.0894    1.0607 O.2     1  UNK1       -0.2732
     20 C          -0.0517    0.6393   -0.0965 C.3     1  UNK1        0.1763
     21 N           0.4560    1.0501    1.2095 N.am    1  UNK1       -0.2954
     22 C           0.6086    2.4481    1.5202 C.2     0  UNK0        0.2329
     23 O           0.2986    3.2829    0.6407 O.2     0  UNK0       -0.2740
     24 C           1.1316    2.8599    2.8661 C.3     0  UNK0        0.1097
     25 C          -0.0741    3.2158    3.7698 C.3     0  UNK0       -0.0021
     26 C          -0.8681    4.3187    3.2297 C.ar    0  UNK0       -0.0454
     27 C          -0.6264    5.6288    3.5899 C.ar    0  UNK0       -0.0585
     28 C          -1.3451    6.7035    3.0918 C.ar    0  UNK0       -0.0615
     29 C          -2.3609    6.4602    2.1856 C.ar    0  UNK0       -0.0617
     30 C          -2.6398    5.1721    1.7974 C.ar    0  UNK0       -0.0615
     31 C          -1.9029    4.1361    2.3150 C.ar    0  UNK0       -0.0585
     32 N           2.0033    3.9896    2.7558 N.3     0  UNK0       -0.1675
     33 S           3.5243    3.8471    3.5005 S.O2    0  UNK0        0.0978
     34 O           3.9927    5.1926    4.0471 O.2     0  UNK0       -0.1411
     35 O           3.4556    2.9574    4.7415 O.2     0  UNK0       -0.1411
     36 N           4.7294    3.1838    2.4948 N.3     0  UNK0       -0.1622
     37 C           4.4019    1.8447    2.0883 C.3     0  UNK0        0.0450
     38 C           5.3296    1.3936    0.9994 C.3     0  UNK0        0.0621
     39 O           6.6482    1.7082    1.2935 O.3     0  UNK0       -0.3771
     40 C           6.7943    1.9764    2.6610 C.3     0  UNK0        0.0621
     41 C           6.0429    3.2355    3.0442 C.3     0  UNK0        0.0450
     42 C           0.9968    0.1670   -0.9939 C.2     1  UNK1        0.2432
     43 O           2.1487   -0.1266   -0.6151 O.2     1  UNK1       -0.2732
     44 N           0.6939    0.0409   -2.4023 N.am    2  HIS2       -0.3001
     45 CA          1.6812   -0.4069   -3.3569 C.3     2  HIS2        0.1257
     46 CB          2.5208    0.7291   -3.9185 C.3     2  HIS2        0.0178
     47 CG          1.8077    1.7711   -4.6397 C.ar    2  HIS2        0.0376
     48 CD2         2.4865    2.8797   -5.1851 C.ar    2  HIS2        0.0485
     49 NE2         1.5596    3.6187   -5.7719 N.ar    2  HIS2       -0.2440
     50 CE1         0.3656    3.0452   -5.6265 C.ar    2  HIS2        0.0935
     51 ND1         0.5211    1.8915   -4.9193 N.ar    2  HIS2       -0.3481
     52 C           1.1495   -1.1467   -4.5035 C.2     2  HIS2        0.3256
     53 O          -0.0808   -1.3504   -4.6673 O.2     2  HIS2       -0.2489
     54 OXT         1.9766   -1.6762   -5.4930 O.3     2  HIS2       -0.4793
     55 H          -6.7729   -2.0467    2.0294 H       1  UNK1        0.0232
     56 H          -6.4663   -2.3349    3.8002 H       1  UNK1        0.0232
     57 H          -7.7452   -3.2799    2.9158 H       1  UNK1        0.0232
     58 H          -6.1750   -4.4729    1.6297 H       1  UNK1        0.0296
     59 H          -4.9275   -4.2250    4.4344 H       1  UNK1        0.0232
     60 H          -4.9187   -5.6840    3.2734 H       1  UNK1        0.0232
     61 H          -6.4258   -5.0365    3.9356 H       1  UNK1        0.0232
     62 H          -4.1488   -2.3605    2.5272 H       1  UNK1        0.0293
     63 H          -4.8347   -2.5896    0.9058 H       1  UNK1        0.0293
     64 H          -3.0686   -4.6893    2.2784 H       1  UNK1        0.0620
     65 H          -3.3025   -5.8064    0.5327 H       1  UNK1        0.2099
     66 H          -1.3285   -4.0173    0.8813 H       1  UNK1        0.0638
     67 H          -1.9849   -3.0833    2.8877 H       1  UNK1        0.2100
     68 H          -3.1726   -1.7694    0.0480 H       1  UNK1        0.0525
     69 H          -2.7913   -2.3772   -2.2957 H       1  UNK1        0.0287
     70 H          -3.7407   -3.5584   -1.3792 H       1  UNK1        0.0287
     71 H          -1.9591   -5.1971   -1.3561 H       1  UNK1        0.0301
     72 H          -3.5653   -4.8846   -3.0959 H       1  UNK1        0.0268
     73 H          -2.5119   -3.8211   -4.0331 H       1  UNK1        0.0268
     74 H          -2.3479   -6.8381   -3.5325 H       1  UNK1        0.0265
     75 H          -2.1766   -5.8982   -5.0229 H       1  UNK1        0.0265
     76 H          -0.0949   -6.9867   -4.0455 H       1  UNK1        0.0265
     77 H           0.0694   -5.3573   -4.7143 H       1  UNK1        0.0265
     78 H           1.2539   -5.3272   -2.7018 H       1  UNK1        0.0265
     79 H          -0.0923   -6.1333   -1.7513 H       1  UNK1        0.0265
     80 H           0.1551   -3.8592   -1.2650 H       1  UNK1        0.0268
     81 H          -0.1538   -3.4376   -3.0523 H       1  UNK1        0.0268
     82 H          -0.4872   -1.6905   -1.2356 H       1  UNK1        0.1491
     83 H          -0.5164    1.5301   -0.6064 H       1  UNK1        0.0693
     84 H           0.7261    0.3849    1.9615 H       1  UNK1        0.1499
     85 H           1.6324    2.0553    3.3946 H       0  UNK0        0.0576
     86 H           0.3334    3.4487    4.7848 H       0  UNK0        0.0334
     87 H          -0.7299    2.3187    3.8675 H       0  UNK0        0.0334
     88 H           0.1713    5.8430    4.3168 H       0  UNK0        0.0620
     89 H          -1.1358    7.7367    3.3889 H       0  UNK0        0.0618
     90 H          -2.9238    7.3234    1.7979 H       0  UNK0        0.0618
     91 H          -3.4337    5.0068    1.0937 H       0  UNK0        0.0618
     92 H          -2.1067    3.1155    2.0232 H       0  UNK0        0.0620
     93 H           1.5820    4.8976    2.6830 H       0  UNK0        0.1500
     94 H           3.3660    1.8862    1.6538 H       0  UNK0        0.0467
     95 H           4.4225    1.1158    2.9407 H       0  UNK0        0.0467
     96 H           5.2458    0.2954    0.8207 H       0  UNK0        0.0573
     97 H           5.0420    1.9630    0.0647 H       0  UNK0        0.0573
     98 H           6.4314    1.0856    3.2029 H       0  UNK0        0.0573
     99 H           7.8858    2.0763    2.8598 H       0  UNK0        0.0573
    100 H           6.6547    4.0838    2.6172 H       0  UNK0        0.0467
    101 H           6.0537    3.3230    4.1528 H       0  UNK0        0.0467
    102 H          -0.2900    0.2891   -2.6506 H       2  HIS2        0.1496
    103 HA          2.3983   -1.0659   -2.7645 H       2  HIS2        0.0618
    104 HB1         3.0793    1.1629   -3.0501 H       2  HIS2        0.0351
    105 HB2         3.3266    0.3223   -4.5845 H       2  HIS2        0.0351
    106 HD2         3.5404    3.1047   -5.1476 H       2  HIS2        0.0848
    107 HE1        -0.5827    3.4413   -6.0137 H       2  HIS2        0.1027
    108 HD1        -0.2997    1.3065   -4.7087 H       2  HIS2        0.1665
    109 HXT         1.7340   -1.6899   -6.4791 H       2  HIS2        0.2951
@<TRIPOS>BOND
     1     1     2    1
     2     2     3    1
     3     2     4    1
     4     4     5    1
     5     5     6    1
     6     5     7    1
     7     7     8    1
     8     7     9    1
     9     9    10    1
    10    10    11    1
    11    11    12    1
    12    12    13    1
    13    13    14    1
    14    14    15    1
    15    15    16    1
    16     9    17    1
    17    17    18   am
    18    18    19    2
    19    18    20    1
    20    20    21    1
    21    21    22   am
    22    22    23    2
    23    22    24    1
    24    24    25    1
    25    25    26    1
    26    26    27   ar
    27    27    28   ar
    28    28    29   ar
    29    29    30   ar
    30    30    31   ar
    31    24    32    1
    32    32    33    1
    33    33    34    2
    34    33    35    2
    35    33    36    1
    36    36    37    1
    37    37    38    1
    38    38    39    1
    39    39    40    1
    40    40    41    1
    41    20    42    1
    42    42    43    2
    43    42    44   am
    44    44    45    1
    45    45    46    1
    46    46    47    1
    47    47    48   ar
    48    48    49   ar
    49    49    50   ar
    50    50    51   ar
    51    45    52    1
    52    52    53    2
    53    52    54    1
    54    16    11    1
    55    31    26   ar
    56    41    36    1
    57    51    47   ar
    58     1    55    1
    59     1    56    1
    60     1    57    1
    61     2    58    1
    62     3    59    1
    63     3    60    1
    64     3    61    1
    65     4    62    1
    66     4    63    1
    67     5    64    1
    68     6    65    1
    69     7    66    1
    70     8    67    1
    71     9    68    1
    72    10    69    1
    73    10    70    1
    74    11    71    1
    75    12    72    1
    76    12    73    1
    77    13    74    1
    78    13    75    1
    79    14    76    1
    80    14    77    1
    81    15    78    1
    82    15    79    1
    83    16    80    1
    84    16    81    1
    85    17    82    1
    86    20    83    1
    87    21    84    1
    88    24    85    1
    89    25    86    1
    90    25    87    1
    91    27    88    1
    92    28    89    1
    93    29    90    1
    94    30    91    1
    95    31    92    1
    96    32    93    1
    97    37    94    1
    98    37    95    1
    99    38    96    1
   100    38    97    1
   101    40    98    1
   102    40    99    1
   103    41   100    1
   104    41   101    1
   105    44   102    1
   106    45   103    1
   107    46   104    1
   108    46   105    1
   109    48   106    1
   110    50   107    1
   111    51   108    1
   112    54   109    1
