
     RDKit          3D

109112  0  0  0  0  0  0  0  0999 V2000
   -6.7504   -2.8289    2.8247 C   0  0  0  0  0  0  0  0  0  0  0  0
   -5.6725   -3.8213    2.4068 C   0  0  0  0  0  0  0  0  0  0  0  0
   -5.4046   -4.7106    3.5738 C   0  0  0  0  0  0  0  0  0  0  0  0
   -4.4941   -3.1287    1.8232 C   0  0  0  0  0  0  0  0  0  0  0  0
   -3.3919   -4.0649    1.3907 C   0  0  1  0  0  0  0  0  0  0  0  0
   -3.8084   -4.9547    0.4363 O   0  0  0  0  0  0  0  0  0  0  0  0
   -2.1453   -3.3137    0.9763 C   0  0  2  0  0  0  0  0  0  0  0  0
   -1.9069   -2.4843    2.1050 O   0  0  0  0  0  0  0  0  0  0  0  0
   -2.3047   -2.4698   -0.2492 C   0  0  2  0  0  0  0  0  0  0  0  0
   -2.6933   -3.1561   -1.4894 C   0  0  0  0  0  0  0  0  0  0  0  0
   -1.8584   -4.2611   -2.0059 C   0  0  0  0  0  0  0  0  0  0  0  0
   -2.5036   -4.6969   -3.3252 C   0  0  0  0  0  0  0  0  0  0  0  0
   -1.9085   -5.9173   -3.9221 C   0  0  0  0  0  0  0  0  0  0  0  0
   -0.3965   -5.9134   -3.9039 C   0  0  0  0  0  0  0  0  0  0  0  0
    0.1595   -5.4627   -2.5973 C   0  0  0  0  0  0  0  0  0  0  0  0
   -0.4159   -4.0765   -2.2052 C   0  0  0  0  0  0  0  0  0  0  0  0
   -1.2299   -1.5591   -0.5345 N   0  0  0  0  0  0  0  0  0  0  0  0
   -1.1395   -0.3112    0.1888 C   0  0  0  0  0  0  0  0  0  0  0  0
   -2.0200   -0.0894    1.0607 O   0  0  0  0  0  0  0  0  0  0  0  0
   -0.0517    0.6393   -0.0965 C   0  0  0  0  0  0  0  0  0  0  0  0
    0.4560    1.0501    1.2095 N   0  0  0  0  0  0  0  0  0  0  0  0
    0.6086    2.4481    1.5202 C   0  0  0  0  0  0  0  0  0  0  0  0
    0.2986    3.2829    0.6407 O   0  0  0  0  0  0  0  0  0  0  0  0
    1.1316    2.8599    2.8661 C   0  0  2  0  0  0  0  0  0  0  0  0
   -0.0741    3.2158    3.7698 C   0  0  0  0  0  0  0  0  0  0  0  0
   -0.8681    4.3187    3.2297 C   0  0  0  0  0  0  0  0  0  0  0  0
   -0.6264    5.6288    3.5899 C   0  0  0  0  0  0  0  0  0  0  0  0
   -1.3451    6.7035    3.0918 C   0  0  0  0  0  0  0  0  0  0  0  0
   -2.3609    6.4602    2.1856 C   0  0  0  0  0  0  0  0  0  0  0  0
   -2.6398    5.1721    1.7974 C   0  0  0  0  0  0  0  0  0  0  0  0
   -1.9029    4.1361    2.3150 C   0  0  0  0  0  0  0  0  0  0  0  0
    2.0033    3.9896    2.7558 N   0  0  0  0  0  0  0  0  0  0  0  0
    3.5243    3.8471    3.5005 S   0  0  0  0  0  6  0  0  0  0  0  0
    3.9927    5.1926    4.0471 O   0  0  0  0  0  0  0  0  0  0  0  0
    3.4556    2.9574    4.7415 O   0  0  0  0  0  0  0  0  0  0  0  0
    4.7294    3.1838    2.4948 N   0  0  0  0  0  0  0  0  0  0  0  0
    4.4019    1.8447    2.0883 C   0  0  0  0  0  0  0  0  0  0  0  0
    5.3296    1.3936    0.9994 C   0  0  0  0  0  0  0  0  0  0  0  0
    6.6482    1.7082    1.2935 O   0  0  0  0  0  0  0  0  0  0  0  0
    6.7943    1.9764    2.6610 C   0  0  0  0  0  0  0  0  0  0  0  0
    6.0429    3.2355    3.0442 C   0  0  0  0  0  0  0  0  0  0  0  0
    0.9968    0.1670   -0.9939 C   0  0  0  0  0  0  0  0  0  0  0  0
    2.1487   -0.1266   -0.6151 O   0  0  0  0  0  0  0  0  0  0  0  0
    0.6939    0.0409   -2.4023 N   0  0  0  0  0  0  0  0  0  0  0  0
    1.6812   -0.4069   -3.3569 C   0  0  0  0  0  0  0  0  0  0  0  0
    2.5208    0.7291   -3.9185 C   0  0  0  0  0  0  0  0  0  0  0  0
    1.8077    1.7711   -4.6397 C   0  0  0  0  0  0  0  0  0  0  0  0
    2.4865    2.8797   -5.1851 C   0  0  0  0  0  0  0  0  0  0  0  0
    1.5596    3.6187   -5.7719 N   0  0  0  0  0  0  0  0  0  0  0  0
    0.3656    3.0452   -5.6265 C   0  0  0  0  0  0  0  0  0  0  0  0
    0.5211    1.8915   -4.9193 N   0  0  0  0  0  0  0  0  0  0  0  0
    1.1495   -1.1467   -4.5035 C   0  0  0  0  0  0  0  0  0  0  0  0
   -0.0808   -1.3504   -4.6673 O   0  0  0  0  0  0  0  0  0  0  0  0
    1.9766   -1.6762   -5.4930 O   0  0  0  0  0  0  0  0  0  0  0  0
   -6.7729   -2.0467    2.0294 H   0  0  0  0  0  0  0  0  0  0  0  0
   -6.4663   -2.3349    3.8002 H   0  0  0  0  0  0  0  0  0  0  0  0
   -7.7452   -3.2799    2.9158 H   0  0  0  0  0  0  0  0  0  0  0  0
   -6.1750   -4.4729    1.6297 H   0  0  0  0  0  0  0  0  0  0  0  0
   -4.9275   -4.2250    4.4344 H   0  0  0  0  0  0  0  0  0  0  0  0
   -4.9187   -5.6840    3.2734 H   0  0  0  0  0  0  0  0  0  0  0  0
   -6.4258   -5.0365    3.9356 H   0  0  0  0  0  0  0  0  0  0  0  0
   -4.1488   -2.3605    2.5272 H   0  0  0  0  0  0  0  0  0  0  0  0
   -4.8347   -2.5896    0.9058 H   0  0  0  0  0  0  0  0  0  0  0  0
   -3.0686   -4.6893    2.2784 H   0  0  0  0  0  0  0  0  0  0  0  0
   -3.3025   -5.8064    0.5327 H   0  0  0  0  0  0  0  0  0  0  0  0
   -1.3285   -4.0173    0.8813 H   0  0  0  0  0  0  0  0  0  0  0  0
   -1.9849   -3.0833    2.8877 H   0  0  0  0  0  0  0  0  0  0  0  0
   -3.1726   -1.7694    0.0480 H   0  0  0  0  0  0  0  0  0  0  0  0
   -2.7913   -2.3772   -2.2957 H   0  0  0  0  0  0  0  0  0  0  0  0
   -3.7407   -3.5584   -1.3792 H   0  0  0  0  0  0  0  0  0  0  0  0
   -1.9591   -5.1971   -1.3561 H   0  0  0  0  0  0  0  0  0  0  0  0
   -3.5653   -4.8846   -3.0959 H   0  0  0  0  0  0  0  0  0  0  0  0
   -2.5119   -3.8211   -4.0331 H   0  0  0  0  0  0  0  0  0  0  0  0
   -2.3479   -6.8381   -3.5325 H   0  0  0  0  0  0  0  0  0  0  0  0
   -2.1766   -5.8982   -5.0229 H   0  0  0  0  0  0  0  0  0  0  0  0
   -0.0949   -6.9867   -4.0455 H   0  0  0  0  0  0  0  0  0  0  0  0
    0.0694   -5.3573   -4.7143 H   0  0  0  0  0  0  0  0  0  0  0  0
    1.2539   -5.3272   -2.7018 H   0  0  0  0  0  0  0  0  0  0  0  0
   -0.0923   -6.1333   -1.7513 H   0  0  0  0  0  0  0  0  0  0  0  0
    0.1551   -3.8592   -1.2650 H   0  0  0  0  0  0  0  0  0  0  0  0
   -0.1538   -3.4376   -3.0523 H   0  0  0  0  0  0  0  0  0  0  0  0
   -0.4872   -1.6905   -1.2356 H   0  0  0  0  0  0  0  0  0  0  0  0
   -0.5164    1.5301   -0.6064 H   0  0  0  0  0  0  0  0  0  0  0  0
    0.7261    0.3849    1.9615 H   0  0  0  0  0  0  0  0  0  0  0  0
    1.6324    2.0553    3.3946 H   0  0  0  0  0  0  0  0  0  0  0  0
    0.3334    3.4487    4.7848 H   0  0  0  0  0  0  0  0  0  0  0  0
   -0.7299    2.3187    3.8675 H   0  0  0  0  0  0  0  0  0  0  0  0
    0.1713    5.8430    4.3168 H   0  0  0  0  0  0  0  0  0  0  0  0
   -1.1358    7.7367    3.3889 H   0  0  0  0  0  0  0  0  0  0  0  0
   -2.9238    7.3234    1.7979 H   0  0  0  0  0  0  0  0  0  0  0  0
   -3.4337    5.0068    1.0937 H   0  0  0  0  0  0  0  0  0  0  0  0
   -2.1067    3.1155    2.0232 H   0  0  0  0  0  0  0  0  0  0  0  0
    1.5820    4.8976    2.6830 H   0  0  0  0  0  0  0  0  0  0  0  0
    3.3660    1.8862    1.6538 H   0  0  0  0  0  0  0  0  0  0  0  0
    4.4225    1.1158    2.9407 H   0  0  0  0  0  0  0  0  0  0  0  0
    5.2458    0.2954    0.8207 H   0  0  0  0  0  0  0  0  0  0  0  0
    5.0420    1.9630    0.0647 H   0  0  0  0  0  0  0  0  0  0  0  0
    6.4314    1.0856    3.2029 H   0  0  0  0  0  0  0  0  0  0  0  0
    7.8858    2.0763    2.8598 H   0  0  0  0  0  0  0  0  0  0  0  0
    6.6547    4.0838    2.6172 H   0  0  0  0  0  0  0  0  0  0  0  0
    6.0537    3.3230    4.1528 H   0  0  0  0  0  0  0  0  0  0  0  0
   -0.2900    0.2891   -2.6506 H   0  0  0  0  0  0  0  0  0  0  0  0
    2.3983   -1.0659   -2.7645 H   0  0  0  0  0  0  0  0  0  0  0  0
    3.0793    1.1629   -3.0501 H   0  0  0  0  0  0  0  0  0  0  0  0
    3.3266    0.3223   -4.5845 H   0  0  0  0  0  0  0  0  0  0  0  0
    3.5404    3.1047   -5.1476 H   0  0  0  0  0  0  0  0  0  0  0  0
   -0.5827    3.4413   -6.0137 H   0  0  0  0  0  0  0  0  0  0  0  0
   -0.2997    1.3065   -4.7087 H   0  0  0  0  0  0  0  0  0  0  0  0
    1.7340   -1.6899   -6.4791 H   0  0  0  0  0  0  0  0  0  0  0  0
  1  2  1  0
  2  3  1  0
  2  4  1  0
  4  5  1  0
  5  6  1  0
  5  7  1  0
  7  8  1  0
  7  9  1  0
  9 10  1  0
 10 11  1  0
 11 12  1  0
 12 13  1  0
 13 14  1  0
 14 15  1  0
 15 16  1  0
  9 17  1  0
 17 18  1  0
 18 19  2  0
 18 20  1  0
 20 21  1  0
 21 22  1  0
 22 23  2  0
 22 24  1  0
 24 25  1  0
 25 26  1  0
 26 27  2  0
 27 28  1  0
 28 29  2  0
 29 30  1  0
 30 31  2  0
 24 32  1  0
 32 33  1  0
 33 34  2  0
 33 35  2  0
 33 36  1  0
 36 37  1  0
 37 38  1  0
 38 39  1  0
 39 40  1  0
 40 41  1  0
 20 42  1  0
 42 43  2  0
 42 44  1  0
 44 45  1  0
 45 46  1  0
 46 47  1  0
 47 48  2  0
 48 49  1  0
 49 50  2  0
 50 51  1  0
 45 52  1  0
 52 53  2  0
 52 54  1  0
 16 11  1  0
 31 26  1  0
 41 36  1  0
 51 47  1  0
  1 55  1  0
  1 56  1  0
  1 57  1  0
  2 58  1  0
  3 59  1  0
  3 60  1  0
  3 61  1  0
  4 62  1  0
  4 63  1  0
  5 64  1  1
  6 65  1  0
  7 66  1  6
  8 67  1  0
  9 68  1  1
 10 69  1  0
 10 70  1  0
 11 71  1  0
 12 72  1  0
 12 73  1  0
 13 74  1  0
 13 75  1  0
 14 76  1  0
 14 77  1  0
 15 78  1  0
 15 79  1  0
 16 80  1  0
 16 81  1  0
 17 82  1  0
 20 83  1  0
 21 84  1  0
 24 85  1  1
 25 86  1  0
 25 87  1  0
 27 88  1  0
 28 89  1  0
 29 90  1  0
 30 91  1  0
 31 92  1  0
 32 93  1  0
 37 94  1  0
 37 95  1  0
 38 96  1  0
 38 97  1  0
 40 98  1  0
 40 99  1  0
 41100  1  0
 41101  1  0
 44102  1  0
 45103  1  0
 46104  1  0
 46105  1  0
 48106  1  0
 50107  1  0
 51108  1  0
 54109  1  0
M  END
$$$$
