@<TRIPOS>MOLECULE
*****
 61 63 0 0 0
SMALL
GASTEIGER

@<TRIPOS>ATOM
      1 C           0.9667    2.4119   -0.0449 C.3     1  UNL1        0.0180
      2 N           0.4128    1.0510   -0.0230 N.ar    1  UNL1       -0.2822
      3 C           1.1950   -0.0310   -0.1918 C.ar    1  UNL1        0.1271
      4 C           0.6965   -1.3259   -0.1754 C.ar    1  UNL1       -0.0252
      5 N           1.7387   -2.1477   -0.3718 N.ar    1  UNL1       -0.6275
      6 C           2.8742   -1.4388   -0.5121 C.ar    1  UNL1        0.0286
      7 CL          4.5067   -2.0602   -0.7892 Cl      1  UNL1       -0.0876
      8 N           2.5160   -0.1421   -0.3980 N.ar    1  UNL1       -0.2424
      9 C          -0.6607   -1.4875    0.0238 C.ar    1  UNL1        0.2438
     10 O          -1.0883   -2.6834    0.0340 O.2     1  UNL1       -0.2688
     11 N          -1.4360   -0.4003    0.1918 N.ar    1  UNL1       -0.2649
     12 C          -2.8761   -0.6090    0.4015 C.3     1  UNL1        0.0195
     13 C          -0.9018    0.8351    0.1672 C.ar    1  UNL1        0.3329
     14 O          -1.6449    1.8590    0.3273 O.2     1  UNL1       -0.2462
     15 C           3.3824   -0.1666    1.4437 C.3     2  UNL2       -0.0433
     16 N           3.5240   -0.3767   -0.0058 N.4     2  UNL2        0.2325
     17 C           2.7564   -1.5509   -0.3096 C.3     2  UNL2       -0.0433
     18 C           3.0785    0.8272   -0.6316 C.3     2  UNL2       -0.0084
     19 C           1.6662    0.7334   -1.1648 C.3     2  UNL2        0.0887
     20 O           0.7811    0.4551   -0.1243 O.3     2  UNL2       -0.3621
     21 C          -0.5322    0.3578   -0.5564 C.3     2  UNL2        0.1089
     22 C          -1.1490   -0.9688   -0.2930 C.ar    2  UNL2       -0.0145
     23 C          -0.9875   -1.5821    0.9317 C.ar    2  UNL2       -0.0558
     24 C          -1.5895   -2.8299    1.1257 C.ar    2  UNL2       -0.0614
     25 C          -2.3261   -3.4501    0.1420 C.ar    2  UNL2       -0.0617
     26 C          -2.4743   -2.8163   -1.0776 C.ar    2  UNL2       -0.0614
     27 C          -1.8851   -1.5807   -1.2866 C.ar    2  UNL2       -0.0558
     28 C          -1.4228    1.4046   -0.0197 C.ar    2  UNL2       -0.0145
     29 C          -2.3390    2.0971   -0.8170 C.ar    2  UNL2       -0.0558
     30 C          -3.1626    3.0754   -0.2851 C.ar    2  UNL2       -0.0614
     31 C          -3.0591    3.3568    1.0675 C.ar    2  UNL2       -0.0617
     32 C          -2.1481    2.6638    1.8448 C.ar    2  UNL2       -0.0614
     33 C          -1.3247    1.6877    1.3193 C.ar    2  UNL2       -0.0558
     34 H           1.8456    2.4926   -0.7019 H       1  UNL1        0.0458
     35 H           0.1719    3.1363   -0.3198 H       1  UNL1        0.0458
     36 H           1.2808    2.6135    1.0162 H       1  UNL1        0.0458
     37 H          -2.9895   -0.8423    1.4854 H       1  UNL1        0.0458
     38 H          -3.1533   -1.5053   -0.1896 H       1  UNL1        0.0458
     39 H          -3.4544    0.2742    0.0702 H       1  UNL1        0.0458
     40 H           3.9956   -0.9594    1.9161 H       2  UNL2        0.0777
     41 H           3.6596    0.8553    1.7464 H       2  UNL2        0.0777
     42 H           2.3033   -0.3787    1.6547 H       2  UNL2        0.0777
     43 H           4.5456   -0.5653   -0.1851 H       2  UNL2        0.2028
     44 H           2.5872   -1.6389   -1.4053 H       2  UNL2        0.0777
     45 H           1.8390   -1.6366    0.2795 H       2  UNL2        0.0777
     46 H           3.3932   -2.4350   -0.0338 H       2  UNL2        0.0777
     47 H           3.1121    1.7164    0.0480 H       2  UNL2        0.0837
     48 H           3.7653    1.0649   -1.4694 H       2  UNL2        0.0837
     49 H           1.5721    0.0484   -2.0262 H       2  UNL2        0.0614
     50 H           1.3784    1.7448   -1.5304 H       2  UNL2        0.0614
     51 H          -0.4914    0.5402   -1.6664 H       2  UNL2        0.0697
     52 H          -0.4214   -1.1442    1.7397 H       2  UNL2        0.0621
     53 H          -1.5159   -3.3861    2.0564 H       2  UNL2        0.0618
     54 H          -2.8027   -4.4132    0.2621 H       2  UNL2        0.0618
     55 H          -3.0567   -3.3009   -1.8631 H       2  UNL2        0.0618
     56 H          -1.9888   -1.0750   -2.2237 H       2  UNL2        0.0621
     57 H          -2.3267    1.7855   -1.8676 H       2  UNL2        0.0621
     58 H          -3.8399    3.5543   -0.9903 H       2  UNL2        0.0618
     59 H          -3.7220    4.1315    1.4508 H       2  UNL2        0.0618
     60 H          -2.1136    2.9298    2.9000 H       2  UNL2        0.0618
     61 H          -0.6610    1.2254    2.0352 H       2  UNL2        0.0621
@<TRIPOS>UNITY_ATOM_ATTR
5 1
charge -1
16 1
charge 1
@<TRIPOS>BOND
     1     1     2    1
     2     2     3   ar
     3     3     4   ar
     4     4     5   ar
     5     5     6   ar
     6     6     7    1
     7     6     8   ar
     8     4     9   ar
     9     9    10    2
    10     9    11   ar
    11    11    12    1
    12    11    13   ar
    13    13    14    2
    14    15    16    1
    15    16    17    1
    16    16    18    1
    17    18    19    1
    18    19    20    1
    19    20    21    1
    20    21    22    1
    21    22    23   ar
    22    23    24   ar
    23    24    25   ar
    24    25    26   ar
    25    26    27   ar
    26    21    28    1
    27    28    29   ar
    28    29    30   ar
    29    30    31   ar
    30    31    32   ar
    31    32    33   ar
    32    13     2   ar
    33    27    22   ar
    34    33    28   ar
    35     8     3   ar
    36     1    34    1
    37     1    35    1
    38     1    36    1
    39    12    37    1
    40    12    38    1
    41    12    39    1
    42    15    40    1
    43    15    41    1
    44    15    42    1
    45    16    43    1
    46    17    44    1
    47    17    45    1
    48    17    46    1
    49    18    47    1
    50    18    48    1
    51    19    49    1
    52    19    50    1
    53    21    51    1
    54    23    52    1
    55    24    53    1
    56    25    54    1
    57    26    55    1
    58    27    56    1
    59    29    57    1
    60    30    58    1
    61    31    59    1
    62    32    60    1
    63    33    61    1
