
     RDKit          3D

 31 33  0  0  0  0  0  0  0  0999 V2000
   -2.9738    1.9881    0.7312 O   0  0  0  0  0  0  0  0  0  0  0  0
   -4.0825    1.6213    0.2755 C   0  0  0  0  0  0  0  0  0  0  0  0
   -5.0660    2.5727    0.0797 O   0  0  0  0  0  0  0  0  0  0  0  0
   -4.3058    0.2020   -0.0359 C   0  0  0  0  0  0  0  0  0  0  0  0
   -3.1438   -0.6131    0.2459 N   0  0  0  0  0  0  0  0  0  0  0  0
   -2.8160   -1.2726    1.4538 C   0  0  0  0  0  0  0  0  0  0  0  0
   -3.5193   -1.2429    2.5008 O   0  0  0  0  0  0  0  0  0  0  0  0
   -1.5539   -1.9672    1.2593 C   0  0  0  0  0  0  0  0  0  0  0  0
   -0.9863   -2.6579    2.1654 O   0  0  0  0  0  0  0  0  0  0  0  0
   -1.1347   -1.7200   -0.0605 N   0  0  0  0  0  0  0  0  0  0  0  0
    0.0548   -2.1986   -0.7062 C   0  0  0  0  0  0  0  0  0  0  0  0
    1.2088   -1.2906   -0.5486 C   0  0  0  0  0  0  0  0  0  0  0  0
    2.1336   -1.0590    0.1669 N   0  0  0  0  0  0  0  0  0  0  0  0
    3.0633   -0.1492    0.0776 C   0  0  0  0  0  0  0  0  0  0  0  0
    4.1341    0.1167    0.9090 C   0  0  0  0  0  0  0  0  0  0  0  0
    4.4715   -0.8002    2.3666 Cl  0  0  0  0  0  0  0  0  0  0  0  0
    4.9935    1.1289    0.6219 C   0  0  0  0  0  0  0  0  0  0  0  0
    4.9023    1.9700   -0.4810 C   0  0  0  0  0  0  0  0  0  0  0  0
    3.8381    1.7157   -1.3191 C   0  0  0  0  0  0  0  0  0  0  0  0
    2.9412    0.6800   -1.0441 C   0  0  0  0  0  0  0  0  0  0  0  0
    1.4992    0.0610   -1.8519 S   0  0  0  0  0  0  0  0  0  0  0  0
   -2.1063   -0.8920   -0.6810 C   0  0  0  0  0  0  0  0  0  0  0  0
   -2.0683   -0.4594   -1.8779 O   0  0  0  0  0  0  0  0  0  0  0  0
   -5.0457    3.4649    0.5980 H   0  0  0  0  0  0  0  0  0  0  0  0
   -4.6670    0.0750   -1.0775 H   0  0  0  0  0  0  0  0  0  0  0  0
   -5.1494   -0.1537    0.6138 H   0  0  0  0  0  0  0  0  0  0  0  0
   -0.1132   -2.4257   -1.7821 H   0  0  0  0  0  0  0  0  0  0  0  0
    0.3517   -3.1481   -0.2193 H   0  0  0  0  0  0  0  0  0  0  0  0
    5.8539    1.3567    1.2730 H   0  0  0  0  0  0  0  0  0  0  0  0
    5.5975    2.7633   -0.6828 H   0  0  0  0  0  0  0  0  0  0  0  0
    3.6885    2.3339   -2.2184 H   0  0  0  0  0  0  0  0  0  0  0  0
  1  2  2  0
  2  3  1  0
  2  4  1  0
  4  5  1  0
  5  6  1  0
  6  7  2  0
  6  8  1  0
  8  9  2  0
  8 10  1  0
 10 11  1  0
 11 12  1  0
 12 13  2  0
 13 14  1  0
 14 15  2  0
 15 16  1  0
 15 17  1  0
 17 18  2  0
 18 19  1  0
 19 20  2  0
 20 21  1  0
 10 22  1  0
 22 23  2  0
 22  5  1  0
 21 12  1  0
 20 14  1  0
  3 24  1  0
  4 25  1  0
  4 26  1  0
 11 27  1  0
 11 28  1  0
 17 29  1  0
 18 30  1  0
 19 31  1  0
M  END
$$$$
