@<TRIPOS>MOLECULE
*****
 31 33 0 0 0
SMALL
GASTEIGER

@<TRIPOS>ATOM
      1 O          -2.9738    1.9881    0.7312 O.2     1  UNL1       -0.2492
      2 C          -4.0825    1.6213    0.2755 C.2     1  UNL1        0.3228
      3 O          -5.0660    2.5727    0.0797 O.3     1  UNL1       -0.4795
      4 C          -4.3058    0.2020   -0.0359 C.3     1  UNL1        0.1212
      5 N          -3.1438   -0.6131    0.2459 N.am    1  UNL1       -0.2069
      6 C          -2.8160   -1.2726    1.4538 C.2     1  UNL1        0.3101
      7 O          -3.5193   -1.2429    2.5008 O.2     1  UNL1       -0.2645
      8 C          -1.5539   -1.9672    1.2593 C.2     1  UNL1        0.3099
      9 O          -0.9863   -2.6579    2.1654 O.2     1  UNL1       -0.2645
     10 N          -1.1347   -1.7200   -0.0605 N.am    1  UNL1       -0.2113
     11 C           0.0548   -2.1986   -0.7062 C.3     1  UNL1        0.0728
     12 C           1.2088   -1.2906   -0.5486 C.ar    1  UNL1        0.0974
     13 N           2.1336   -1.0590    0.1669 N.ar    1  UNL1       -0.2409
     14 C           3.0633   -0.1492    0.0776 C.ar    1  UNL1        0.0968
     15 C           4.1341    0.1167    0.9090 C.ar    1  UNL1        0.0674
     16 CL          4.4715   -0.8002    2.3666 Cl      1  UNL1       -0.0813
     17 C           4.9935    1.1289    0.6219 C.ar    1  UNL1       -0.0413
     18 C           4.9023    1.9700   -0.4810 C.ar    1  UNL1       -0.0592
     19 C           3.8381    1.7157   -1.3191 C.ar    1  UNL1       -0.0458
     20 C           2.9412    0.6800   -1.0441 C.ar    1  UNL1        0.0407
     21 S           1.4992    0.0610   -1.8519 S.2     1  UNL1       -0.0705
     22 C          -2.1063   -0.8920   -0.6810 C.2     1  UNL1        0.3190
     23 O          -2.0683   -0.4594   -1.8779 O.2     1  UNL1       -0.2515
     24 H          -5.0457    3.4649    0.5980 H       1  UNL1        0.2951
     25 H          -4.6670    0.0750   -1.0775 H       1  UNL1        0.0585
     26 H          -5.1494   -0.1537    0.6138 H       1  UNL1        0.0585
     27 H          -0.1132   -2.4257   -1.7821 H       1  UNL1        0.0540
     28 H           0.3517   -3.1481   -0.2193 H       1  UNL1        0.0540
     29 H           5.8539    1.3567    1.2730 H       1  UNL1        0.0633
     30 H           5.5975    2.7633   -0.6828 H       1  UNL1        0.0618
     31 H           3.6885    2.3339   -2.2184 H       1  UNL1        0.0629
@<TRIPOS>BOND
     1     1     2    2
     2     2     3    1
     3     2     4    1
     4     4     5    1
     5     5     6   am
     6     6     7    2
     7     6     8    1
     8     8     9    2
     9     8    10   am
    10    10    11    1
    11    11    12    1
    12    12    13   ar
    13    13    14   ar
    14    14    15   ar
    15    15    16    1
    16    15    17   ar
    17    17    18   ar
    18    18    19   ar
    19    19    20   ar
    20    20    21   ar
    21    10    22   am
    22    22    23    2
    23    22     5   am
    24    21    12   ar
    25    20    14   ar
    26     3    24    1
    27     4    25    1
    28     4    26    1
    29    11    27    1
    30    11    28    1
    31    17    29    1
    32    18    30    1
    33    19    31    1
