@<TRIPOS>MOLECULE
*****
 58 63 0 0 0
SMALL
GASTEIGER

@<TRIPOS>ATOM
      1 C          -4.1130    1.8075    3.6118 C.3     1  UNL1       -0.0361
      2 C          -3.5753    1.4008    2.2887 C.ar    1  UNL1       -0.0041
      3 C          -2.2922    0.9404    2.0971 C.ar    1  UNL1       -0.0324
      4 C          -1.8241    0.5685    0.8422 C.ar    1  UNL1        0.0545
      5 N          -0.4936    0.1000    0.6542 N.am    1  UNL1       -0.2530
      6 C           0.5793    0.9735    0.3163 C.2     1  UNL1        0.2538
      7 O           0.4747    2.2018    0.1390 O.2     1  UNL1       -0.2695
      8 C           1.7982    0.1810    0.2164 C.ar    1  UNL1        0.0636
      9 C           3.1441    0.2390   -0.0512 C.ar    1  UNL1       -0.0119
     10 C           4.0259    1.3757   -0.3659 C.3     1  UNL1        0.0118
     11 C           5.0643    1.6434    0.7297 C.3     1  UNL1        0.0067
     12 N           4.9557    3.0539    0.3307 N.3     1  UNL1       -0.3041
     13 C           5.7088    3.3083   -0.8825 C.3     1  UNL1       -0.0127
     14 C           3.5331    2.7496    0.0427 C.3     1  UNL1        0.0067
     15 C           3.5931   -1.0833    0.0663 C.ar    1  UNL1        0.0089
     16 N           2.5608   -1.8777    0.3883 N.ar    1  UNL1       -0.3508
     17 C           2.6869   -3.3299    0.5887 C.3     1  UNL1        0.0117
     18 C           1.4471   -1.1352    0.4880 C.ar    1  UNL1        0.0565
     19 C          -0.0158   -1.2375    0.7807 C.3     1  UNL1        0.0972
     20 C          -0.6457   -2.2054   -0.1378 C.ar    1  UNL1       -0.0208
     21 C          -0.8301   -2.0073   -1.4854 C.ar    1  UNL1       -0.0550
     22 C          -1.4254   -2.9486   -2.2930 C.ar    1  UNL1       -0.0431
     23 C          -1.8673   -4.1436   -1.7795 C.ar    1  UNL1        0.0410
     24 CL         -2.6311   -5.3598   -2.7955 Cl      1  UNL1       -0.0835
     25 C          -1.7000   -4.3776   -0.4357 C.ar    1  UNL1       -0.0431
     26 C          -1.1037   -3.4273    0.3568 C.ar    1  UNL1       -0.0550
     27 C          -2.6592    0.6599   -0.2446 C.ar    1  UNL1        0.0344
     28 N          -3.9347    1.1161   -0.0621 N.ar    1  UNL1       -0.2846
     29 C          -4.9117    1.2837   -0.9793 C.ar    1  UNL1        0.1347
     30 C          -4.8580    1.0129   -2.4489 C.3     1  UNL1       -0.0041
     31 N          -5.9763    1.7545   -0.3034 N.ar    1  UNL1       -0.1340
     32 N          -5.6554    1.8690    0.9832 N.ar    1  UNL1       -0.1292
     33 C          -4.3732    1.4721    1.1579 C.ar    1  UNL1        0.1641
     34 H          -3.9373    2.9156    3.7146 H       1  UNL1        0.0279
     35 H          -3.6426    1.2523    4.4302 H       1  UNL1        0.0279
     36 H          -5.2223    1.6329    3.5658 H       1  UNL1        0.0279
     37 H          -1.6489    0.8748    2.9614 H       1  UNL1        0.0640
     38 H           4.5233    1.3192   -1.3312 H       1  UNL1        0.0374
     39 H           6.0518    1.2179    0.5542 H       1  UNL1        0.0433
     40 H           4.7092    1.4384    1.7477 H       1  UNL1        0.0433
     41 H           5.0214    3.2629   -1.7433 H       1  UNL1        0.0391
     42 H           6.1718    4.3249   -0.8539 H       1  UNL1        0.0391
     43 H           6.4837    2.5275   -1.0151 H       1  UNL1        0.0391
     44 H           2.9290    2.7322    0.9686 H       1  UNL1        0.0433
     45 H           3.1660    3.3298   -0.8010 H       1  UNL1        0.0433
     46 H           4.6177   -1.3850   -0.0848 H       1  UNL1        0.0812
     47 H           2.5542   -3.7782   -0.4309 H       1  UNL1        0.0456
     48 H           1.8942   -3.6318    1.2723 H       1  UNL1        0.0456
     49 H           3.7113   -3.5893    0.9272 H       1  UNL1        0.0456
     50 H          -0.0990   -1.6202    1.8326 H       1  UNL1        0.0619
     51 H          -0.4835   -1.0632   -1.9032 H       1  UNL1        0.0621
     52 H          -1.5665   -2.7820   -3.3579 H       1  UNL1        0.0632
     53 H          -2.0518   -5.3210   -0.0448 H       1  UNL1        0.0632
     54 H          -0.9648   -3.6014    1.4275 H       1  UNL1        0.0621
     55 H          -2.3737    0.3963   -1.2485 H       1  UNL1        0.0833
     56 H          -5.4010    0.1063   -2.7274 H       1  UNL1        0.0308
     57 H          -5.3321    1.8614   -3.0231 H       1  UNL1        0.0308
     58 H          -3.7960    1.0015   -2.8007 H       1  UNL1        0.0308
@<TRIPOS>BOND
     1     1     2    1
     2     2     3   ar
     3     3     4   ar
     4     4     5    1
     5     5     6   am
     6     6     7    2
     7     6     8    1
     8     8     9   ar
     9     9    10    1
    10    10    11    1
    11    11    12    1
    12    12    13    1
    13    12    14    1
    14     9    15   ar
    15    15    16   ar
    16    16    17    1
    17    16    18   ar
    18    18    19    1
    19    19    20    1
    20    20    21   ar
    21    21    22   ar
    22    22    23   ar
    23    23    24    1
    24    23    25   ar
    25    25    26   ar
    26     4    27   ar
    27    27    28   ar
    28    28    29   ar
    29    29    30    1
    30    29    31   ar
    31    31    32   ar
    32    32    33   ar
    33    33     2   ar
    34    19     5    1
    35    26    20   ar
    36    33    28   ar
    37    18     8   ar
    38    14    10    1
    39     1    34    1
    40     1    35    1
    41     1    36    1
    42     3    37    1
    43    10    38    1
    44    11    39    1
    45    11    40    1
    46    13    41    1
    47    13    42    1
    48    13    43    1
    49    14    44    1
    50    14    45    1
    51    15    46    1
    52    17    47    1
    53    17    48    1
    54    17    49    1
    55    19    50    1
    56    21    51    1
    57    22    52    1
    58    25    53    1
    59    26    54    1
    60    27    55    1
    61    30    56    1
    62    30    57    1
    63    30    58    1
