@<TRIPOS>MOLECULE
*****
 42 45 0 0 0
SMALL
GASTEIGER

@<TRIPOS>ATOM
      1 C           3.7014   -2.0750    1.2957 C.3     1  UNL1       -0.0395
      2 C           3.6454   -0.5926    1.6660 C.3     1  UNL1        0.0802
      3 N           2.3358   -0.2197    2.0932 N.pl3   1  UNL1       -0.3038
      4 C           1.1634   -0.3637    1.2882 C.ar    1  UNL1        0.2193
      5 N          -0.0522   -0.0029    1.7161 N.ar    1  UNL1       -0.1987
      6 C          -1.1755   -0.1265    0.9915 C.ar    1  UNL1        0.1384
      7 N          -2.4159    0.2789    1.5254 N.pl3   1  UNL1       -0.2825
      8 C          -3.6788    0.2438    0.9413 C.ar    1  UNL1        0.1419
      9 C          -4.3169    1.2415    0.2059 C.ar    1  UNL1        0.0457
     10 N          -5.5492    0.7981   -0.1658 N.ar    1  UNL1       -0.3380
     11 C          -6.4938    1.5739   -0.9453 C.3     1  UNL1        0.0128
     12 C          -5.6843   -0.4498    0.3242 C.ar    1  UNL1        0.0979
     13 N          -4.5534   -0.7779    0.9904 N.ar    1  UNL1       -0.2209
     14 C          -1.0733   -0.6525   -0.2596 C.ar    1  UNL1        0.0588
     15 C          -1.9519   -0.9337   -1.2721 C.ar    1  UNL1       -0.0318
     16 C          -1.2805   -1.4757   -2.3460 C.ar    1  UNL1        0.0042
     17 N           0.0128   -1.5263   -1.9894 N.ar    1  UNL1       -0.3456
     18 C           0.1740   -1.0410   -0.7443 C.ar    1  UNL1        0.1451
     19 N           1.2536   -0.8824    0.0496 N.ar    1  UNL1       -0.1966
     20 C           4.1908    0.2359    0.5875 C.ar    1  UNL1        0.1489
     21 N           3.4972    0.6377   -0.4928 N.ar    1  UNL1       -0.2356
     22 C           4.0612    1.3963   -1.4520 C.ar    1  UNL1        0.0664
     23 C           5.3881    1.7918   -1.3562 C.ar    1  UNL1        0.1594
     24 F           5.9902    2.5518   -2.2956 F       1  UNL1       -0.2023
     25 C           6.0922    1.3763   -0.2466 C.ar    1  UNL1        0.0664
     26 N           5.4722    0.6309    0.6577 N.ar    1  UNL1       -0.2356
     27 H           2.6808   -2.5126    1.4311 H       1  UNL1        0.0252
     28 H           4.3747   -2.6577    1.9438 H       1  UNL1        0.0252
     29 H           4.0603   -2.2173    0.2465 H       1  UNL1        0.0252
     30 H           4.3355   -0.5026    2.5432 H       1  UNL1        0.0577
     31 H           2.2018    0.1831    3.0416 H       1  UNL1        0.1496
     32 H          -2.4152    0.6782    2.5294 H       1  UNL1        0.1550
     33 H          -3.8505    2.1911    0.0011 H       1  UNL1        0.0844
     34 H          -6.4688    2.6410   -0.6602 H       1  UNL1        0.0456
     35 H          -6.2161    1.4878   -2.0171 H       1  UNL1        0.0456
     36 H          -7.5024    1.1809   -0.7236 H       1  UNL1        0.0456
     37 H          -6.5837   -1.0443    0.1739 H       1  UNL1        0.1029
     38 H          -3.0022   -0.7758   -1.2731 H       1  UNL1        0.0640
     39 H          -1.7399   -1.7888   -3.2796 H       1  UNL1        0.0807
     40 H           0.7495   -1.8999   -2.6267 H       1  UNL1        0.1668
     41 H           3.4979    1.7247   -2.3329 H       1  UNL1        0.0860
     42 H           7.1258    1.6750   -0.1555 H       1  UNL1        0.0860
@<TRIPOS>BOND
     1     1     2    1
     2     2     3    1
     3     3     4    1
     4     4     5   ar
     5     5     6   ar
     6     6     7    1
     7     7     8    1
     8     8     9   ar
     9     9    10   ar
    10    10    11    1
    11    10    12   ar
    12    12    13   ar
    13     6    14   ar
    14    14    15   ar
    15    15    16   ar
    16    16    17   ar
    17    17    18   ar
    18    18    19   ar
    19     2    20    1
    20    20    21   ar
    21    21    22   ar
    22    22    23   ar
    23    23    24    1
    24    23    25   ar
    25    25    26   ar
    26    19     4   ar
    27    26    20   ar
    28    13     8   ar
    29    18    14   ar
    30     1    27    1
    31     1    28    1
    32     1    29    1
    33     2    30    1
    34     3    31    1
    35     7    32    1
    36     9    33    1
    37    11    34    1
    38    11    35    1
    39    11    36    1
    40    12    37    1
    41    15    38    1
    42    16    39    1
    43    17    40    1
    44    22    41    1
    45    25    42    1
