@<TRIPOS>MOLECULE
*****
 57 61 0 0 0
SMALL
GASTEIGER

@<TRIPOS>ATOM
      1 O           1.4929   -2.1488   -1.4808 O.2     1  UNL1       -0.2758
      2 C           1.5077   -1.1047   -0.7979 C.2     1  UNL1        0.2136
      3 C           2.7907   -0.5535   -0.3524 C.3     1  UNL1        0.0308
      4 C           3.9362   -1.4136   -0.8378 C.3     1  UNL1        0.0137
      5 C           5.2292   -0.8292   -0.3698 C.ar    1  UNL1        0.1108
      6 N           5.2810    0.2940    0.3672 N.ar    1  UNL1       -0.2337
      7 C           6.4526    0.7964    0.7735 C.ar    1  UNL1        0.0781
      8 C           6.4969    1.9414    1.5243 C.ar    1  UNL1       -0.0355
      9 C           7.7096    2.4636    1.9462 C.ar    1  UNL1       -0.0597
     10 C           8.9021    1.8601    1.6315 C.ar    1  UNL1       -0.0609
     11 C           8.8493    0.7085    0.8758 C.ar    1  UNL1       -0.0474
     12 C           7.6391    0.1780    0.4486 C.ar    1  UNL1        0.0647
     13 C           7.5749   -0.9650   -0.3022 C.ar    1  UNL1        0.2592
     14 O           8.6476   -1.5582   -0.6181 O.2     1  UNL1       -0.2672
     15 N           6.3845   -1.4397   -0.6916 N.ar    1  UNL1       -0.3103
     16 N           0.2453   -0.5216   -0.5011 N.am    1  UNL1       -0.3124
     17 C          -1.0077   -1.0391   -0.9226 C.3     1  UNL1        0.0232
     18 C          -1.7667   -1.4804    0.3231 C.3     1  UNL1       -0.0326
     19 C          -3.2491   -1.2092    0.2011 C.3     1  UNL1       -0.0303
     20 C          -3.5365    0.2837    0.0969 C.3     1  UNL1        0.0395
     21 N          -4.8367    0.5675   -0.4173 N.ar    1  UNL1       -0.2891
     22 C          -5.1750    1.0461   -1.6147 C.ar    1  UNL1        0.3278
     23 O          -4.4288    1.3594   -2.5711 O.2     1  UNL1       -0.2465
     24 N          -6.5139    1.1642   -1.6853 N.ar    1  UNL1       -0.3059
     25 C          -7.0613    0.7604   -0.5257 C.ar    1  UNL1        0.0684
     26 C          -8.3655    0.7035   -0.1411 C.ar    1  UNL1       -0.0179
     27 C          -8.6600    0.2413    1.1283 C.ar    1  UNL1        0.0430
     28 CL        -10.3434    0.1786    1.5961 Cl      1  UNL1       -0.0835
     29 C          -7.6318   -0.1423    1.9526 C.ar    1  UNL1       -0.0413
     30 C          -6.3142   -0.0740    1.5357 C.ar    1  UNL1       -0.0346
     31 C          -6.0001    0.3843    0.2729 C.ar    1  UNL1        0.0700
     32 C          -2.4177    0.9044   -0.6699 C.3     1  UNL1       -0.0303
     33 C          -1.9079   -0.1052   -1.6538 C.3     1  UNL1       -0.0326
     34 H           2.9615    0.4662   -0.8077 H       1  UNL1        0.0362
     35 H           2.8429   -0.3833    0.7430 H       1  UNL1        0.0362
     36 H           3.8002   -2.4548   -0.4296 H       1  UNL1        0.0348
     37 H           3.9024   -1.4552   -1.9376 H       1  UNL1        0.0348
     38 H           5.5841    2.4454    1.7926 H       1  UNL1        0.0639
     39 H           7.7219    3.3684    2.5380 H       1  UNL1        0.0618
     40 H           9.8425    2.2670    1.9600 H       1  UNL1        0.0618
     41 H           9.7818    0.2156    0.6161 H       1  UNL1        0.0626
     42 H           6.3349   -2.3064   -1.2610 H       1  UNL1        0.1700
     43 H           0.2610    0.3518    0.0707 H       1  UNL1        0.1490
     44 H          -0.8351   -1.9715   -1.5164 H       1  UNL1        0.0498
     45 H          -1.6386   -2.5420    0.5452 H       1  UNL1        0.0284
     46 H          -1.4206   -0.9000    1.2209 H       1  UNL1        0.0284
     47 H          -3.6975   -1.5448    1.1603 H       1  UNL1        0.0286
     48 H          -3.7397   -1.7931   -0.5904 H       1  UNL1        0.0286
     49 H          -3.5239    0.7014    1.1484 H       1  UNL1        0.0529
     50 H          -7.0633    1.5177   -2.5159 H       1  UNL1        0.1705
     51 H          -9.1577    1.0181   -0.8266 H       1  UNL1        0.0653
     52 H          -7.8580   -0.5007    2.9366 H       1  UNL1        0.0633
     53 H          -5.5121   -0.3786    2.1953 H       1  UNL1        0.0639
     54 H          -1.6037    1.1550    0.0739 H       1  UNL1        0.0286
     55 H          -2.6707    1.8777   -1.1275 H       1  UNL1        0.0286
     56 H          -2.7612   -0.7434   -2.0362 H       1  UNL1        0.0284
     57 H          -1.4746    0.3385   -2.5657 H       1  UNL1        0.0284
@<TRIPOS>BOND
     1     1     2    2
     2     2     3    1
     3     3     4    1
     4     4     5    1
     5     5     6   ar
     6     6     7   ar
     7     7     8   ar
     8     8     9   ar
     9     9    10   ar
    10    10    11   ar
    11    11    12   ar
    12    12    13   ar
    13    13    14    2
    14    13    15   ar
    15     2    16   am
    16    16    17    1
    17    17    18    1
    18    18    19    1
    19    19    20    1
    20    20    21    1
    21    21    22   ar
    22    22    23    2
    23    22    24   ar
    24    24    25   ar
    25    25    26   ar
    26    26    27   ar
    27    27    28    1
    28    27    29   ar
    29    29    30   ar
    30    30    31   ar
    31    20    32    1
    32    32    33    1
    33    15     5   ar
    34    33    17    1
    35    12     7   ar
    36    31    21   ar
    37    31    25   ar
    38     3    34    1
    39     3    35    1
    40     4    36    1
    41     4    37    1
    42     8    38    1
    43     9    39    1
    44    10    40    1
    45    11    41    1
    46    15    42    1
    47    16    43    1
    48    17    44    1
    49    18    45    1
    50    18    46    1
    51    19    47    1
    52    19    48    1
    53    20    49    1
    54    24    50    1
    55    26    51    1
    56    29    52    1
    57    30    53    1
    58    32    54    1
    59    32    55    1
    60    33    56    1
    61    33    57    1
