
     RDKit          3D

 57 61  0  0  0  0  0  0  0  0999 V2000
    1.4929   -2.1488   -1.4808 O   0  0  0  0  0  0  0  0  0  0  0  0
    1.5077   -1.1047   -0.7979 C   0  0  0  0  0  0  0  0  0  0  0  0
    2.7907   -0.5535   -0.3524 C   0  0  0  0  0  0  0  0  0  0  0  0
    3.9362   -1.4136   -0.8378 C   0  0  0  0  0  0  0  0  0  0  0  0
    5.2292   -0.8292   -0.3698 C   0  0  0  0  0  0  0  0  0  0  0  0
    5.2810    0.2940    0.3672 N   0  0  0  0  0  0  0  0  0  0  0  0
    6.4526    0.7964    0.7735 C   0  0  0  0  0  0  0  0  0  0  0  0
    6.4969    1.9414    1.5243 C   0  0  0  0  0  0  0  0  0  0  0  0
    7.7096    2.4636    1.9462 C   0  0  0  0  0  0  0  0  0  0  0  0
    8.9021    1.8601    1.6315 C   0  0  0  0  0  0  0  0  0  0  0  0
    8.8493    0.7085    0.8758 C   0  0  0  0  0  0  0  0  0  0  0  0
    7.6391    0.1780    0.4486 C   0  0  0  0  0  0  0  0  0  0  0  0
    7.5749   -0.9650   -0.3022 C   0  0  0  0  0  0  0  0  0  0  0  0
    8.6476   -1.5582   -0.6181 O   0  0  0  0  0  0  0  0  0  0  0  0
    6.3845   -1.4397   -0.6916 N   0  0  0  0  0  0  0  0  0  0  0  0
    0.2453   -0.5216   -0.5011 N   0  0  0  0  0  0  0  0  0  0  0  0
   -1.0077   -1.0391   -0.9226 C   0  0  1  0  0  0  0  0  0  0  0  0
   -1.7667   -1.4804    0.3231 C   0  0  0  0  0  0  0  0  0  0  0  0
   -3.2491   -1.2092    0.2011 C   0  0  0  0  0  0  0  0  0  0  0  0
   -3.5365    0.2837    0.0969 C   0  0  2  0  0  0  0  0  0  0  0  0
   -4.8367    0.5675   -0.4173 N   0  0  0  0  0  0  0  0  0  0  0  0
   -5.1750    1.0461   -1.6147 C   0  0  0  0  0  0  0  0  0  0  0  0
   -4.4288    1.3594   -2.5711 O   0  0  0  0  0  0  0  0  0  0  0  0
   -6.5139    1.1642   -1.6853 N   0  0  0  0  0  0  0  0  0  0  0  0
   -7.0613    0.7604   -0.5257 C   0  0  0  0  0  0  0  0  0  0  0  0
   -8.3655    0.7035   -0.1411 C   0  0  0  0  0  0  0  0  0  0  0  0
   -8.6600    0.2413    1.1283 C   0  0  0  0  0  0  0  0  0  0  0  0
  -10.3434    0.1786    1.5961 Cl  0  0  0  0  0  0  0  0  0  0  0  0
   -7.6318   -0.1423    1.9526 C   0  0  0  0  0  0  0  0  0  0  0  0
   -6.3142   -0.0740    1.5357 C   0  0  0  0  0  0  0  0  0  0  0  0
   -6.0001    0.3843    0.2729 C   0  0  0  0  0  0  0  0  0  0  0  0
   -2.4177    0.9044   -0.6699 C   0  0  0  0  0  0  0  0  0  0  0  0
   -1.9079   -0.1052   -1.6538 C   0  0  0  0  0  0  0  0  0  0  0  0
    2.9615    0.4662   -0.8077 H   0  0  0  0  0  0  0  0  0  0  0  0
    2.8429   -0.3833    0.7430 H   0  0  0  0  0  0  0  0  0  0  0  0
    3.8002   -2.4548   -0.4296 H   0  0  0  0  0  0  0  0  0  0  0  0
    3.9024   -1.4552   -1.9376 H   0  0  0  0  0  0  0  0  0  0  0  0
    5.5841    2.4454    1.7926 H   0  0  0  0  0  0  0  0  0  0  0  0
    7.7219    3.3684    2.5380 H   0  0  0  0  0  0  0  0  0  0  0  0
    9.8425    2.2670    1.9600 H   0  0  0  0  0  0  0  0  0  0  0  0
    9.7818    0.2156    0.6161 H   0  0  0  0  0  0  0  0  0  0  0  0
    6.3349   -2.3064   -1.2610 H   0  0  0  0  0  0  0  0  0  0  0  0
    0.2610    0.3518    0.0707 H   0  0  0  0  0  0  0  0  0  0  0  0
   -0.8351   -1.9715   -1.5164 H   0  0  0  0  0  0  0  0  0  0  0  0
   -1.6386   -2.5420    0.5452 H   0  0  0  0  0  0  0  0  0  0  0  0
   -1.4206   -0.9000    1.2209 H   0  0  0  0  0  0  0  0  0  0  0  0
   -3.6975   -1.5448    1.1603 H   0  0  0  0  0  0  0  0  0  0  0  0
   -3.7397   -1.7931   -0.5904 H   0  0  0  0  0  0  0  0  0  0  0  0
   -3.5239    0.7014    1.1484 H   0  0  0  0  0  0  0  0  0  0  0  0
   -7.0633    1.5177   -2.5159 H   0  0  0  0  0  0  0  0  0  0  0  0
   -9.1577    1.0181   -0.8266 H   0  0  0  0  0  0  0  0  0  0  0  0
   -7.8580   -0.5007    2.9366 H   0  0  0  0  0  0  0  0  0  0  0  0
   -5.5121   -0.3786    2.1953 H   0  0  0  0  0  0  0  0  0  0  0  0
   -1.6037    1.1550    0.0739 H   0  0  0  0  0  0  0  0  0  0  0  0
   -2.6707    1.8777   -1.1275 H   0  0  0  0  0  0  0  0  0  0  0  0
   -2.7612   -0.7434   -2.0362 H   0  0  0  0  0  0  0  0  0  0  0  0
   -1.4746    0.3385   -2.5657 H   0  0  0  0  0  0  0  0  0  0  0  0
  1  2  2  0
  2  3  1  0
  3  4  1  0
  4  5  1  0
  5  6  2  0
  6  7  1  0
  7  8  2  0
  8  9  1  0
  9 10  2  0
 10 11  1  0
 11 12  2  0
 12 13  1  0
 13 14  2  0
 13 15  1  0
  2 16  1  0
 16 17  1  0
 17 18  1  0
 18 19  1  0
 19 20  1  0
 20 21  1  0
 21 22  1  0
 22 23  2  0
 22 24  1  0
 24 25  1  0
 25 26  2  0
 26 27  1  0
 27 28  1  0
 27 29  2  0
 29 30  1  0
 30 31  2  0
 20 32  1  0
 32 33  1  0
 15  5  1  0
 33 17  1  0
 12  7  1  0
 31 21  1  0
 31 25  1  0
  3 34  1  0
  3 35  1  0
  4 36  1  0
  4 37  1  0
  8 38  1  0
  9 39  1  0
 10 40  1  0
 11 41  1  0
 15 42  1  0
 16 43  1  0
 17 44  1  6
 18 45  1  0
 18 46  1  0
 19 47  1  0
 19 48  1  0
 20 49  1  1
 24 50  1  0
 26 51  1  0
 29 52  1  0
 30 53  1  0
 32 54  1  0
 32 55  1  0
 33 56  1  0
 33 57  1  0
M  END
$$$$
