
     RDKit          3D

 45 47  0  0  0  0  0  0  0  0999 V2000
   -2.0176   -2.3419    0.1617 C   0  0  0  0  0  0  0  0  0  0  0  0
   -3.1860   -1.4319    0.1993 C   0  0  0  0  0  0  0  0  0  0  0  0
   -4.4571   -1.8466   -0.4995 C   0  0  0  0  0  0  0  0  0  0  0  0
   -3.1189   -0.2814    0.8304 C   0  0  0  0  0  0  0  0  0  0  0  0
   -1.8889    0.1491    1.5207 C   0  0  0  0  0  0  0  0  0  0  0  0
   -1.3780    1.4470    1.0229 C   0  0  0  0  0  0  0  0  0  0  0  0
   -2.0424    2.5995    1.4045 C   0  0  0  0  0  0  0  0  0  0  0  0
   -3.1611    2.5756    2.2265 O   0  0  0  0  0  0  0  0  0  0  0  0
   -1.6024    3.8329    0.9693 C   0  0  0  0  0  0  0  0  0  0  0  0
   -0.4911    3.8526    0.1532 C   0  0  0  0  0  0  0  0  0  0  0  0
   -0.0356    5.0882   -0.2937 O   0  0  0  0  0  0  0  0  0  0  0  0
    0.1727    2.7000   -0.2278 C   0  0  0  0  0  0  0  0  0  0  0  0
   -0.2708    1.4585    0.2108 C   0  0  0  0  0  0  0  0  0  0  0  0
    0.4285    0.3366   -0.1978 O   0  0  0  0  0  0  0  0  0  0  0  0
    1.4232    0.2842   -1.1667 C   0  0  2  0  0  0  0  0  0  0  0  0
    2.2964   -0.8831   -0.8559 C   0  0  0  0  0  0  0  0  0  0  0  0
    2.7090   -1.7657   -1.8318 C   0  0  0  0  0  0  0  0  0  0  0  0
    3.5120   -2.8518   -1.5910 C   0  0  0  0  0  0  0  0  0  0  0  0
    3.9362   -3.0812   -0.2967 C   0  0  0  0  0  0  0  0  0  0  0  0
    4.7458   -4.1851   -0.0843 O   0  0  0  0  0  0  0  0  0  0  0  0
    3.5486   -2.2252    0.7114 C   0  0  0  0  0  0  0  0  0  0  0  0
    2.7355   -1.1333    0.4407 C   0  0  0  0  0  0  0  0  0  0  0  0
    2.1985    1.5410   -1.3657 C   0  0  0  0  0  0  0  0  0  0  0  0
    1.3438    2.7206   -1.0884 C   0  0  0  0  0  0  0  0  0  0  0  0
    1.6346    3.8375   -1.6284 O   0  0  0  0  0  0  0  0  0  0  0  0
   -2.2921   -3.2795   -0.3779 H   0  0  0  0  0  0  0  0  0  0  0  0
   -1.6890   -2.5877    1.2104 H   0  0  0  0  0  0  0  0  0  0  0  0
   -1.1801   -1.8489   -0.3651 H   0  0  0  0  0  0  0  0  0  0  0  0
   -4.3428   -1.7682   -1.6011 H   0  0  0  0  0  0  0  0  0  0  0  0
   -4.7065   -2.8500   -0.1581 H   0  0  0  0  0  0  0  0  0  0  0  0
   -5.2950   -1.1749   -0.1972 H   0  0  0  0  0  0  0  0  0  0  0  0
   -3.9678    0.3637    0.8499 H   0  0  0  0  0  0  0  0  0  0  0  0
   -1.1404   -0.6556    1.4384 H   0  0  0  0  0  0  0  0  0  0  0  0
   -2.1066    0.2205    2.6255 H   0  0  0  0  0  0  0  0  0  0  0  0
   -3.0471    2.1257    3.1262 H   0  0  0  0  0  0  0  0  0  0  0  0
   -2.1060    4.7470    1.2552 H   0  0  0  0  0  0  0  0  0  0  0  0
    0.7627    5.4967    0.1960 H   0  0  0  0  0  0  0  0  0  0  0  0
    0.9189    0.0290   -2.1415 H   0  0  0  0  0  0  0  0  0  0  0  0
    2.3611   -1.5610   -2.8381 H   0  0  0  0  0  0  0  0  0  0  0  0
    3.8126   -3.5249   -2.4051 H   0  0  0  0  0  0  0  0  0  0  0  0
    5.0237   -4.4269    0.8720 H   0  0  0  0  0  0  0  0  0  0  0  0
    3.8969   -2.4304    1.7173 H   0  0  0  0  0  0  0  0  0  0  0  0
    2.4401   -0.4724    1.2387 H   0  0  0  0  0  0  0  0  0  0  0  0
    2.5099    1.5983   -2.4354 H   0  0  0  0  0  0  0  0  0  0  0  0
    3.1125    1.6031   -0.7337 H   0  0  0  0  0  0  0  0  0  0  0  0
  1  2  1  0
  2  3  1  0
  2  4  2  3
  4  5  1  0
  5  6  1  0
  6  7  2  0
  7  8  1  0
  7  9  1  0
  9 10  2  0
 10 11  1  0
 10 12  1  0
 12 13  2  0
 13 14  1  0
 14 15  1  0
 15 16  1  0
 16 17  2  0
 17 18  1  0
 18 19  2  0
 19 20  1  0
 19 21  1  0
 21 22  2  0
 15 23  1  0
 23 24  1  0
 24 25  2  0
 13  6  1  0
 22 16  1  0
 24 12  1  0
  1 26  1  0
  1 27  1  0
  1 28  1  0
  3 29  1  0
  3 30  1  0
  3 31  1  0
  4 32  1  0
  5 33  1  0
  5 34  1  0
  8 35  1  0
  9 36  1  0
 11 37  1  0
 15 38  1  6
 17 39  1  0
 18 40  1  0
 20 41  1  0
 21 42  1  0
 22 43  1  0
 23 44  1  0
 23 45  1  0
M  END
$$$$
