@<TRIPOS>MOLECULE
*****
 45 47 0 0 0
SMALL
GASTEIGER

@<TRIPOS>ATOM
      1 C          -2.0176   -2.3419    0.1617 C.3     1  UNL1       -0.0440
      2 C          -3.1860   -1.4319    0.1993 C.2     1  UNL1       -0.0793
      3 C          -4.4571   -1.8466   -0.4995 C.3     1  UNL1       -0.0440
      4 C          -3.1189   -0.2814    0.8304 C.2     1  UNL1       -0.0807
      5 C          -1.8889    0.1491    1.5207 C.3     1  UNL1       -0.0023
      6 C          -1.3780    1.4470    1.0229 C.ar    1  UNL1        0.0403
      7 C          -2.0424    2.5995    1.4045 C.ar    1  UNL1        0.1273
      8 O          -3.1611    2.5756    2.2265 O.3     1  UNL1       -0.5062
      9 C          -1.6024    3.8329    0.9693 C.ar    1  UNL1        0.0225
     10 C          -0.4911    3.8526    0.1532 C.ar    1  UNL1        0.1343
     11 O          -0.0356    5.0882   -0.2937 O.3     1  UNL1       -0.5058
     12 C           0.1727    2.7000   -0.2278 C.ar    1  UNL1        0.1009
     13 C          -0.2708    1.4585    0.2108 C.ar    1  UNL1        0.1423
     14 O           0.4285    0.3366   -0.1978 O.3     1  UNL1       -0.4826
     15 C           1.4232    0.2842   -1.1667 C.3     1  UNL1        0.1322
     16 C           2.2964   -0.8831   -0.8559 C.ar    1  UNL1       -0.0067
     17 C           2.7090   -1.7657   -1.8318 C.ar    1  UNL1       -0.0516
     18 C           3.5120   -2.8518   -1.5910 C.ar    1  UNL1       -0.0198
     19 C           3.9362   -3.0812   -0.2967 C.ar    1  UNL1        0.1169
     20 O           4.7458   -4.1851   -0.0843 O.3     1  UNL1       -0.5068
     21 C           3.5486   -2.2252    0.7114 C.ar    1  UNL1       -0.0198
     22 C           2.7355   -1.1333    0.4407 C.ar    1  UNL1       -0.0516
     23 C           2.1985    1.5410   -1.3657 C.3     1  UNL1        0.0520
     24 C           1.3438    2.7206   -1.0884 C.2     1  UNL1        0.1740
     25 O           1.6346    3.8375   -1.6284 O.2     1  UNL1       -0.2917
     26 H          -2.2921   -3.2795   -0.3779 H       1  UNL1        0.0274
     27 H          -1.6890   -2.5877    1.2104 H       1  UNL1        0.0274
     28 H          -1.1801   -1.8489   -0.3651 H       1  UNL1        0.0274
     29 H          -4.3428   -1.7682   -1.6011 H       1  UNL1        0.0274
     30 H          -4.7065   -2.8500   -0.1581 H       1  UNL1        0.0274
     31 H          -5.2950   -1.1749   -0.1972 H       1  UNL1        0.0274
     32 H          -3.9678    0.3637    0.8499 H       1  UNL1        0.0575
     33 H          -1.1404   -0.6556    1.4384 H       1  UNL1        0.0358
     34 H          -2.1066    0.2205    2.6255 H       1  UNL1        0.0358
     35 H          -3.0471    2.1257    3.1262 H       1  UNL1        0.2921
     36 H          -2.1060    4.7470    1.2552 H       1  UNL1        0.0691
     37 H           0.7627    5.4967    0.1960 H       1  UNL1        0.2922
     38 H           0.9189    0.0290   -2.1415 H       1  UNL1        0.0789
     39 H           2.3611   -1.5610   -2.8381 H       1  UNL1        0.0623
     40 H           3.8126   -3.5249   -2.4051 H       1  UNL1        0.0654
     41 H           5.0237   -4.4269    0.8720 H       1  UNL1        0.2921
     42 H           3.8969   -2.4304    1.7173 H       1  UNL1        0.0654
     43 H           2.4401   -0.4724    1.2387 H       1  UNL1        0.0623
     44 H           2.5099    1.5983   -2.4354 H       1  UNL1        0.0385
     45 H           3.1125    1.6031   -0.7337 H       1  UNL1        0.0385
@<TRIPOS>BOND
     1     1     2    1
     2     2     3    1
     3     2     4    2
     4     4     5    1
     5     5     6    1
     6     6     7   ar
     7     7     8    1
     8     7     9   ar
     9     9    10   ar
    10    10    11    1
    11    10    12   ar
    12    12    13   ar
    13    13    14    1
    14    14    15    1
    15    15    16    1
    16    16    17   ar
    17    17    18   ar
    18    18    19   ar
    19    19    20    1
    20    19    21   ar
    21    21    22   ar
    22    15    23    1
    23    23    24    1
    24    24    25    2
    25    13     6   ar
    26    22    16   ar
    27    24    12    1
    28     1    26    1
    29     1    27    1
    30     1    28    1
    31     3    29    1
    32     3    30    1
    33     3    31    1
    34     4    32    1
    35     5    33    1
    36     5    34    1
    37     8    35    1
    38     9    36    1
    39    11    37    1
    40    15    38    1
    41    17    39    1
    42    18    40    1
    43    20    41    1
    44    21    42    1
    45    22    43    1
    46    23    44    1
    47    23    45    1
