
     RDKit          3D

 42 43  0  0  0  0  0  0  0  0999 V2000
   -1.6498    0.0150   -1.4317 C   0  0  1  0  0  0  0  0  0  0  0  0
   -1.3893    1.4166   -0.8668 C   0  0  0  0  0  0  0  0  0  0  0  0
   -0.0942    1.1192   -0.0998 C   0  0  2  0  0  0  0  0  0  0  0  0
    0.6583    2.2858    0.2152 N   0  0  0  0  0  0  0  0  0  0  0  0
    1.1634    2.3645    1.3437 N   0  0  0  0  0  4  0  0  0  0  0  0
    1.4700    2.5003    2.5471 N   0  0  0  0  0  2  0  0  0  0  0  0
    0.5371    0.2126   -1.1312 C   0  0  1  0  0  0  0  0  0  0  0  0
    1.8060   -0.4181   -0.6543 C   0  0  0  0  0  0  0  0  0  0  0  0
    2.7495    0.5995   -0.4966 O   0  0  0  0  0  0  0  0  0  0  0  0
    4.2322    0.0342    0.0378 P   0  0  0  0  0  0  0  0  0  0  0  0
    4.5159    0.4817    1.6521 O   0  0  0  0  0  0  0  0  0  0  0  0
    5.3227    0.6752   -0.7893 O   0  0  0  0  0  0  0  0  0  0  0  0
    4.2933   -1.6539   -0.0813 O   0  0  0  0  0  0  0  0  0  0  0  0
    5.9275   -2.1017   -0.1498 P   0  0  0  0  0  0  0  0  0  0  0  0
    6.6402   -1.6516    1.3110 O   0  0  0  0  0  0  0  0  0  0  0  0
    6.6446   -1.2224   -1.4086 O   0  0  0  0  0  0  0  0  0  0  0  0
    6.0633   -3.5640   -0.4323 O   0  0  0  0  0  0  0  0  0  0  0  0
   -0.4906   -0.7041   -1.3283 O   0  0  0  0  0  0  0  0  0  0  0  0
   -2.7124   -0.5282   -0.5722 N   0  0  0  0  0  0  0  0  0  0  0  0
   -3.8380    0.1734   -0.3963 C   0  0  0  0  0  0  0  0  0  0  0  0
   -4.8450   -0.3216    0.4068 C   0  0  0  0  0  0  0  0  0  0  0  0
   -6.1194    0.4336    0.6286 C   0  0  0  0  0  0  0  0  0  0  0  0
   -4.6406   -1.5519    1.0092 C   0  0  0  0  0  0  0  0  0  0  0  0
   -5.6134   -2.1267    1.8405 O   0  0  0  0  0  0  0  0  0  0  0  0
   -3.4962   -2.2399    0.8157 N   0  0  0  0  0  0  0  0  0  0  0  0
   -2.5194   -1.7389    0.0247 C   0  0  0  0  0  0  0  0  0  0  0  0
   -1.4225   -2.3176   -0.2072 O   0  0  0  0  0  0  0  0  0  0  0  0
   -2.0125    0.0542   -2.4621 H   0  0  0  0  0  0  0  0  0  0  0  0
   -2.1819    1.7747   -0.2120 H   0  0  0  0  0  0  0  0  0  0  0  0
   -1.1193    2.0683   -1.7064 H   0  0  0  0  0  0  0  0  0  0  0  0
   -0.3424    0.5030    0.7824 H   0  0  0  0  0  0  0  0  0  0  0  0
    0.7219    0.7215   -2.0870 H   0  0  0  0  0  0  0  0  0  0  0  0
    2.1732   -1.0665   -1.4814 H   0  0  0  0  0  0  0  0  0  0  0  0
    1.6834   -1.0540    0.2315 H   0  0  0  0  0  0  0  0  0  0  0  0
    3.6695    0.5012    2.1825 H   0  0  0  0  0  0  0  0  0  0  0  0
    6.6233   -0.6648    1.3625 H   0  0  0  0  0  0  0  0  0  0  0  0
    7.3721   -0.6417   -1.0782 H   0  0  0  0  0  0  0  0  0  0  0  0
   -4.0231    1.1454   -0.8600 H   0  0  0  0  0  0  0  0  0  0  0  0
   -5.9088    1.1488    1.4541 H   0  0  0  0  0  0  0  0  0  0  0  0
   -6.3571    1.0728   -0.2562 H   0  0  0  0  0  0  0  0  0  0  0  0
   -6.9506   -0.2215    0.8855 H   0  0  0  0  0  0  0  0  0  0  0  0
   -6.5411   -2.1364    1.4580 H   0  0  0  0  0  0  0  0  0  0  0  0
  1  2  1  0
  2  3  1  0
  3  4  1  0
  4  5  2  0
  5  6  2  0
  3  7  1  0
  7  8  1  0
  8  9  1  0
  9 10  1  0
 10 11  1  0
 10 12  2  0
 10 13  1  0
 13 14  1  0
 14 15  1  0
 14 16  1  0
 14 17  2  0
  7 18  1  0
  1 19  1  0
 19 20  1  0
 20 21  2  0
 21 22  1  0
 21 23  1  0
 23 24  1  0
 23 25  2  0
 25 26  1  0
 26 27  2  0
 18  1  1  0
 26 19  1  0
  1 28  1  6
  2 29  1  0
  2 30  1  0
  3 31  1  1
  7 32  1  6
  8 33  1  0
  8 34  1  0
 11 35  1  0
 15 36  1  0
 16 37  1  0
 20 38  1  0
 22 39  1  0
 22 40  1  0
 22 41  1  0
 24 42  1  0
M  CHG  2   5   1   6  -1
M  END
$$$$
