@<TRIPOS>MOLECULE
*****
 42 43 0 0 0
SMALL
GASTEIGER

@<TRIPOS>ATOM
      1 C          -1.6498    0.0150   -1.4317 C.3     1  UNL1        0.1421
      2 C          -1.3893    1.4166   -0.8668 C.3     1  UNL1        0.0244
      3 C          -0.0942    1.1192   -0.0998 C.3     1  UNL1        0.1617
      4 N           0.6583    2.2858    0.2152 N.2     1  UNL1        0.0825
      5 N           1.1634    2.3645    1.3437 N.2     1  UNL1       -0.0144
      6 N           1.4700    2.5003    2.5471 N.2     1  UNL1       -0.3282
      7 C           0.5371    0.2126   -1.1312 C.3     1  UNL1        0.1139
      8 C           1.8060   -0.4181   -0.6543 C.3     1  UNL1        0.0876
      9 O           2.7495    0.5995   -0.4966 O.3     1  UNL1       -0.2837
     10 P           4.2322    0.0342    0.0378 P.3     1  UNL1        0.4834
     11 O           4.5159    0.4817    1.6521 O.3     1  UNL1       -0.3022
     12 O           5.3227    0.6752   -0.7893 O.2     1  UNL1       -0.2269
     13 O           4.2933   -1.6539   -0.0813 O.3     1  UNL1       -0.1862
     14 P           5.9275   -2.1017   -0.1498 P.3     1  UNL1        0.4808
     15 O           6.6402   -1.6516    1.3110 O.3     1  UNL1       -0.3023
     16 O           6.6446   -1.2224   -1.4086 O.3     1  UNL1       -0.3023
     17 O           6.0633   -3.5640   -0.4323 O.2     1  UNL1       -0.2271
     18 O          -0.4906   -0.7041   -1.3283 O.3     1  UNL1       -0.3485
     19 N          -2.7124   -0.5282   -0.5722 N.ar    1  UNL1       -0.2722
     20 C          -3.8380    0.1734   -0.3963 C.ar    1  UNL1        0.0198
     21 C          -4.8450   -0.3216    0.4068 C.ar    1  UNL1        0.0273
     22 C          -6.1194    0.4336    0.6286 C.3     1  UNL1       -0.0333
     23 C          -4.6406   -1.5519    1.0092 C.ar    1  UNL1        0.2212
     24 O          -5.6134   -2.1267    1.8405 O.3     1  UNL1       -0.4921
     25 N          -3.4962   -2.2399    0.8157 N.ar    1  UNL1       -0.1575
     26 C          -2.5194   -1.7389    0.0247 C.ar    1  UNL1        0.3535
     27 O          -1.4225   -2.3176   -0.2072 O.2     1  UNL1       -0.2443
     28 H          -2.0125    0.0542   -2.4621 H       1  UNL1        0.0840
     29 H          -2.1819    1.7747   -0.2120 H       1  UNL1        0.0332
     30 H          -1.1193    2.0683   -1.7064 H       1  UNL1        0.0332
     31 H          -0.3424    0.5030    0.7824 H       1  UNL1        0.0643
     32 H           0.7219    0.7215   -2.0870 H       1  UNL1        0.0644
     33 H           2.1732   -1.0665   -1.4814 H       1  UNL1        0.0592
     34 H           1.6834   -1.0540    0.2315 H       1  UNL1        0.0592
     35 H           3.6695    0.5012    2.1825 H       1  UNL1        0.2220
     36 H           6.6233   -0.6648    1.3625 H       1  UNL1        0.2220
     37 H           7.3721   -0.6417   -1.0782 H       1  UNL1        0.2220
     38 H          -4.0231    1.1454   -0.8600 H       1  UNL1        0.0816
     39 H          -5.9088    1.1488    1.4541 H       1  UNL1        0.0280
     40 H          -6.3571    1.0728   -0.2562 H       1  UNL1        0.0280
     41 H          -6.9506   -0.2215    0.8855 H       1  UNL1        0.0280
     42 H          -6.5411   -2.1364    1.4580 H       1  UNL1        0.2937
@<TRIPOS>UNITY_ATOM_ATTR
5 1
charge 1
6 1
charge -1
@<TRIPOS>BOND
     1     1     2    1
     2     2     3    1
     3     3     4    1
     4     4     5    2
     5     5     6    2
     6     3     7    1
     7     7     8    1
     8     8     9    1
     9     9    10    1
    10    10    11    1
    11    10    12    2
    12    10    13    1
    13    13    14    1
    14    14    15    1
    15    14    16    1
    16    14    17    2
    17     7    18    1
    18     1    19    1
    19    19    20   ar
    20    20    21   ar
    21    21    22    1
    22    21    23   ar
    23    23    24    1
    24    23    25   ar
    25    25    26   ar
    26    26    27    2
    27    18     1    1
    28    26    19   ar
    29     1    28    1
    30     2    29    1
    31     2    30    1
    32     3    31    1
    33     7    32    1
    34     8    33    1
    35     8    34    1
    36    11    35    1
    37    15    36    1
    38    16    37    1
    39    20    38    1
    40    22    39    1
    41    22    40    1
    42    22    41    1
    43    24    42    1
