@<TRIPOS>MOLECULE
*****
 77 82 0 0 0
SMALL
GASTEIGER

@<TRIPOS>ATOM
      1 C          -7.5543    3.3749   -2.1008 C.3     1  UNL1       -0.0126
      2 N          -6.7408    2.2266   -2.1619 N.3     1  UNL1       -0.3024
      3 C          -6.8406    1.3599   -3.2595 C.3     1  UNL1        0.0145
      4 C          -5.5268    0.7266   -3.6788 C.3     1  UNL1        0.0278
      5 N          -4.7299    0.3525   -2.5524 N.am    1  UNL1       -0.2951
      6 C          -4.1313   -0.9182   -2.4872 C.2     1  UNL1        0.2468
      7 O          -4.2851   -1.7532   -3.4399 O.2     1  UNL1       -0.2700
      8 C          -3.3086   -1.3534   -1.3415 C.ar    1  UNL1        0.0389
      9 C          -1.9583   -1.5848   -1.4376 C.ar    1  UNL1       -0.0489
     10 C          -1.2075   -1.9924   -0.3243 C.ar    1  UNL1       -0.0513
     11 C          -1.8067   -2.1715    0.8970 C.ar    1  UNL1        0.0080
     12 C          -3.1780   -1.9425    1.0176 C.ar    1  UNL1        0.0482
     13 C          -3.8853   -1.5420   -0.1008 C.ar    1  UNL1       -0.0256
     14 N          -3.5037   -2.1762    2.2943 N.ar    1  UNL1       -0.3535
     15 C          -2.4318   -2.5420    3.0127 C.ar    1  UNL1        0.0603
     16 C          -2.2696   -2.8629    4.3347 C.ar    1  UNL1        0.0604
     17 C          -3.3985   -2.9285    5.2876 C.2     1  UNL1        0.2435
     18 N          -4.7385   -2.8853    4.8051 N.am    1  UNL1       -0.3253
     19 O          -3.2109   -3.0266    6.5187 O.2     1  UNL1       -0.2703
     20 C          -0.9972   -3.1908    4.7952 C.ar    1  UNL1       -0.0470
     21 C           0.0728   -3.1949    3.9434 C.ar    1  UNL1       -0.0525
     22 C          -0.0615   -2.8748    2.5936 C.ar    1  UNL1       -0.0053
     23 C           1.0645   -2.8990    1.6941 C.ar    1  UNL1        0.0198
     24 C           1.3223   -4.0897    1.0307 C.ar    1  UNL1       -0.0511
     25 C           2.3870   -4.2003    0.1549 C.ar    1  UNL1       -0.0593
     26 C           3.2136   -3.0805   -0.0572 C.ar    1  UNL1       -0.0376
     27 C           2.9908   -1.8918    0.5780 C.ar    1  UNL1        0.0698
     28 N           3.7792   -0.7235    0.3877 N.am    1  UNL1       -0.2791
     29 C           4.8273   -0.5381   -0.5162 C.2     1  UNL1        0.2483
     30 O           5.1526   -1.4721   -1.2784 O.2     1  UNL1       -0.2699
     31 C           5.5971    0.7275   -0.6359 C.ar    1  UNL1        0.0371
     32 C           5.4477    1.7896    0.2019 C.ar    1  UNL1       -0.0479
     33 C           6.2000    2.9400    0.0032 C.ar    1  UNL1       -0.0400
     34 C           7.1030    3.0689   -1.0070 C.ar    1  UNL1        0.0292
     35 N           7.8736    4.2294   -1.2227 N.pl3   1  UNL1       -0.3360
     36 C           7.8079    5.4067   -0.4129 C.3     1  UNL1        0.0004
     37 C           8.8081    4.2632   -2.3465 C.3     1  UNL1        0.0004
     38 C           7.2702    1.9770   -1.8840 C.ar    1  UNL1       -0.0400
     39 C           6.5076    0.8529   -1.6570 C.ar    1  UNL1       -0.0479
     40 C           1.9001   -1.8518    1.4468 C.ar    1  UNL1        0.1522
     41 F           1.6524   -0.6977    2.0898 F       1  UNL1       -0.2029
     42 C          -1.3155   -2.5489    2.1343 C.ar    1  UNL1        0.0159
     43 C          -4.5648    1.3070   -1.5002 C.3     1  UNL1        0.0278
     44 C          -5.8895    1.9256   -1.0857 C.3     1  UNL1        0.0145
     45 H          -7.1480    4.2235   -2.6939 H       1  UNL1        0.0391
     46 H          -8.5922    3.1114   -2.4012 H       1  UNL1        0.0391
     47 H          -7.6387    3.7012   -1.0218 H       1  UNL1        0.0391
     48 H          -7.2736    1.9038   -4.1355 H       1  UNL1        0.0442
     49 H          -7.5874    0.5463   -3.0176 H       1  UNL1        0.0442
     50 H          -5.7740   -0.1578   -4.2967 H       1  UNL1        0.0477
     51 H          -4.9985    1.4840   -4.3081 H       1  UNL1        0.0477
     52 H          -1.4788   -1.4483   -2.3978 H       1  UNL1        0.0625
     53 H          -0.1725   -2.1602   -0.4391 H       1  UNL1        0.0624
     54 H          -4.9480   -1.3644   -0.0055 H       1  UNL1        0.0646
     55 H          -4.4765   -2.0768    2.6809 H       1  UNL1        0.1659
     56 H          -5.4080   -2.1198    4.9295 H       1  UNL1        0.1453
     57 H          -5.0780   -3.7436    4.2596 H       1  UNL1        0.1453
     58 H          -0.8486   -3.4439    5.8309 H       1  UNL1        0.0626
     59 H           1.0938   -3.4435    4.2439 H       1  UNL1        0.0624
     60 H           0.7165   -4.9553    1.1702 H       1  UNL1        0.0625
     61 H           2.6074   -5.1215   -0.3723 H       1  UNL1        0.0618
     62 H           4.0435   -3.1984   -0.7448 H       1  UNL1        0.0637
     63 H           3.5516    0.1149    1.0072 H       1  UNL1        0.1552
     64 H           4.7366    1.7163    1.0201 H       1  UNL1        0.0626
     65 H           6.0086    3.7289    0.7219 H       1  UNL1        0.0636
     66 H           7.3763    6.2173   -1.0729 H       1  UNL1        0.0428
     67 H           8.8197    5.7844   -0.1233 H       1  UNL1        0.0428
     68 H           7.2334    5.2702    0.4992 H       1  UNL1        0.0428
     69 H           8.2565    4.0061   -3.2773 H       1  UNL1        0.0428
     70 H           9.3124    5.2433   -2.4499 H       1  UNL1        0.0428
     71 H           9.5693    3.4465   -2.2028 H       1  UNL1        0.0428
     72 H           7.9806    2.0503   -2.6965 H       1  UNL1        0.0636
     73 H           6.6677    0.0276   -2.3598 H       1  UNL1        0.0626
     74 H          -3.8323    2.0988   -1.7861 H       1  UNL1        0.0477
     75 H          -4.1378    0.8135   -0.6169 H       1  UNL1        0.0477
     76 H          -5.6385    2.8668   -0.5449 H       1  UNL1        0.0442
     77 H          -6.3852    1.2830   -0.2998 H       1  UNL1        0.0442
@<TRIPOS>BOND
     1     1     2    1
     2     2     3    1
     3     3     4    1
     4     4     5    1
     5     5     6   am
     6     6     7    2
     7     6     8    1
     8     8     9   ar
     9     9    10   ar
    10    10    11   ar
    11    11    12   ar
    12    12    13   ar
    13    12    14   ar
    14    14    15   ar
    15    15    16   ar
    16    16    17    1
    17    17    18   am
    18    17    19    2
    19    16    20   ar
    20    20    21   ar
    21    21    22   ar
    22    22    23    1
    23    23    24   ar
    24    24    25   ar
    25    25    26   ar
    26    26    27   ar
    27    27    28    1
    28    28    29   am
    29    29    30    2
    30    29    31    1
    31    31    32   ar
    32    32    33   ar
    33    33    34   ar
    34    34    35    1
    35    35    36    1
    36    35    37    1
    37    34    38   ar
    38    38    39   ar
    39    27    40   ar
    40    40    41    1
    41    22    42   ar
    42     5    43    1
    43    43    44    1
    44    44     2    1
    45    13     8   ar
    46    42    15   ar
    47    42    11   ar
    48    40    23   ar
    49    39    31   ar
    50     1    45    1
    51     1    46    1
    52     1    47    1
    53     3    48    1
    54     3    49    1
    55     4    50    1
    56     4    51    1
    57     9    52    1
    58    10    53    1
    59    13    54    1
    60    14    55    1
    61    18    56    1
    62    18    57    1
    63    20    58    1
    64    21    59    1
    65    24    60    1
    66    25    61    1
    67    26    62    1
    68    28    63    1
    69    32    64    1
    70    33    65    1
    71    36    66    1
    72    36    67    1
    73    36    68    1
    74    37    69    1
    75    37    70    1
    76    37    71    1
    77    38    72    1
    78    39    73    1
    79    43    74    1
    80    43    75    1
    81    44    76    1
    82    44    77    1
