@<TRIPOS>MOLECULE
*****
 81 84 0 0 0
SMALL
GASTEIGER

@<TRIPOS>ATOM
      1 C          -0.8771    5.9932   -1.5962 C.3     1  UNL1       -0.0307
      2 C          -1.5118    4.7111   -1.1500 C.3     1  UNL1        0.0868
      3 O          -1.0347    3.6087   -1.8975 O.3     1  UNL1       -0.4922
      4 C          -1.5325    2.3644   -1.5903 C.ar    1  UNL1        0.1205
      5 C          -2.4656    2.1425   -0.6033 C.ar    1  UNL1       -0.0197
      6 C          -2.9429    0.8862   -0.3198 C.ar    1  UNL1       -0.0550
      7 C          -2.4560   -0.1813   -1.0616 C.ar    1  UNL1       -0.0449
      8 C          -3.0053   -1.5106   -0.8146 C.3     1  UNL1       -0.0006
      9 C          -2.5786   -2.2356    0.3994 C.3     1  UNL1        0.1036
     10 N          -3.2782   -3.5518    0.4224 N.am    1  UNL1       -0.2997
     11 C          -4.2361   -3.8879    1.3874 C.2     1  UNL1        0.2447
     12 O          -4.4765   -2.9845    2.2611 O.2     1  UNL1       -0.2702
     13 C          -4.9424   -5.1488    1.4509 C.ar    1  UNL1        0.0367
     14 C          -5.8574   -5.3583    2.4580 C.ar    1  UNL1       -0.0496
     15 C          -6.5658   -6.5484    2.5661 C.ar    1  UNL1       -0.0610
     16 C          -6.3525   -7.5431    1.6491 C.ar    1  UNL1       -0.0617
     17 C          -5.4361   -7.3302    0.6425 C.ar    1  UNL1       -0.0610
     18 C          -4.7290   -6.1343    0.5400 C.ar    1  UNL1       -0.0496
     19 C          -1.1416   -2.4452    0.5437 C.2     1  UNL1        0.2343
     20 O          -0.6838   -3.6594    0.7017 O.2     1  UNL1       -0.2738
     21 N          -0.1007   -1.5001    0.5512 N.am    1  UNL1       -0.3022
     22 C           1.2638   -1.8217    0.7485 C.3     1  UNL1        0.1033
     23 C           2.1367   -2.1406   -0.3886 C.3     1  UNL1       -0.0007
     24 C           2.3475   -1.1790   -1.4496 C.ar    1  UNL1       -0.0451
     25 C           3.3263   -0.1971   -1.3097 C.ar    1  UNL1       -0.0585
     26 C           3.5698    0.7037   -2.3395 C.ar    1  UNL1       -0.0615
     27 C           2.8353    0.6193   -3.5021 C.ar    1  UNL1       -0.0617
     28 C           1.8538   -0.3668   -3.6382 C.ar    1  UNL1       -0.0615
     29 C           1.6168   -1.2547   -2.6175 C.ar    1  UNL1       -0.0585
     30 C           1.9765   -0.8828    1.6533 C.2     1  UNL1        0.2339
     31 O           3.1707   -1.1423    1.9088 O.2     1  UNL1       -0.2738
     32 N           1.3865    0.2580    2.2201 N.am    1  UNL1       -0.3097
     33 C           2.1260    1.1443    3.0769 C.3     1  UNL1        0.0369
     34 C           3.0176    2.0488    2.3234 C.ar    1  UNL1       -0.0303
     35 C           4.3421    1.8155    2.0608 C.ar    1  UNL1       -0.0568
     36 C           5.1183    2.6964    1.3206 C.ar    1  UNL1       -0.0570
     37 C           4.5906    3.8576    0.8116 C.ar    1  UNL1       -0.0338
     38 C           5.4367    4.7840    0.0105 C.3     1  UNL1        0.0185
     39 N           6.0930    5.7568    0.8319 N.3     1  UNL1       -0.3261
     40 C           3.2609    4.1113    1.0665 C.ar    1  UNL1       -0.0570
     41 C           2.4909    3.2393    1.7983 C.ar    1  UNL1       -0.0568
     42 C          -1.5222   -0.0086   -2.0594 C.ar    1  UNL1       -0.0550
     43 C          -1.0744    1.2689   -2.3078 C.ar    1  UNL1       -0.0197
     44 H          -1.5340    6.8673   -1.3523 H       1  UNL1        0.0262
     45 H           0.0846    6.1943   -1.0632 H       1  UNL1        0.0262
     46 H          -0.6379    5.9615   -2.6630 H       1  UNL1        0.0262
     47 H          -2.6189    4.7360   -1.2940 H       1  UNL1        0.0694
     48 H          -1.3386    4.4822   -0.0696 H       1  UNL1        0.0694
     49 H          -2.8567    2.9852   -0.0116 H       1  UNL1        0.0654
     50 H          -3.6887    0.7155    0.4724 H       1  UNL1        0.0621
     51 H          -2.8918   -2.1462   -1.7358 H       1  UNL1        0.0336
     52 H          -4.1369   -1.3593   -0.7690 H       1  UNL1        0.0336
     53 H          -3.0064   -1.6788    1.2849 H       1  UNL1        0.0598
     54 H          -3.0241   -4.2318   -0.3217 H       1  UNL1        0.1498
     55 H          -6.0532   -4.5992    3.1971 H       1  UNL1        0.0625
     56 H          -7.2867   -6.7198    3.3554 H       1  UNL1        0.0618
     57 H          -6.9067   -8.4772    1.7292 H       1  UNL1        0.0618
     58 H          -5.2575   -8.0997   -0.0851 H       1  UNL1        0.0618
     59 H          -4.0142   -5.9772   -0.2504 H       1  UNL1        0.0625
     60 H          -0.3664   -0.5045    0.4175 H       1  UNL1        0.1495
     61 H           1.2301   -2.8172    1.3445 H       1  UNL1        0.0598
     62 H           3.1692   -2.3153    0.0665 H       1  UNL1        0.0336
     63 H           1.9281   -3.1889   -0.7993 H       1  UNL1        0.0336
     64 H           3.9383   -0.0709   -0.4384 H       1  UNL1        0.0620
     65 H           4.3254    1.4838   -2.2660 H       1  UNL1        0.0618
     66 H           3.0453    1.3306   -4.2910 H       1  UNL1        0.0618
     67 H           1.2859   -0.4301   -4.5369 H       1  UNL1        0.0618
     68 H           0.8780   -2.0263   -2.6873 H       1  UNL1        0.0620
     69 H           0.3909    0.4877    2.0296 H       1  UNL1        0.1491
     70 H           1.4324    1.8086    3.6721 H       1  UNL1        0.0512
     71 H           2.7241    0.6184    3.8507 H       1  UNL1        0.0512
     72 H           4.8002    0.9107    2.4540 H       1  UNL1        0.0621
     73 H           6.1649    2.4788    1.1302 H       1  UNL1        0.0621
     74 H           4.8279    5.3078   -0.7490 H       1  UNL1        0.0471
     75 H           6.2090    4.2164   -0.5483 H       1  UNL1        0.0471
     76 H           7.0311    5.4115    1.1934 H       1  UNL1        0.1185
     77 H           6.2510    6.6682    0.3342 H       1  UNL1        0.1185
     78 H           2.8421    5.0238    0.6683 H       1  UNL1        0.0621
     79 H           1.4425    3.4578    1.9878 H       1  UNL1        0.0621
     80 H          -1.1999   -0.8842   -2.5989 H       1  UNL1        0.0621
     81 H          -0.3408    1.3836   -3.1048 H       1  UNL1        0.0654
@<TRIPOS>BOND
     1     1     2    1
     2     2     3    1
     3     3     4    1
     4     4     5   ar
     5     5     6   ar
     6     6     7   ar
     7     7     8    1
     8     8     9    1
     9     9    10    1
    10    10    11   am
    11    11    12    2
    12    11    13    1
    13    13    14   ar
    14    14    15   ar
    15    15    16   ar
    16    16    17   ar
    17    17    18   ar
    18     9    19    1
    19    19    20    2
    20    19    21   am
    21    21    22    1
    22    22    23    1
    23    23    24    1
    24    24    25   ar
    25    25    26   ar
    26    26    27   ar
    27    27    28   ar
    28    28    29   ar
    29    22    30    1
    30    30    31    2
    31    30    32   am
    32    32    33    1
    33    33    34    1
    34    34    35   ar
    35    35    36   ar
    36    36    37   ar
    37    37    38    1
    38    38    39    1
    39    37    40   ar
    40    40    41   ar
    41     7    42   ar
    42    42    43   ar
    43    43     4   ar
    44    18    13   ar
    45    29    24   ar
    46    41    34   ar
    47     1    44    1
    48     1    45    1
    49     1    46    1
    50     2    47    1
    51     2    48    1
    52     5    49    1
    53     6    50    1
    54     8    51    1
    55     8    52    1
    56     9    53    1
    57    10    54    1
    58    14    55    1
    59    15    56    1
    60    16    57    1
    61    17    58    1
    62    18    59    1
    63    21    60    1
    64    22    61    1
    65    23    62    1
    66    23    63    1
    67    25    64    1
    68    26    65    1
    69    27    66    1
    70    28    67    1
    71    29    68    1
    72    32    69    1
    73    33    70    1
    74    33    71    1
    75    35    72    1
    76    36    73    1
    77    38    74    1
    78    38    75    1
    79    39    76    1
    80    39    77    1
    81    40    78    1
    82    41    79    1
    83    42    80    1
    84    43    81    1
