@<TRIPOS>MOLECULE
*****
 39 40 0 0 0
SMALL
GASTEIGER

@<TRIPOS>ATOM
      1 C          -2.4293    2.5055    2.3977 C.3     1  UNL1        0.0790
      2 O          -2.8619    1.3422    1.7014 O.3     1  UNL1       -0.4913
      3 C          -2.1524    0.7848    0.6672 C.ar    1  UNL1        0.1654
      4 C          -0.9413    1.3466    0.2379 C.ar    1  UNL1       -0.0126
      5 C          -0.2359    0.7832   -0.7980 C.ar    1  UNL1       -0.0358
      6 C           1.0263    1.3446   -1.2547 C.3     1  UNL1        0.0025
      7 C           2.2407    0.7171   -0.7348 C.ar    1  UNL1        0.0146
      8 C           2.9452   -0.1524   -1.5656 C.ar    1  UNL1        0.0379
      9 N           4.0618   -0.7434   -1.1042 N.ar    1  UNL1       -0.2227
     10 C           4.5524   -0.5462    0.1305 C.ar    1  UNL1        0.2142
     11 N           5.7438   -1.1917    0.5890 N.pl3   1  UNL1       -0.3274
     12 N           3.8784    0.2907    0.9366 N.ar    1  UNL1       -0.1999
     13 C           2.7416    0.9181    0.5246 C.ar    1  UNL1        0.1247
     14 N           2.0385    1.8064    1.3858 N.pl3   1  UNL1       -0.3428
     15 C          -0.7622   -0.3471   -1.3939 C.ar    1  UNL1       -0.0126
     16 C          -1.9468   -0.9319   -1.0055 C.ar    1  UNL1        0.1654
     17 O          -2.4619   -2.0741   -1.6204 O.3     1  UNL1       -0.4913
     18 C          -1.7083   -2.6270   -2.6843 C.3     1  UNL1        0.0790
     19 C          -2.6292   -0.3388    0.0395 C.ar    1  UNL1        0.2035
     20 O          -3.8175   -0.8931    0.4581 O.3     1  UNL1       -0.4885
     21 C          -3.8563   -1.8878    1.4725 C.3     1  UNL1        0.0791
     22 H          -3.1804    2.8388    3.1304 H       1  UNL1        0.0660
     23 H          -1.4692    2.3495    2.9229 H       1  UNL1        0.0660
     24 H          -2.3499    3.3053    1.6147 H       1  UNL1        0.0660
     25 H          -0.6142    2.2372    0.7650 H       1  UNL1        0.0658
     26 H           1.0818    2.4326   -0.9502 H       1  UNL1        0.0363
     27 H           1.0942    1.3921   -2.3820 H       1  UNL1        0.0363
     28 H           2.5637   -0.3241   -2.5670 H       1  UNL1        0.0834
     29 H           6.6718   -0.7182    0.6275 H       1  UNL1        0.1452
     30 H           5.7334   -2.1949    0.9145 H       1  UNL1        0.1452
     31 H           2.1689    2.8233    1.3997 H       1  UNL1        0.1437
     32 H           1.3444    1.3435    2.0392 H       1  UNL1        0.1437
     33 H          -0.2021   -0.7801   -2.2041 H       1  UNL1        0.0658
     34 H          -0.8047   -3.1044   -2.2567 H       1  UNL1        0.0660
     35 H          -1.4305   -1.8794   -3.4363 H       1  UNL1        0.0660
     36 H          -2.3647   -3.3713   -3.2020 H       1  UNL1        0.0660
     37 H          -3.1675   -1.6415    2.3199 H       1  UNL1        0.0660
     38 H          -4.9244   -1.9254    1.8225 H       1  UNL1        0.0660
     39 H          -3.5762   -2.8892    1.0627 H       1  UNL1        0.0660
@<TRIPOS>BOND
     1     1     2    1
     2     2     3    1
     3     3     4   ar
     4     4     5   ar
     5     5     6    1
     6     6     7    1
     7     7     8   ar
     8     8     9   ar
     9     9    10   ar
    10    10    11    1
    11    10    12   ar
    12    12    13   ar
    13    13    14    1
    14     5    15   ar
    15    15    16   ar
    16    16    17    1
    17    17    18    1
    18    16    19   ar
    19    19    20    1
    20    20    21    1
    21    19     3   ar
    22    13     7   ar
    23     1    22    1
    24     1    23    1
    25     1    24    1
    26     4    25    1
    27     6    26    1
    28     6    27    1
    29     8    28    1
    30    11    29    1
    31    11    30    1
    32    14    31    1
    33    14    32    1
    34    15    33    1
    35    18    34    1
    36    18    35    1
    37    18    36    1
    38    21    37    1
    39    21    38    1
    40    21    39    1
