@<TRIPOS>MOLECULE
*****
 35 38 0 0 0
SMALL
GASTEIGER

@<TRIPOS>ATOM
      1 O          -4.0257    1.1105    0.7532 O.2     1  UNL1       -0.2669
      2 C          -3.1029    0.2782    0.4964 C.ar    1  UNL1        0.2628
      3 C          -3.4508   -1.0068    0.1799 C.ar    1  UNL1        0.0860
      4 C          -4.6710   -1.6373    0.0720 C.ar    1  UNL1        0.0622
      5 N          -4.4233   -2.9345   -0.2743 N.ar    1  UNL1       -0.1809
      6 N          -3.0965   -3.0984   -0.3762 N.ar    1  UNL1       -0.2747
      7 C          -2.4882   -1.9336   -0.1028 C.ar    1  UNL1        0.0982
      8 C          -1.1770   -1.5296   -0.0572 C.ar    1  UNL1        0.1128
      9 N          -0.1812   -2.4010   -0.3262 N.ar    1  UNL1       -0.2508
     10 C           1.1136   -2.0360   -0.2888 C.ar    1  UNL1        0.0362
     11 C           1.4787   -0.7588    0.0253 C.ar    1  UNL1        0.0037
     12 C           2.8724   -0.3567    0.0686 C.ar    1  UNL1        0.0017
     13 C           3.2191    0.9427   -0.2534 C.ar    1  UNL1       -0.0511
     14 C           4.5421    1.2835   -0.2001 C.ar    1  UNL1       -0.0430
     15 C           5.5158    0.3534    0.1668 C.ar    1  UNL1        0.0276
     16 N           5.1603   -0.9089    0.4774 N.ar    1  UNL1       -0.2627
     17 C           3.8538   -1.2443    0.4246 C.ar    1  UNL1        0.0353
     18 C           0.4628    0.1554    0.3060 C.ar    1  UNL1       -0.0267
     19 C          -0.8599   -0.2217    0.2666 C.ar    1  UNL1        0.0733
     20 N          -1.8088    0.7084    0.5494 N.ar    1  UNL1       -0.2974
     21 C          -1.5489    2.0672    0.8828 C.3     1  UNL1        0.1219
     22 C          -1.5146    2.9880   -0.3185 C.3     1  UNL1        0.4074
     23 F          -1.2527    4.2601    0.1680 F       1  UNL1       -0.1687
     24 F          -2.7494    3.0613   -0.9333 F       1  UNL1       -0.1687
     25 F          -0.6007    2.6540   -1.2654 F       1  UNL1       -0.1687
     26 H          -5.6373   -1.1879    0.2317 H       1  UNL1        0.0856
     27 H          -2.6283   -3.9976   -0.6300 H       1  UNL1        0.1890
     28 H           1.8911   -2.7710   -0.5129 H       1  UNL1        0.0836
     29 H           2.4670    1.6714   -0.5398 H       1  UNL1        0.0625
     30 H           4.9086    2.2788   -0.4350 H       1  UNL1        0.0633
     31 H           6.5678    0.5958    0.2168 H       1  UNL1        0.0829
     32 H           3.5881   -2.2695    0.6795 H       1  UNL1        0.0836
     33 H           0.6941    1.1675    0.5582 H       1  UNL1        0.0645
     34 H          -2.4292    2.4447    1.4924 H       1  UNL1        0.0582
     35 H          -0.6892    2.2724    1.5236 H       1  UNL1        0.0582
@<TRIPOS>BOND
     1     1     2    2
     2     2     3   ar
     3     3     4   ar
     4     4     5   ar
     5     5     6   ar
     6     6     7   ar
     7     7     8   ar
     8     8     9   ar
     9     9    10   ar
    10    10    11   ar
    11    11    12    1
    12    12    13   ar
    13    13    14   ar
    14    14    15   ar
    15    15    16   ar
    16    16    17   ar
    17    11    18   ar
    18    18    19   ar
    19    19    20   ar
    20    20    21    1
    21    21    22    1
    22    22    23    1
    23    22    24    1
    24    22    25    1
    25    20     2   ar
    26     7     3   ar
    27    19     8   ar
    28    17    12   ar
    29     4    26    1
    30     6    27    1
    31    10    28    1
    32    13    29    1
    33    14    30    1
    34    15    31    1
    35    17    32    1
    36    18    33    1
    37    21    34    1
    38    21    35    1
