
     RDKit          3D

 35 38  0  0  0  0  0  0  0  0999 V2000
   -4.0257    1.1105    0.7532 O   0  0  0  0  0  0  0  0  0  0  0  0
   -3.1029    0.2782    0.4964 C   0  0  0  0  0  0  0  0  0  0  0  0
   -3.4508   -1.0068    0.1799 C   0  0  0  0  0  0  0  0  0  0  0  0
   -4.6710   -1.6373    0.0720 C   0  0  0  0  0  0  0  0  0  0  0  0
   -4.4233   -2.9345   -0.2743 N   0  0  0  0  0  0  0  0  0  0  0  0
   -3.0965   -3.0984   -0.3762 N   0  0  0  0  0  0  0  0  0  0  0  0
   -2.4882   -1.9336   -0.1028 C   0  0  0  0  0  0  0  0  0  0  0  0
   -1.1770   -1.5296   -0.0572 C   0  0  0  0  0  0  0  0  0  0  0  0
   -0.1812   -2.4010   -0.3262 N   0  0  0  0  0  0  0  0  0  0  0  0
    1.1136   -2.0360   -0.2888 C   0  0  0  0  0  0  0  0  0  0  0  0
    1.4787   -0.7588    0.0253 C   0  0  0  0  0  0  0  0  0  0  0  0
    2.8724   -0.3567    0.0686 C   0  0  0  0  0  0  0  0  0  0  0  0
    3.2191    0.9427   -0.2534 C   0  0  0  0  0  0  0  0  0  0  0  0
    4.5421    1.2835   -0.2001 C   0  0  0  0  0  0  0  0  0  0  0  0
    5.5158    0.3534    0.1668 C   0  0  0  0  0  0  0  0  0  0  0  0
    5.1603   -0.9089    0.4774 N   0  0  0  0  0  0  0  0  0  0  0  0
    3.8538   -1.2443    0.4246 C   0  0  0  0  0  0  0  0  0  0  0  0
    0.4628    0.1554    0.3060 C   0  0  0  0  0  0  0  0  0  0  0  0
   -0.8599   -0.2217    0.2666 C   0  0  0  0  0  0  0  0  0  0  0  0
   -1.8088    0.7084    0.5494 N   0  0  0  0  0  0  0  0  0  0  0  0
   -1.5489    2.0672    0.8828 C   0  0  0  0  0  0  0  0  0  0  0  0
   -1.5146    2.9880   -0.3185 C   0  0  0  0  0  0  0  0  0  0  0  0
   -1.2527    4.2601    0.1680 F   0  0  0  0  0  0  0  0  0  0  0  0
   -2.7494    3.0613   -0.9333 F   0  0  0  0  0  0  0  0  0  0  0  0
   -0.6007    2.6540   -1.2654 F   0  0  0  0  0  0  0  0  0  0  0  0
   -5.6373   -1.1879    0.2317 H   0  0  0  0  0  0  0  0  0  0  0  0
   -2.6283   -3.9976   -0.6300 H   0  0  0  0  0  0  0  0  0  0  0  0
    1.8911   -2.7710   -0.5129 H   0  0  0  0  0  0  0  0  0  0  0  0
    2.4670    1.6714   -0.5398 H   0  0  0  0  0  0  0  0  0  0  0  0
    4.9086    2.2788   -0.4350 H   0  0  0  0  0  0  0  0  0  0  0  0
    6.5678    0.5958    0.2168 H   0  0  0  0  0  0  0  0  0  0  0  0
    3.5881   -2.2695    0.6795 H   0  0  0  0  0  0  0  0  0  0  0  0
    0.6941    1.1675    0.5582 H   0  0  0  0  0  0  0  0  0  0  0  0
   -2.4292    2.4447    1.4924 H   0  0  0  0  0  0  0  0  0  0  0  0
   -0.6892    2.2724    1.5236 H   0  0  0  0  0  0  0  0  0  0  0  0
  1  2  2  0
  2  3  1  0
  3  4  1  0
  4  5  2  0
  5  6  1  0
  6  7  1  0
  7  8  1  0
  8  9  2  0
  9 10  1  0
 10 11  2  0
 11 12  1  0
 12 13  2  0
 13 14  1  0
 14 15  2  0
 15 16  1  0
 16 17  2  0
 11 18  1  0
 18 19  2  0
 19 20  1  0
 20 21  1  0
 21 22  1  0
 22 23  1  0
 22 24  1  0
 22 25  1  0
 20  2  1  0
  7  3  2  0
 19  8  1  0
 17 12  1  0
  4 26  1  0
  6 27  1  0
 10 28  1  0
 13 29  1  0
 14 30  1  0
 15 31  1  0
 17 32  1  0
 18 33  1  0
 21 34  1  0
 21 35  1  0
M  END
$$$$
