@<TRIPOS>MOLECULE
*****
 51 55 0 0 0
SMALL
GASTEIGER

@<TRIPOS>ATOM
      1 N           3.3976   -4.3750   -0.2802 N.am    1  UNL1       -0.3240
      2 C           2.6068   -3.1962   -0.2937 C.2     1  UNL1        0.2615
      3 O           1.7274   -3.0131   -1.1595 O.2     1  UNL1       -0.2687
      4 C           2.8226   -2.1592    0.7350 C.ar    1  UNL1        0.1470
      5 C           3.7322   -2.1785    1.7624 C.ar    1  UNL1        0.0605
      6 N           3.5912   -1.0415    2.4581 N.ar    1  UNL1       -0.2339
      7 C           2.6024   -0.3148    1.8737 C.ar    1  UNL1        0.1549
      8 C           2.0418    0.9209    2.1641 C.ar    1  UNL1       -0.0153
      9 C           1.0292    1.3897    1.3583 C.ar    1  UNL1       -0.0290
     10 C           0.5585    0.6737    0.2793 C.ar    1  UNL1        0.1103
     11 C          -0.5181    1.1654   -0.5767 C.ar    1  UNL1        0.0969
     12 C          -0.5006    2.3102   -1.3366 C.ar    1  UNL1        0.0982
     13 C           0.6216    3.2622   -1.4239 C.ar    1  UNL1        0.0027
     14 C           1.8402    2.9270   -1.9059 C.ar    1  UNL1       -0.0498
     15 C           2.8419    3.8613   -1.9611 C.ar    1  UNL1       -0.0258
     16 C           2.6140    5.1524   -1.5247 C.ar    1  UNL1        0.1234
     17 F           3.5991    6.1035   -1.5700 F       1  UNL1       -0.2055
     18 C           1.3907    5.5088   -1.0353 C.ar    1  UNL1       -0.0258
     19 C           0.3971    4.5664   -0.9849 C.ar    1  UNL1       -0.0498
     20 N          -1.6861    2.3699   -1.9581 N.ar    1  UNL1       -0.2351
     21 C          -2.4186    1.2788   -1.5849 C.ar    1  UNL1        0.0974
     22 N          -1.7101    0.5277   -0.7332 N.ar    1  UNL1       -0.3253
     23 C          -2.0729   -0.7147   -0.0785 C.3     1  UNL1        0.0364
     24 C          -3.4054   -0.5312    0.5810 C.3     1  UNL1       -0.0267
     25 C          -3.9478   -1.8095    1.1684 C.3     1  UNL1        0.0126
     26 C          -3.8642   -2.9788    0.2466 C.3     1  UNL1        0.2491
     27 F          -4.7372   -2.8556   -0.7976 F       1  UNL1       -0.2057
     28 F          -4.1285   -4.1228    0.9810 F       1  UNL1       -0.2057
     29 C          -2.4467   -3.1105   -0.2680 C.3     1  UNL1        0.0126
     30 C          -2.0566   -1.8646   -1.0560 C.3     1  UNL1       -0.0267
     31 N           1.1457   -0.5153    0.0545 N.ar    1  UNL1       -0.1628
     32 N           2.1358   -0.9987    0.8236 N.ar    1  UNL1       -0.2076
     33 H           4.0141   -4.6210    0.5226 H       1  UNL1        0.1453
     34 H           3.3633   -5.0160   -1.0953 H       1  UNL1        0.1453
     35 H           4.4341   -2.9895    1.9551 H       1  UNL1        0.0854
     36 H           2.4229    1.4550    3.0039 H       1  UNL1        0.0655
     37 H           0.5682    2.3445    1.5511 H       1  UNL1        0.0641
     38 H           2.0398    1.9300   -2.2504 H       1  UNL1        0.0625
     39 H           3.8398    3.6371   -2.3418 H       1  UNL1        0.0646
     40 H           1.1441    6.5001   -0.6773 H       1  UNL1        0.0646
     41 H          -0.6079    4.7978   -0.6002 H       1  UNL1        0.0625
     42 H          -3.4117    1.0593   -1.9244 H       1  UNL1        0.1029
     43 H          -1.3418   -0.9630    0.7179 H       1  UNL1        0.0528
     44 H          -4.1091   -0.0214   -0.0852 H       1  UNL1        0.0287
     45 H          -3.2319    0.1630    1.4557 H       1  UNL1        0.0287
     46 H          -3.3916   -2.0018    2.1068 H       1  UNL1        0.0323
     47 H          -5.0334   -1.6298    1.3830 H       1  UNL1        0.0323
     48 H          -2.4147   -3.9955   -0.9292 H       1  UNL1        0.0323
     49 H          -1.7535   -3.1697    0.5857 H       1  UNL1        0.0323
     50 H          -2.7232   -1.7051   -1.9107 H       1  UNL1        0.0287
     51 H          -1.0107   -2.0122   -1.3802 H       1  UNL1        0.0287
@<TRIPOS>BOND
     1     1     2   am
     2     2     3    2
     3     2     4    1
     4     4     5   ar
     5     5     6   ar
     6     6     7   ar
     7     7     8   ar
     8     8     9   ar
     9     9    10   ar
    10    10    11    1
    11    11    12   ar
    12    12    13    1
    13    13    14   ar
    14    14    15   ar
    15    15    16   ar
    16    16    17    1
    17    16    18   ar
    18    18    19   ar
    19    12    20   ar
    20    20    21   ar
    21    21    22   ar
    22    22    23    1
    23    23    24    1
    24    24    25    1
    25    25    26    1
    26    26    27    1
    27    26    28    1
    28    26    29    1
    29    29    30    1
    30    10    31   ar
    31    31    32   ar
    32    32     4   ar
    33    32     7   ar
    34    22    11   ar
    35    30    23    1
    36    19    13   ar
    37     1    33    1
    38     1    34    1
    39     5    35    1
    40     8    36    1
    41     9    37    1
    42    14    38    1
    43    15    39    1
    44    18    40    1
    45    19    41    1
    46    21    42    1
    47    23    43    1
    48    24    44    1
    49    24    45    1
    50    25    46    1
    51    25    47    1
    52    29    48    1
    53    29    49    1
    54    30    50    1
    55    30    51    1
