
     RDKit          3D

 51 55  0  0  0  0  0  0  0  0999 V2000
    3.3976   -4.3750   -0.2802 N   0  0  0  0  0  0  0  0  0  0  0  0
    2.6068   -3.1962   -0.2937 C   0  0  0  0  0  0  0  0  0  0  0  0
    1.7274   -3.0131   -1.1595 O   0  0  0  0  0  0  0  0  0  0  0  0
    2.8226   -2.1592    0.7350 C   0  0  0  0  0  0  0  0  0  0  0  0
    3.7322   -2.1785    1.7624 C   0  0  0  0  0  0  0  0  0  0  0  0
    3.5912   -1.0415    2.4581 N   0  0  0  0  0  0  0  0  0  0  0  0
    2.6024   -0.3148    1.8737 C   0  0  0  0  0  0  0  0  0  0  0  0
    2.0418    0.9209    2.1641 C   0  0  0  0  0  0  0  0  0  0  0  0
    1.0292    1.3897    1.3583 C   0  0  0  0  0  0  0  0  0  0  0  0
    0.5585    0.6737    0.2793 C   0  0  0  0  0  0  0  0  0  0  0  0
   -0.5181    1.1654   -0.5767 C   0  0  0  0  0  0  0  0  0  0  0  0
   -0.5006    2.3102   -1.3366 C   0  0  0  0  0  0  0  0  0  0  0  0
    0.6216    3.2622   -1.4239 C   0  0  0  0  0  0  0  0  0  0  0  0
    1.8402    2.9270   -1.9059 C   0  0  0  0  0  0  0  0  0  0  0  0
    2.8419    3.8613   -1.9611 C   0  0  0  0  0  0  0  0  0  0  0  0
    2.6140    5.1524   -1.5247 C   0  0  0  0  0  0  0  0  0  0  0  0
    3.5991    6.1035   -1.5700 F   0  0  0  0  0  0  0  0  0  0  0  0
    1.3907    5.5088   -1.0353 C   0  0  0  0  0  0  0  0  0  0  0  0
    0.3971    4.5664   -0.9849 C   0  0  0  0  0  0  0  0  0  0  0  0
   -1.6861    2.3699   -1.9581 N   0  0  0  0  0  0  0  0  0  0  0  0
   -2.4186    1.2788   -1.5849 C   0  0  0  0  0  0  0  0  0  0  0  0
   -1.7101    0.5277   -0.7332 N   0  0  0  0  0  0  0  0  0  0  0  0
   -2.0729   -0.7147   -0.0785 C   0  0  0  0  0  0  0  0  0  0  0  0
   -3.4054   -0.5312    0.5810 C   0  0  0  0  0  0  0  0  0  0  0  0
   -3.9478   -1.8095    1.1684 C   0  0  0  0  0  0  0  0  0  0  0  0
   -3.8642   -2.9788    0.2466 C   0  0  0  0  0  0  0  0  0  0  0  0
   -4.7372   -2.8556   -0.7976 F   0  0  0  0  0  0  0  0  0  0  0  0
   -4.1285   -4.1228    0.9810 F   0  0  0  0  0  0  0  0  0  0  0  0
   -2.4467   -3.1105   -0.2680 C   0  0  0  0  0  0  0  0  0  0  0  0
   -2.0566   -1.8646   -1.0560 C   0  0  0  0  0  0  0  0  0  0  0  0
    1.1457   -0.5153    0.0545 N   0  0  0  0  0  0  0  0  0  0  0  0
    2.1358   -0.9987    0.8236 N   0  0  0  0  0  0  0  0  0  0  0  0
    4.0141   -4.6210    0.5226 H   0  0  0  0  0  0  0  0  0  0  0  0
    3.3633   -5.0160   -1.0953 H   0  0  0  0  0  0  0  0  0  0  0  0
    4.4341   -2.9895    1.9551 H   0  0  0  0  0  0  0  0  0  0  0  0
    2.4229    1.4550    3.0039 H   0  0  0  0  0  0  0  0  0  0  0  0
    0.5682    2.3445    1.5511 H   0  0  0  0  0  0  0  0  0  0  0  0
    2.0398    1.9300   -2.2504 H   0  0  0  0  0  0  0  0  0  0  0  0
    3.8398    3.6371   -2.3418 H   0  0  0  0  0  0  0  0  0  0  0  0
    1.1441    6.5001   -0.6773 H   0  0  0  0  0  0  0  0  0  0  0  0
   -0.6079    4.7978   -0.6002 H   0  0  0  0  0  0  0  0  0  0  0  0
   -3.4117    1.0593   -1.9244 H   0  0  0  0  0  0  0  0  0  0  0  0
   -1.3418   -0.9630    0.7179 H   0  0  0  0  0  0  0  0  0  0  0  0
   -4.1091   -0.0214   -0.0852 H   0  0  0  0  0  0  0  0  0  0  0  0
   -3.2319    0.1630    1.4557 H   0  0  0  0  0  0  0  0  0  0  0  0
   -3.3916   -2.0018    2.1068 H   0  0  0  0  0  0  0  0  0  0  0  0
   -5.0334   -1.6298    1.3830 H   0  0  0  0  0  0  0  0  0  0  0  0
   -2.4147   -3.9955   -0.9292 H   0  0  0  0  0  0  0  0  0  0  0  0
   -1.7535   -3.1697    0.5857 H   0  0  0  0  0  0  0  0  0  0  0  0
   -2.7232   -1.7051   -1.9107 H   0  0  0  0  0  0  0  0  0  0  0  0
   -1.0107   -2.0122   -1.3802 H   0  0  0  0  0  0  0  0  0  0  0  0
  1  2  1  0
  2  3  2  0
  2  4  1  0
  4  5  2  0
  5  6  1  0
  6  7  2  0
  7  8  1  0
  8  9  2  0
  9 10  1  0
 10 11  1  0
 11 12  2  0
 12 13  1  0
 13 14  2  0
 14 15  1  0
 15 16  2  0
 16 17  1  0
 16 18  1  0
 18 19  2  0
 12 20  1  0
 20 21  2  0
 21 22  1  0
 22 23  1  0
 23 24  1  0
 24 25  1  0
 25 26  1  0
 26 27  1  0
 26 28  1  0
 26 29  1  0
 29 30  1  0
 10 31  2  0
 31 32  1  0
 32  4  1  0
 32  7  1  0
 22 11  1  0
 30 23  1  0
 19 13  1  0
  1 33  1  0
  1 34  1  0
  5 35  1  0
  8 36  1  0
  9 37  1  0
 14 38  1  0
 15 39  1  0
 18 40  1  0
 19 41  1  0
 21 42  1  0
 23 43  1  0
 24 44  1  0
 24 45  1  0
 25 46  1  0
 25 47  1  0
 29 48  1  0
 29 49  1  0
 30 50  1  0
 30 51  1  0
M  END
$$$$
