
     RDKit          3D

 69 73  0  0  0  0  0  0  0  0999 V2000
   -4.0875    1.6300    1.8496 C   0  0  0  0  0  0  0  0  0  0  0  0
   -4.6446    0.2285    1.9880 C   0  0  0  0  0  0  0  0  0  0  0  0
   -4.6805   -0.3664    0.5694 C   0  0  2  0  0  0  0  0  0  0  0  0
   -3.3185   -0.3672    0.0771 C   0  0  0  0  0  0  0  0  0  0  0  0
   -2.8640    0.1877   -0.9317 O   0  0  0  0  0  0  0  0  0  0  0  0
   -2.3555   -1.1059    0.8521 N   0  0  0  0  0  0  0  0  0  0  0  0
   -0.9923   -1.1743    0.4627 C   0  0  0  0  0  0  0  0  0  0  0  0
   -0.5341   -2.1714   -0.3667 C   0  0  0  0  0  0  0  0  0  0  0  0
    0.8008   -2.1693   -0.6986 C   0  0  0  0  0  0  0  0  0  0  0  0
    1.6475   -1.1938   -0.2104 C   0  0  0  0  0  0  0  0  0  0  0  0
    1.2074   -0.1869    0.6217 C   0  0  0  0  0  0  0  0  0  0  0  0
    1.8622    0.8710    1.2170 C   0  0  0  0  0  0  0  0  0  0  0  0
    3.2695    1.2353    1.1269 C   0  0  0  0  0  0  0  0  0  0  0  0
    4.0870    0.4815    0.3824 N   0  0  0  0  0  0  0  0  0  0  0  0
    5.4237    0.7455    0.2380 C   0  0  0  0  0  0  0  0  0  0  0  0
    6.1563   -0.1464   -0.5843 N   0  0  0  0  0  0  0  0  0  0  0  0
    7.5438    0.0663   -0.7776 C   0  0  0  0  0  0  0  0  0  0  0  0
    8.4157    1.0121   -0.3165 C   0  0  0  0  0  0  0  0  0  0  0  0
    9.6549    0.7859   -0.7875 N   0  0  0  0  0  0  0  0  0  0  0  0
   10.8160    1.5803   -0.5069 C   0  0  0  0  0  0  0  0  0  0  0  0
    9.5983   -0.2843   -1.5409 N   0  0  0  0  0  0  0  0  0  0  0  0
    8.3391   -0.7689   -1.5747 C   0  0  0  0  0  0  0  0  0  0  0  0
    7.8584   -1.9618   -2.3105 C   0  0  0  0  0  0  0  0  0  0  0  0
    5.8974    1.8016    0.8770 N   0  0  0  0  0  0  0  0  0  0  0  0
    5.1676    2.6125    1.6406 C   0  0  0  0  0  0  0  0  0  0  0  0
    3.8155    2.3158    1.7654 C   0  0  0  0  0  0  0  0  0  0  0  0
    3.0671    3.1235    2.5312 F   0  0  0  0  0  0  0  0  0  0  0  0
    0.8743    1.5204    1.9294 C   0  0  0  0  0  0  0  0  0  0  0  0
   -0.3140    0.8688    1.7588 N   0  0  0  0  0  0  0  0  0  0  0  0
   -0.1355   -0.2001    0.9476 C   0  0  0  0  0  0  0  0  0  0  0  0
   -5.6594    0.3342   -0.1537 N   0  0  0  0  0  0  0  0  0  0  0  0
   -6.9595    0.2188    0.4510 C   0  0  0  0  0  0  0  0  0  0  0  0
   -8.0854    0.1422   -0.5378 C   0  0  0  0  0  0  0  0  0  0  0  0
   -7.9436   -0.9319   -1.4862 N   0  0  0  0  0  0  0  0  0  0  0  0
   -8.4906   -2.1389   -0.8467 C   0  0  0  0  0  0  0  0  0  0  0  0
   -6.5630   -1.1710   -1.8674 C   0  0  0  0  0  0  0  0  0  0  0  0
   -5.7750    0.1064   -1.5463 C   0  0  0  0  0  0  0  0  0  0  0  0
   -3.4634    1.9142    2.7282 H   0  0  0  0  0  0  0  0  0  0  0  0
   -4.9313    2.3456    1.8256 H   0  0  0  0  0  0  0  0  0  0  0  0
   -3.4840    1.7612    0.9299 H   0  0  0  0  0  0  0  0  0  0  0  0
   -5.6525    0.2959    2.4239 H   0  0  0  0  0  0  0  0  0  0  0  0
   -3.9426   -0.3282    2.6355 H   0  0  0  0  0  0  0  0  0  0  0  0
   -5.0094   -1.4204    0.7107 H   0  0  0  0  0  0  0  0  0  0  0  0
   -2.6441   -1.6181    1.7355 H   0  0  0  0  0  0  0  0  0  0  0  0
   -1.2157   -2.9476   -0.7533 H   0  0  0  0  0  0  0  0  0  0  0  0
    1.1681   -2.9475   -1.3484 H   0  0  0  0  0  0  0  0  0  0  0  0
    2.7114   -1.1883   -0.4722 H   0  0  0  0  0  0  0  0  0  0  0  0
    5.6625   -0.9577   -1.0431 H   0  0  0  0  0  0  0  0  0  0  0  0
    8.1411    1.8375    0.3439 H   0  0  0  0  0  0  0  0  0  0  0  0
   10.9592    1.7159    0.6040 H   0  0  0  0  0  0  0  0  0  0  0  0
   11.7391    1.1098   -0.8923 H   0  0  0  0  0  0  0  0  0  0  0  0
   10.6724    2.6098   -0.8987 H   0  0  0  0  0  0  0  0  0  0  0  0
    6.7869   -1.7868   -2.6207 H   0  0  0  0  0  0  0  0  0  0  0  0
    8.4048   -2.0910   -3.2777 H   0  0  0  0  0  0  0  0  0  0  0  0
    7.8527   -2.8701   -1.6994 H   0  0  0  0  0  0  0  0  0  0  0  0
    5.6199    3.4577    2.1337 H   0  0  0  0  0  0  0  0  0  0  0  0
    0.9551    2.3979    2.5387 H   0  0  0  0  0  0  0  0  0  0  0  0
   -1.2151    1.1603    2.1930 H   0  0  0  0  0  0  0  0  0  0  0  0
   -7.1529    1.0996    1.1008 H   0  0  0  0  0  0  0  0  0  0  0  0
   -6.9773   -0.6653    1.1311 H   0  0  0  0  0  0  0  0  0  0  0  0
   -9.0151   -0.0572    0.0534 H   0  0  0  0  0  0  0  0  0  0  0  0
   -8.2487    1.1304   -1.0179 H   0  0  0  0  0  0  0  0  0  0  0  0
   -7.7728   -2.4027   -0.0182 H   0  0  0  0  0  0  0  0  0  0  0  0
   -8.5343   -2.9871   -1.5409 H   0  0  0  0  0  0  0  0  0  0  0  0
   -9.4480   -1.8722   -0.3783 H   0  0  0  0  0  0  0  0  0  0  0  0
   -6.2068   -2.0271   -1.3000 H   0  0  0  0  0  0  0  0  0  0  0  0
   -6.5525   -1.3086   -2.9661 H   0  0  0  0  0  0  0  0  0  0  0  0
   -4.8606    0.1834   -2.1387 H   0  0  0  0  0  0  0  0  0  0  0  0
   -6.4454    0.9276   -1.9482 H   0  0  0  0  0  0  0  0  0  0  0  0
  1  2  1  0
  2  3  1  0
  3  4  1  0
  4  5  2  0
  4  6  1  0
  6  7  1  0
  7  8  2  0
  8  9  1  0
  9 10  2  0
 10 11  1  0
 11 12  1  0
 12 13  1  0
 13 14  2  0
 14 15  1  0
 15 16  1  0
 16 17  1  0
 17 18  2  0
 18 19  1  0
 19 20  1  0
 19 21  1  0
 21 22  2  0
 22 23  1  0
 15 24  2  0
 24 25  1  0
 25 26  2  0
 26 27  1  0
 12 28  2  0
 28 29  1  0
 29 30  1  0
  3 31  1  0
 31 32  1  0
 32 33  1  0
 33 34  1  0
 34 35  1  0
 34 36  1  0
 36 37  1  0
 30  7  1  0
 37 31  1  0
 30 11  2  0
 26 13  1  0
 22 17  1  0
  1 38  1  0
  1 39  1  0
  1 40  1  0
  2 41  1  0
  2 42  1  0
  3 43  1  1
  6 44  1  0
  8 45  1  0
  9 46  1  0
 10 47  1  0
 16 48  1  0
 18 49  1  0
 20 50  1  0
 20 51  1  0
 20 52  1  0
 23 53  1  0
 23 54  1  0
 23 55  1  0
 25 56  1  0
 28 57  1  0
 29 58  1  0
 32 59  1  0
 32 60  1  0
 33 61  1  0
 33 62  1  0
 35 63  1  0
 35 64  1  0
 35 65  1  0
 36 66  1  0
 36 67  1  0
 37 68  1  0
 37 69  1  0
M  END
$$$$
