@<TRIPOS>MOLECULE
*****
 69 73 0 0 0
SMALL
GASTEIGER

@<TRIPOS>ATOM
      1 C          -4.0875    1.6300    1.8496 C.3     1  UNL1       -0.0634
      2 C          -4.6446    0.2285    1.9880 C.3     1  UNL1       -0.0317
      3 C          -4.6805   -0.3664    0.5694 C.3     1  UNL1        0.0874
      4 C          -3.3185   -0.3672    0.0771 C.2     1  UNL1        0.2345
      5 O          -2.8640    0.1877   -0.9317 O.2     1  UNL1       -0.2737
      6 N          -2.3555   -1.1059    0.8521 N.am    1  UNL1       -0.2825
      7 C          -0.9923   -1.1743    0.4627 C.ar    1  UNL1        0.0576
      8 C          -0.5341   -2.1714   -0.3667 C.ar    1  UNL1       -0.0384
      9 C           0.8008   -2.1693   -0.6986 C.ar    1  UNL1       -0.0593
     10 C           1.6475   -1.1938   -0.2104 C.ar    1  UNL1       -0.0518
     11 C           1.2074   -0.1869    0.6217 C.ar    1  UNL1        0.0107
     12 C           1.8622    0.8710    1.2170 C.ar    1  UNL1        0.0284
     13 C           3.2695    1.2353    1.1269 C.ar    1  UNL1        0.1132
     14 N           4.0870    0.4815    0.3824 N.ar    1  UNL1       -0.2113
     15 C           5.4237    0.7455    0.2380 C.ar    1  UNL1        0.2202
     16 N           6.1563   -0.1464   -0.5843 N.pl3   1  UNL1       -0.2809
     17 C           7.5438    0.0663   -0.7776 C.ar    1  UNL1        0.0744
     18 C           8.4157    1.0121   -0.3165 C.ar    1  UNL1        0.0467
     19 N           9.6549    0.7859   -0.7875 N.ar    1  UNL1       -0.2724
     20 C          10.8160    1.5803   -0.5069 C.3     1  UNL1        0.0303
     21 N           9.5983   -0.2843   -1.5409 N.ar    1  UNL1       -0.1748
     22 C           8.3391   -0.7689   -1.5747 C.ar    1  UNL1        0.0811
     23 C           7.8584   -1.9618   -2.3105 C.3     1  UNL1       -0.0188
     24 N           5.8974    1.8016    0.8770 N.ar    1  UNL1       -0.2198
     25 C           5.1676    2.6125    1.6406 C.ar    1  UNL1        0.0685
     26 C           3.8155    2.3158    1.7654 C.ar    1  UNL1        0.1674
     27 F           3.0671    3.1235    2.5312 F       1  UNL1       -0.2016
     28 C           0.8743    1.5204    1.9294 C.ar    1  UNL1        0.0121
     29 N          -0.3140    0.8688    1.7588 N.ar    1  UNL1       -0.3586
     30 C          -0.1355   -0.2001    0.9476 C.ar    1  UNL1        0.0686
     31 N          -5.6594    0.3342   -0.1537 N.3     1  UNL1       -0.2891
     32 C          -6.9595    0.2188    0.4510 C.3     1  UNL1        0.0124
     33 C          -8.0854    0.1422   -0.5378 C.3     1  UNL1        0.0114
     34 N          -7.9436   -0.9319   -1.4862 N.3     1  UNL1       -0.3029
     35 C          -8.4906   -2.1389   -0.8467 C.3     1  UNL1       -0.0127
     36 C          -6.5630   -1.1710   -1.8674 C.3     1  UNL1        0.0114
     37 C          -5.7750    0.1064   -1.5463 C.3     1  UNL1        0.0124
     38 H          -3.4634    1.9142    2.7282 H       1  UNL1        0.0230
     39 H          -4.9313    2.3456    1.8256 H       1  UNL1        0.0230
     40 H          -3.4840    1.7612    0.9299 H       1  UNL1        0.0230
     41 H          -5.6525    0.2959    2.4239 H       1  UNL1        0.0282
     42 H          -3.9426   -0.3282    2.6355 H       1  UNL1        0.0282
     43 H          -5.0094   -1.4204    0.7107 H       1  UNL1        0.0558
     44 H          -2.6441   -1.6181    1.7355 H       1  UNL1        0.1549
     45 H          -1.2157   -2.9476   -0.7533 H       1  UNL1        0.0637
     46 H           1.1681   -2.9475   -1.3484 H       1  UNL1        0.0618
     47 H           2.7114   -1.1883   -0.4722 H       1  UNL1        0.0624
     48 H           5.6625   -0.9577   -1.0431 H       1  UNL1        0.1551
     49 H           8.1411    1.8375    0.3439 H       1  UNL1        0.0845
     50 H          10.9592    1.7159    0.6040 H       1  UNL1        0.0473
     51 H          11.7391    1.1098   -0.8923 H       1  UNL1        0.0473
     52 H          10.6724    2.6098   -0.8987 H       1  UNL1        0.0473
     53 H           6.7869   -1.7868   -2.6207 H       1  UNL1        0.0294
     54 H           8.4048   -2.0910   -3.2777 H       1  UNL1        0.0294
     55 H           7.8527   -2.8701   -1.6994 H       1  UNL1        0.0294
     56 H           5.6199    3.4577    2.1337 H       1  UNL1        0.0861
     57 H           0.9551    2.3979    2.5387 H       1  UNL1        0.0814
     58 H          -1.2151    1.1603    2.1930 H       1  UNL1        0.1654
     59 H          -7.1529    1.0996    1.1008 H       1  UNL1        0.0439
     60 H          -6.9773   -0.6653    1.1311 H       1  UNL1        0.0439
     61 H          -9.0151   -0.0572    0.0534 H       1  UNL1        0.0439
     62 H          -8.2487    1.1304   -1.0179 H       1  UNL1        0.0439
     63 H          -7.7728   -2.4027   -0.0182 H       1  UNL1        0.0391
     64 H          -8.5343   -2.9871   -1.5409 H       1  UNL1        0.0391
     65 H          -9.4480   -1.8722   -0.3783 H       1  UNL1        0.0391
     66 H          -6.2068   -2.0271   -1.3000 H       1  UNL1        0.0439
     67 H          -6.5525   -1.3086   -2.9661 H       1  UNL1        0.0439
     68 H          -4.8606    0.1834   -2.1387 H       1  UNL1        0.0439
     69 H          -6.4454    0.9276   -1.9482 H       1  UNL1        0.0439
@<TRIPOS>BOND
     1     1     2    1
     2     2     3    1
     3     3     4    1
     4     4     5    2
     5     4     6   am
     6     6     7    1
     7     7     8   ar
     8     8     9   ar
     9     9    10   ar
    10    10    11   ar
    11    11    12   ar
    12    12    13    1
    13    13    14   ar
    14    14    15   ar
    15    15    16    1
    16    16    17    1
    17    17    18   ar
    18    18    19   ar
    19    19    20    1
    20    19    21   ar
    21    21    22   ar
    22    22    23    1
    23    15    24   ar
    24    24    25   ar
    25    25    26   ar
    26    26    27    1
    27    12    28   ar
    28    28    29   ar
    29    29    30   ar
    30     3    31    1
    31    31    32    1
    32    32    33    1
    33    33    34    1
    34    34    35    1
    35    34    36    1
    36    36    37    1
    37    30     7   ar
    38    37    31    1
    39    30    11   ar
    40    26    13   ar
    41    22    17   ar
    42     1    38    1
    43     1    39    1
    44     1    40    1
    45     2    41    1
    46     2    42    1
    47     3    43    1
    48     6    44    1
    49     8    45    1
    50     9    46    1
    51    10    47    1
    52    16    48    1
    53    18    49    1
    54    20    50    1
    55    20    51    1
    56    20    52    1
    57    23    53    1
    58    23    54    1
    59    23    55    1
    60    25    56    1
    61    28    57    1
    62    29    58    1
    63    32    59    1
    64    32    60    1
    65    33    61    1
    66    33    62    1
    67    35    63    1
    68    35    64    1
    69    35    65    1
    70    36    66    1
    71    36    67    1
    72    37    68    1
    73    37    69    1
