
     RDKit          3D

 62 65  0  0  0  0  0  0  0  0999 V2000
   10.0572    0.0460    0.3513 C   0  0  0  0  0  0  0  0  0  0  0  0
    8.6688   -0.3819    0.2378 N   0  0  0  0  0  0  0  0  0  0  0  0
    8.3373   -1.7910    0.0801 C   0  0  0  0  0  0  0  0  0  0  0  0
    7.6521    0.5874    0.2821 C   0  0  0  0  0  0  0  0  0  0  0  0
    7.9240    1.8114    0.4168 O   0  0  0  0  0  0  0  0  0  0  0  0
    6.2566    0.1630    0.1697 C   0  0  0  0  0  0  0  0  0  0  0  0
    5.7933   -0.4920   -0.9513 C   0  0  0  0  0  0  0  0  0  0  0  0
    4.4682   -0.8935   -1.0483 C   0  0  0  0  0  0  0  0  0  0  0  0
    3.5597   -0.6618   -0.0439 C   0  0  0  0  0  0  0  0  0  0  0  0
    2.2088   -1.0766   -0.1478 N   0  0  0  0  0  0  0  0  0  0  0  0
    1.1727   -0.0807   -0.0834 C   0  0  0  0  0  0  0  0  0  0  0  0
   -0.1486   -0.4708   -0.1576 C   0  0  0  0  0  0  0  0  0  0  0  0
   -1.1399    0.4857   -0.0954 C   0  0  0  0  0  0  0  0  0  0  0  0
   -0.7947    1.7780    0.0362 C   0  0  0  0  0  0  0  0  0  0  0  0
    0.5507    2.1807    0.1121 C   0  0  0  0  0  0  0  0  0  0  0  0
    1.4723    1.2180    0.0475 N   0  0  0  0  0  0  0  0  0  0  0  0
   -1.9498    2.4974    0.0718 C   0  0  0  0  0  0  0  0  0  0  0  0
   -3.0516    1.6274   -0.0413 C   0  0  0  0  0  0  0  0  0  0  0  0
   -4.4272    2.1061   -0.0360 C   0  0  0  0  0  0  0  0  0  0  0  0
   -5.6405    1.5209   -0.1539 C   0  0  0  0  0  0  0  0  0  0  0  0
   -6.6282    2.4773   -0.0362 N   0  0  0  0  0  0  0  0  0  0  0  0
   -6.0676    3.6459    0.1512 N   0  0  0  0  0  0  0  0  0  0  0  0
   -6.7691    4.9169    0.3237 C   0  0  0  0  0  0  0  0  0  0  0  0
   -4.7425    3.4545    0.1557 C   0  0  0  0  0  0  0  0  0  0  0  0
   -2.5271    0.4065   -0.1398 N   0  0  0  0  0  0  0  0  0  0  0  0
   -3.1790   -0.8402   -0.2100 C   0  0  0  0  0  0  0  0  0  0  0  0
   -2.4611   -1.8971   -0.3721 O   0  0  0  0  0  0  0  0  0  0  0  0
   -4.4958   -1.1035   -0.1251 O   0  0  0  0  0  0  0  0  0  0  0  0
   -5.0058   -2.4127   -0.2078 C   0  0  0  0  0  0  0  0  0  0  0  0
   -4.6735   -3.0869   -1.5031 C   0  0  0  0  0  0  0  0  0  0  0  0
   -4.4913   -3.3058    0.9245 C   0  0  0  0  0  0  0  0  0  0  0  0
   -6.5209   -2.3098   -0.0982 C   0  0  0  0  0  0  0  0  0  0  0  0
    4.0271   -0.0070    1.0744 C   0  0  0  0  0  0  0  0  0  0  0  0
    2.9049    0.3127    2.3858 Cl  0  0  0  0  0  0  0  0  0  0  0  0
    5.3507    0.4006    1.1848 C   0  0  0  0  0  0  0  0  0  0  0  0
   10.4125    0.0187    1.4090 H   0  0  0  0  0  0  0  0  0  0  0  0
   10.6466   -0.6371   -0.2910 H   0  0  0  0  0  0  0  0  0  0  0  0
   10.1498    1.0920   -0.0306 H   0  0  0  0  0  0  0  0  0  0  0  0
    8.3545   -1.9998   -1.0147 H   0  0  0  0  0  0  0  0  0  0  0  0
    9.0417   -2.4424    0.6352 H   0  0  0  0  0  0  0  0  0  0  0  0
    7.2887   -1.9124    0.4147 H   0  0  0  0  0  0  0  0  0  0  0  0
    6.4886   -0.6863   -1.7562 H   0  0  0  0  0  0  0  0  0  0  0  0
    4.1108   -1.4100   -1.9362 H   0  0  0  0  0  0  0  0  0  0  0  0
    1.9840   -2.0666   -0.2663 H   0  0  0  0  0  0  0  0  0  0  0  0
   -0.3568   -1.5099   -0.2616 H   0  0  0  0  0  0  0  0  0  0  0  0
    0.7243    3.2306    0.2156 H   0  0  0  0  0  0  0  0  0  0  0  0
   -2.0191    3.5754    0.1710 H   0  0  0  0  0  0  0  0  0  0  0  0
   -5.9162    0.5147   -0.3277 H   0  0  0  0  0  0  0  0  0  0  0  0
   -6.7593    5.1979    1.3964 H   0  0  0  0  0  0  0  0  0  0  0  0
   -7.7849    4.7816   -0.0692 H   0  0  0  0  0  0  0  0  0  0  0  0
   -6.2510    5.7426   -0.2198 H   0  0  0  0  0  0  0  0  0  0  0  0
   -4.0501    4.2653    0.2928 H   0  0  0  0  0  0  0  0  0  0  0  0
   -3.8720   -3.8544   -1.3502 H   0  0  0  0  0  0  0  0  0  0  0  0
   -4.3430   -2.3752   -2.2969 H   0  0  0  0  0  0  0  0  0  0  0  0
   -5.5473   -3.6299   -1.8701 H   0  0  0  0  0  0  0  0  0  0  0  0
   -3.6081   -2.8592    1.4157 H   0  0  0  0  0  0  0  0  0  0  0  0
   -4.1923   -4.2956    0.5353 H   0  0  0  0  0  0  0  0  0  0  0  0
   -5.3161   -3.4652    1.6549 H   0  0  0  0  0  0  0  0  0  0  0  0
   -6.8107   -1.5759    0.6621 H   0  0  0  0  0  0  0  0  0  0  0  0
   -6.9074   -2.1261   -1.1016 H   0  0  0  0  0  0  0  0  0  0  0  0
   -6.8719   -3.3141    0.2373 H   0  0  0  0  0  0  0  0  0  0  0  0
    5.7147    0.9161    2.0683 H   0  0  0  0  0  0  0  0  0  0  0  0
  1  2  1  0
  2  3  1  0
  2  4  1  0
  4  5  2  0
  4  6  1  0
  6  7  2  0
  7  8  1  0
  8  9  2  0
  9 10  1  0
 10 11  1  0
 11 12  2  0
 12 13  1  0
 13 14  2  0
 14 15  1  0
 15 16  2  0
 14 17  1  0
 17 18  2  0
 18 19  1  0
 19 20  1  0
 20 21  2  0
 21 22  1  0
 22 23  1  0
 22 24  1  0
 18 25  1  0
 25 26  1  0
 26 27  2  0
 26 28  1  0
 28 29  1  0
 29 30  1  0
 29 31  1  0
 29 32  1  0
  9 33  1  0
 33 34  1  0
 33 35  2  0
 35  6  1  0
 16 11  1  0
 24 19  2  0
 25 13  1  0
  1 36  1  0
  1 37  1  0
  1 38  1  0
  3 39  1  0
  3 40  1  0
  3 41  1  0
  7 42  1  0
  8 43  1  0
 10 44  1  0
 12 45  1  0
 15 46  1  0
 17 47  1  0
 20 48  1  0
 23 49  1  0
 23 50  1  0
 23 51  1  0
 24 52  1  0
 30 53  1  0
 30 54  1  0
 30 55  1  0
 31 56  1  0
 31 57  1  0
 31 58  1  0
 32 59  1  0
 32 60  1  0
 32 61  1  0
 35 62  1  0
M  END
$$$$
