@<TRIPOS>MOLECULE
*****
 62 65 0 0 0
SMALL
GASTEIGER

@<TRIPOS>ATOM
      1 C          10.0572    0.0460    0.3513 C.3     1  UNL1        0.0031
      2 N           8.6688   -0.3819    0.2378 N.am    1  UNL1       -0.3036
      3 C           8.3373   -1.7910    0.0801 C.3     1  UNL1        0.0031
      4 C           7.6521    0.5874    0.2821 C.2     1  UNL1        0.2462
      5 O           7.9240    1.8114    0.4168 O.2     1  UNL1       -0.2700
      6 C           6.2566    0.1630    0.1697 C.ar    1  UNL1        0.0384
      7 C           5.7933   -0.4920   -0.9513 C.ar    1  UNL1       -0.0478
      8 C           4.4682   -0.8935   -1.0483 C.ar    1  UNL1       -0.0384
      9 C           3.5597   -0.6618   -0.0439 C.ar    1  UNL1        0.0510
     10 N           2.2088   -1.0766   -0.1478 N.pl3   1  UNL1       -0.2982
     11 C           1.1727   -0.0807   -0.0834 C.ar    1  UNL1        0.1249
     12 C          -0.1486   -0.4708   -0.1576 C.ar    1  UNL1        0.0031
     13 C          -1.1399    0.4857   -0.0954 C.ar    1  UNL1        0.0649
     14 C          -0.7947    1.7780    0.0362 C.ar    1  UNL1        0.0192
     15 C           0.5507    2.1807    0.1121 C.ar    1  UNL1        0.0389
     16 N           1.4723    1.2180    0.0475 N.ar    1  UNL1       -0.2395
     17 C          -1.9498    2.4974    0.0718 C.ar    1  UNL1       -0.0264
     18 C          -3.0516    1.6274   -0.0413 C.ar    1  UNL1        0.0637
     19 C          -4.4272    2.1061   -0.0360 C.ar    1  UNL1        0.0364
     20 C          -5.6405    1.5209   -0.1539 C.ar    1  UNL1        0.0585
     21 N          -6.6282    2.4773   -0.0362 N.ar    1  UNL1       -0.1792
     22 N          -6.0676    3.6459    0.1512 N.ar    1  UNL1       -0.2738
     23 C          -6.7691    4.9169    0.3237 C.3     1  UNL1        0.0302
     24 C          -4.7425    3.4545    0.1557 C.ar    1  UNL1        0.0343
     25 N          -2.5271    0.4065   -0.1398 N.ar    1  UNL1       -0.2454
     26 C          -3.1790   -0.8402   -0.2100 C.2     1  UNL1        0.4209
     27 O          -2.4611   -1.8971   -0.3721 O.2     1  UNL1       -0.2227
     28 O          -4.4958   -1.1035   -0.1251 O.3     1  UNL1       -0.4424
     29 C          -5.0058   -2.4127   -0.2078 C.3     1  UNL1        0.1070
     30 C          -4.6735   -3.0869   -1.5031 C.3     1  UNL1       -0.0253
     31 C          -4.4913   -3.3058    0.9245 C.3     1  UNL1       -0.0253
     32 C          -6.5209   -2.3098   -0.0982 C.3     1  UNL1       -0.0253
     33 C           4.0271   -0.0070    1.0744 C.ar    1  UNL1        0.0628
     34 CL          2.9049    0.3127    2.3858 Cl      1  UNL1       -0.0816
     35 C           5.3507    0.4006    1.1848 C.ar    1  UNL1       -0.0295
     36 H          10.4125    0.0187    1.4090 H       1  UNL1        0.0428
     37 H          10.6466   -0.6371   -0.2910 H       1  UNL1        0.0428
     38 H          10.1498    1.0920   -0.0306 H       1  UNL1        0.0428
     39 H           8.3545   -1.9998   -1.0147 H       1  UNL1        0.0428
     40 H           9.0417   -2.4424    0.6352 H       1  UNL1        0.0428
     41 H           7.2887   -1.9124    0.4147 H       1  UNL1        0.0428
     42 H           6.4886   -0.6863   -1.7562 H       1  UNL1        0.0626
     43 H           4.1108   -1.4100   -1.9362 H       1  UNL1        0.0637
     44 H           1.9840   -2.0666   -0.2663 H       1  UNL1        0.1536
     45 H          -0.3568   -1.5099   -0.2616 H       1  UNL1        0.0673
     46 H           0.7243    3.2306    0.2156 H       1  UNL1        0.0837
     47 H          -2.0191    3.5754    0.1710 H       1  UNL1        0.0645
     48 H          -5.9162    0.5147   -0.3277 H       1  UNL1        0.0854
     49 H          -6.7593    5.1979    1.3964 H       1  UNL1        0.0473
     50 H          -7.7849    4.7816   -0.0692 H       1  UNL1        0.0473
     51 H          -6.2510    5.7426   -0.2198 H       1  UNL1        0.0473
     52 H          -4.0501    4.2653    0.2928 H       1  UNL1        0.0833
     53 H          -3.8720   -3.8544   -1.3502 H       1  UNL1        0.0268
     54 H          -4.3430   -2.3752   -2.2969 H       1  UNL1        0.0268
     55 H          -5.5473   -3.6299   -1.8701 H       1  UNL1        0.0268
     56 H          -3.6081   -2.8592    1.4157 H       1  UNL1        0.0268
     57 H          -4.1923   -4.2956    0.5353 H       1  UNL1        0.0268
     58 H          -5.3161   -3.4652    1.6549 H       1  UNL1        0.0268
     59 H          -6.8107   -1.5759    0.6621 H       1  UNL1        0.0268
     60 H          -6.9074   -2.1261   -1.1016 H       1  UNL1        0.0268
     61 H          -6.8719   -3.3141    0.2373 H       1  UNL1        0.0268
     62 H           5.7147    0.9161    2.0683 H       1  UNL1        0.0640
@<TRIPOS>BOND
     1     1     2    1
     2     2     3    1
     3     2     4   am
     4     4     5    2
     5     4     6    1
     6     6     7   ar
     7     7     8   ar
     8     8     9   ar
     9     9    10    1
    10    10    11    1
    11    11    12   ar
    12    12    13   ar
    13    13    14   ar
    14    14    15   ar
    15    15    16   ar
    16    14    17   ar
    17    17    18   ar
    18    18    19    1
    19    19    20   ar
    20    20    21   ar
    21    21    22   ar
    22    22    23    1
    23    22    24   ar
    24    18    25   ar
    25    25    26   am
    26    26    27    2
    27    26    28    1
    28    28    29    1
    29    29    30    1
    30    29    31    1
    31    29    32    1
    32     9    33   ar
    33    33    34    1
    34    33    35   ar
    35    35     6   ar
    36    16    11   ar
    37    24    19   ar
    38    25    13   ar
    39     1    36    1
    40     1    37    1
    41     1    38    1
    42     3    39    1
    43     3    40    1
    44     3    41    1
    45     7    42    1
    46     8    43    1
    47    10    44    1
    48    12    45    1
    49    15    46    1
    50    17    47    1
    51    20    48    1
    52    23    49    1
    53    23    50    1
    54    23    51    1
    55    24    52    1
    56    30    53    1
    57    30    54    1
    58    30    55    1
    59    31    56    1
    60    31    57    1
    61    31    58    1
    62    32    59    1
    63    32    60    1
    64    32    61    1
    65    35    62    1
