@<TRIPOS>MOLECULE
*****
 97 98 0 0 0
SMALL
GASTEIGER

@<TRIPOS>ATOM
      1 C          -1.1449    7.1888    0.8154 C.3     1  UNL1       -0.0306
      2 C          -2.1995    7.6354   -0.1323 C.3     1  UNL1        0.0900
      3 O          -3.3076    6.7773   -0.2079 O.3     1  UNL1       -0.4618
      4 C          -3.1407    5.4568   -0.6004 C.2     1  UNL1        0.3316
      5 O          -1.9551    5.1018   -0.8724 O.2     1  UNL1       -0.2456
      6 C          -4.2522    4.5258   -0.6980 C.2     1  UNL1        0.0186
      7 C          -3.9737    3.2665   -1.0880 C.2     1  UNL1       -0.0772
      8 C          -5.0928    2.3472   -1.1823 C.3     1  UNL1       -0.0321
      9 C          -5.1580    1.1366   -0.3535 C.3     1  UNL1       -0.0224
     10 C          -4.2100    0.0014   -0.4859 C.3     1  UNL1        0.1028
     11 N          -4.6883   -0.9712    0.5350 N.am    1  UNL1       -0.2698
     12 C          -5.2124   -2.2071    0.0549 C.2     1  UNL1        0.4012
     13 O          -5.2569   -2.4273   -1.1714 O.2     1  UNL1       -0.2265
     14 O          -5.6785   -3.1794    0.9098 O.3     1  UNL1       -0.4456
     15 C          -6.2169   -4.4152    0.5653 C.3     1  UNL1        0.1191
     16 C          -5.2447   -5.2135   -0.1978 C.ar    1  UNL1       -0.0103
     17 C          -4.2854   -5.9257    0.4922 C.ar    1  UNL1       -0.0554
     18 C          -3.3740   -6.7074   -0.1779 C.ar    1  UNL1       -0.0614
     19 C          -3.3967   -6.7980   -1.5547 C.ar    1  UNL1       -0.0617
     20 C          -4.3377   -6.1009   -2.2464 C.ar    1  UNL1       -0.0614
     21 C          -5.2508   -5.3180   -1.5717 C.ar    1  UNL1       -0.0554
     22 C          -2.7871    0.2059   -0.2892 C.2     1  UNL1        0.2341
     23 O          -2.0808    0.7645   -1.1574 O.2     1  UNL1       -0.2738
     24 N          -2.1215   -0.2304    0.9278 N.am    1  UNL1       -0.3022
     25 C          -0.6709    0.0087    1.0633 C.3     1  UNL1        0.1019
     26 C          -0.0460   -1.3156    1.3220 C.2     1  UNL1        0.2368
     27 O          -0.8782   -2.2780    1.5527 O.2     1  UNL1       -0.2735
     28 N           1.3332   -1.5861    1.3320 N.am    1  UNL1       -0.2884
     29 C           1.9133   -2.8667    1.6331 C.3     1  UNL1        0.0156
     30 C           3.2980   -2.5239    2.1756 C.3     1  UNL1       -0.0350
     31 C           3.3616   -1.0109    2.1911 C.3     1  UNL1       -0.0243
     32 C           2.4029   -0.7036    1.0309 C.3     1  UNL1        0.1023
     33 C           3.1546   -1.0880   -0.2084 C.2     1  UNL1        0.2342
     34 O           2.7470   -2.0453   -0.9003 O.2     1  UNL1       -0.2738
     35 N           4.3048   -0.3857   -0.5936 N.am    1  UNL1       -0.3008
     36 C           5.0912   -0.7018   -1.7914 C.3     1  UNL1        0.1206
     37 C           5.1164    0.5146   -2.6596 C.3     1  UNL1       -0.0218
     38 C           5.6822    1.7581   -2.0718 C.3     1  UNL1       -0.0445
     39 C           7.1022    1.7327   -1.6361 C.3     1  UNL1       -0.0626
     40 C           5.5832    2.8566   -3.1494 C.3     1  UNL1       -0.0626
     41 C           6.4393   -1.1167   -1.3823 C.2     1  UNL1        0.3274
     42 O           7.3415   -1.4433   -2.2157 O.2     1  UNL1       -0.2488
     43 O           6.8537   -1.1934   -0.0368 O.3     1  UNL1       -0.4666
     44 C           8.1502   -1.5958    0.3362 C.3     1  UNL1        0.0817
     45 C          -0.4642    0.8670    2.3151 C.3     1  UNL1       -0.0197
     46 C          -1.2485    2.1595    2.0588 C.3     1  UNL1       -0.0605
     47 C          -0.9522    0.1750    3.5517 C.3     1  UNL1       -0.0605
     48 H          -0.9382    8.0043    1.5359 H       1  UNL1        0.0262
     49 H          -0.1716    6.9619    0.3228 H       1  UNL1        0.0262
     50 H          -1.4809    6.3143    1.4452 H       1  UNL1        0.0262
     51 H          -1.7320    7.6343   -1.1618 H       1  UNL1        0.0695
     52 H          -2.4713    8.6803    0.0761 H       1  UNL1        0.0695
     53 H          -5.2515    4.8279   -0.4696 H       1  UNL1        0.0686
     54 H          -2.9717    3.0164   -1.3237 H       1  UNL1        0.0574
     55 H          -5.1348    2.0257   -2.2998 H       1  UNL1        0.0308
     56 H          -6.0584    2.9473   -1.1158 H       1  UNL1        0.0308
     57 H          -5.2187    1.4656    0.7453 H       1  UNL1        0.0291
     58 H          -6.2402    0.7347   -0.4761 H       1  UNL1        0.0291
     59 H          -4.3775   -0.4767   -1.4739 H       1  UNL1        0.0596
     60 H          -4.6691   -0.7996    1.5367 H       1  UNL1        0.1528
     61 H          -6.5624   -4.9884    1.4599 H       1  UNL1        0.0749
     62 H          -7.1339   -4.3100   -0.0667 H       1  UNL1        0.0749
     63 H          -4.2870   -5.8386    1.5773 H       1  UNL1        0.0621
     64 H          -2.6416   -7.2454    0.4244 H       1  UNL1        0.0618
     65 H          -2.6486   -7.4318   -2.0168 H       1  UNL1        0.0618
     66 H          -4.3656   -6.1655   -3.3385 H       1  UNL1        0.0618
     67 H          -5.9918   -4.7914   -2.1623 H       1  UNL1        0.0621
     68 H          -2.6916   -0.6930    1.6507 H       1  UNL1        0.1495
     69 H          -0.3044    0.5106    0.1730 H       1  UNL1        0.0597
     70 H           1.3252   -3.4236    2.4026 H       1  UNL1        0.0465
     71 H           2.0218   -3.5117    0.7257 H       1  UNL1        0.0465
     72 H           4.0854   -2.8791    1.4790 H       1  UNL1        0.0281
     73 H           3.4266   -2.9340    3.2002 H       1  UNL1        0.0281
     74 H           2.8670   -0.5793    3.0897 H       1  UNL1        0.0288
     75 H           4.3646   -0.6063    2.0173 H       1  UNL1        0.0288
     76 H           2.1567    0.3766    1.0072 H       1  UNL1        0.0597
     77 H           4.6754    0.4273   -0.0284 H       1  UNL1        0.1496
     78 H           4.5652   -1.5554   -2.3335 H       1  UNL1        0.0614
     79 H           4.0308    0.7342   -2.9070 H       1  UNL1        0.0291
     80 H           5.6691    0.3241   -3.6184 H       1  UNL1        0.0291
     81 H           5.0010    2.1501   -1.2485 H       1  UNL1        0.0296
     82 H           7.2862    1.3847   -0.6044 H       1  UNL1        0.0232
     83 H           7.7734    1.1969   -2.3327 H       1  UNL1        0.0232
     84 H           7.5160    2.7853   -1.6373 H       1  UNL1        0.0232
     85 H           6.4041    2.6489   -3.8615 H       1  UNL1        0.0232
     86 H           4.5805    2.7579   -3.5914 H       1  UNL1        0.0232
     87 H           5.7633    3.8222   -2.6649 H       1  UNL1        0.0232
     88 H           8.0971   -2.4586    1.0445 H       1  UNL1        0.0661
     89 H           8.6565   -1.9938   -0.5885 H       1  UNL1        0.0661
     90 H           8.7495   -0.8175    0.8173 H       1  UNL1        0.0661
     91 H           0.5758    1.1611    2.4820 H       1  UNL1        0.0318
     92 H          -2.2146    1.9009    1.6255 H       1  UNL1        0.0233
     93 H          -0.6478    2.8651    1.4496 H       1  UNL1        0.0233
     94 H          -1.4402    2.7045    3.0206 H       1  UNL1        0.0233
     95 H          -1.7998    0.7337    4.0397 H       1  UNL1        0.0233
     96 H          -0.1602    0.1529    4.3561 H       1  UNL1        0.0233
     97 H          -1.2349   -0.8811    3.3871 H       1  UNL1        0.0233
@<TRIPOS>BOND
     1     1     2    1
     2     2     3    1
     3     3     4    1
     4     4     5    2
     5     4     6    1
     6     6     7    2
     7     7     8    1
     8     8     9    1
     9     9    10    1
    10    10    11    1
    11    11    12   am
    12    12    13    2
    13    12    14    1
    14    14    15    1
    15    15    16    1
    16    16    17   ar
    17    17    18   ar
    18    18    19   ar
    19    19    20   ar
    20    20    21   ar
    21    10    22    1
    22    22    23    2
    23    22    24   am
    24    24    25    1
    25    25    26    1
    26    26    27    2
    27    26    28   am
    28    28    29    1
    29    29    30    1
    30    30    31    1
    31    31    32    1
    32    32    33    1
    33    33    34    2
    34    33    35   am
    35    35    36    1
    36    36    37    1
    37    37    38    1
    38    38    39    1
    39    38    40    1
    40    36    41    1
    41    41    42    2
    42    41    43    1
    43    43    44    1
    44    25    45    1
    45    45    46    1
    46    45    47    1
    47    21    16   ar
    48    32    28    1
    49     1    48    1
    50     1    49    1
    51     1    50    1
    52     2    51    1
    53     2    52    1
    54     6    53    1
    55     7    54    1
    56     8    55    1
    57     8    56    1
    58     9    57    1
    59     9    58    1
    60    10    59    1
    61    11    60    1
    62    15    61    1
    63    15    62    1
    64    17    63    1
    65    18    64    1
    66    19    65    1
    67    20    66    1
    68    21    67    1
    69    24    68    1
    70    25    69    1
    71    29    70    1
    72    29    71    1
    73    30    72    1
    74    30    73    1
    75    31    74    1
    76    31    75    1
    77    32    76    1
    78    35    77    1
    79    36    78    1
    80    37    79    1
    81    37    80    1
    82    38    81    1
    83    39    82    1
    84    39    83    1
    85    39    84    1
    86    40    85    1
    87    40    86    1
    88    40    87    1
    89    44    88    1
    90    44    89    1
    91    44    90    1
    92    45    91    1
    93    46    92    1
    94    46    93    1
    95    46    94    1
    96    47    95    1
    97    47    96    1
    98    47    97    1
