
     RDKit          3D

 38 38  0  0  0  0  0  0  0  0999 V2000
   -2.4742    3.6213    1.1989 C   0  0  0  0  0  0  0  0  0  0  0  0
   -2.2485    2.2908    0.4221 C   0  0  0  0  0  0  0  0  0  0  0  0
   -0.7808    2.0818    0.4279 C   0  0  0  0  0  0  0  0  0  0  0  0
   -0.1573    0.9763   -0.2898 C   0  0  0  0  0  0  0  0  0  0  0  0
   -0.4603   -0.4538   -0.0020 C   0  0  1  0  0  0  0  0  0  0  0  0
   -1.8344   -0.9308   -0.2364 C   0  0  0  0  0  0  0  0  0  0  0  0
   -2.1005   -2.3486    0.1134 C   0  0  0  0  0  0  0  0  0  0  0  0
   -1.2777   -3.0269    0.7444 O   0  0  0  0  0  0  0  0  0  0  0  0
   -3.3304   -2.9314   -0.2896 N   0  0  0  0  0  0  0  0  0  0  0  0
   -3.6304   -4.2181   -0.0009 O   0  0  0  0  0  0  0  0  0  0  0  0
    0.7620   -1.3953   -0.9125 S   0  0  0  0  0  6  0  0  0  0  0  0
    0.6453   -2.8457   -0.8061 O   0  0  0  0  0  0  0  0  0  0  0  0
    0.5905   -1.0434   -2.3878 O   0  0  0  0  0  0  0  0  0  0  0  0
    2.3652   -0.8430   -0.4879 C   0  0  0  0  0  0  0  0  0  0  0  0
    3.0461    0.1342   -1.1799 C   0  0  0  0  0  0  0  0  0  0  0  0
    4.3010    0.5675   -0.8477 C   0  0  0  0  0  0  0  0  0  0  0  0
    4.9146   -0.0143    0.2473 C   0  0  0  0  0  0  0  0  0  0  0  0
    4.2776   -0.9955    0.9733 C   0  0  0  0  0  0  0  0  0  0  0  0
    2.9970   -1.4079    0.5996 C   0  0  0  0  0  0  0  0  0  0  0  0
   -3.4954    3.6489    1.5897 H   0  0  0  0  0  0  0  0  0  0  0  0
   -1.7428    3.7055    2.0098 H   0  0  0  0  0  0  0  0  0  0  0  0
   -2.3620    4.4126    0.4361 H   0  0  0  0  0  0  0  0  0  0  0  0
   -2.6702    2.3385   -0.5868 H   0  0  0  0  0  0  0  0  0  0  0  0
   -2.8360    1.5668    1.0333 H   0  0  0  0  0  0  0  0  0  0  0  0
   -0.2857    3.0515    0.0832 H   0  0  0  0  0  0  0  0  0  0  0  0
   -0.4551    1.9621    1.5335 H   0  0  0  0  0  0  0  0  0  0  0  0
   -0.3866    1.1221   -1.4175 H   0  0  0  0  0  0  0  0  0  0  0  0
    0.9815    1.1185   -0.3222 H   0  0  0  0  0  0  0  0  0  0  0  0
   -0.2244   -0.6425    1.0886 H   0  0  0  0  0  0  0  0  0  0  0  0
   -2.6538   -0.3296    0.1748 H   0  0  0  0  0  0  0  0  0  0  0  0
   -1.9986   -0.8045   -1.3725 H   0  0  0  0  0  0  0  0  0  0  0  0
   -4.0498   -2.3939   -0.8224 H   0  0  0  0  0  0  0  0  0  0  0  0
   -4.0387   -4.6001   -0.8243 H   0  0  0  0  0  0  0  0  0  0  0  0
    2.5690    0.5942   -2.0410 H   0  0  0  0  0  0  0  0  0  0  0  0
    4.8299    1.3411   -1.4022 H   0  0  0  0  0  0  0  0  0  0  0  0
    5.9002    0.2952    0.5443 H   0  0  0  0  0  0  0  0  0  0  0  0
    4.7970   -1.4193    1.8196 H   0  0  0  0  0  0  0  0  0  0  0  0
    2.5166   -2.1842    1.1897 H   0  0  0  0  0  0  0  0  0  0  0  0
  1  2  1  0
  2  3  1  0
  3  4  1  0
  4  5  1  0
  5  6  1  0
  6  7  1  0
  7  8  2  0
  7  9  1  0
  9 10  1  0
  5 11  1  0
 11 12  2  0
 11 13  2  0
 11 14  1  0
 14 15  2  0
 15 16  1  0
 16 17  2  0
 17 18  1  0
 18 19  2  0
 19 14  1  0
  1 20  1  0
  1 21  1  0
  1 22  1  0
  2 23  1  0
  2 24  1  0
  3 25  1  0
  3 26  1  0
  4 27  1  0
  4 28  1  0
  5 29  1  1
  6 30  1  0
  6 31  1  0
  9 32  1  0
 10 33  1  0
 15 34  1  0
 16 35  1  0
 17 36  1  0
 18 37  1  0
 19 38  1  0
M  END
$$$$
