@<TRIPOS>MOLECULE
*****
 38 38 0 0 0
SMALL
GASTEIGER

@<TRIPOS>ATOM
      1 C          -2.4742    3.6213    1.1989 C.3     1  UNL1       -0.0653
      2 C          -2.2485    2.2908    0.4221 C.3     1  UNL1       -0.0559
      3 C          -0.7808    2.0818    0.4279 C.3     1  UNL1       -0.0515
      4 C          -0.1573    0.9763   -0.2898 C.3     1  UNL1       -0.0299
      5 C          -0.4603   -0.4538   -0.0020 C.3     1  UNL1        0.0902
      6 C          -1.8344   -0.9308   -0.2364 C.3     1  UNL1        0.0485
      7 C          -2.1005   -2.3486    0.1134 C.2     1  UNL1        0.2373
      8 O          -1.2777   -3.0269    0.7444 O.2     1  UNL1       -0.2737
      9 N          -3.3304   -2.9314   -0.2896 N.am    1  UNL1       -0.1974
     10 O          -3.6304   -4.2181   -0.0009 O.3     1  UNL1       -0.2952
     11 S           0.7620   -1.3953   -0.9125 S.O2    1  UNL1        0.0002
     12 O           0.6453   -2.8457   -0.8061 O.2     1  UNL1       -0.1691
     13 O           0.5905   -1.0434   -2.3878 O.2     1  UNL1       -0.1691
     14 C           2.3652   -0.8430   -0.4879 C.ar    1  UNL1        0.0885
     15 C           3.0461    0.1342   -1.1799 C.ar    1  UNL1       -0.0369
     16 C           4.3010    0.5675   -0.8477 C.ar    1  UNL1       -0.0600
     17 C           4.9146   -0.0143    0.2473 C.ar    1  UNL1       -0.0616
     18 C           4.2776   -0.9955    0.9733 C.ar    1  UNL1       -0.0600
     19 C           2.9970   -1.4079    0.5996 C.ar    1  UNL1       -0.0369
     20 H          -3.4954    3.6489    1.5897 H       1  UNL1        0.0230
     21 H          -1.7428    3.7055    2.0098 H       1  UNL1        0.0230
     22 H          -2.3620    4.4126    0.4361 H       1  UNL1        0.0230
     23 H          -2.6702    2.3385   -0.5868 H       1  UNL1        0.0263
     24 H          -2.8360    1.5668    1.0333 H       1  UNL1        0.0263
     25 H          -0.2857    3.0515    0.0832 H       1  UNL1        0.0266
     26 H          -0.4551    1.9621    1.5335 H       1  UNL1        0.0266
     27 H          -0.3866    1.1221   -1.4175 H       1  UNL1        0.0284
     28 H           0.9815    1.1185   -0.3222 H       1  UNL1        0.0284
     29 H          -0.2244   -0.6425    1.0886 H       1  UNL1        0.0545
     30 H          -2.6538   -0.3296    0.1748 H       1  UNL1        0.0378
     31 H          -1.9986   -0.8045   -1.3725 H       1  UNL1        0.0378
     32 H          -4.0498   -2.3939   -0.8224 H       1  UNL1        0.1822
     33 H          -4.0387   -4.6001   -0.8243 H       1  UNL1        0.2414
     34 H           2.5690    0.5942   -2.0410 H       1  UNL1        0.0636
     35 H           4.8299    1.3411   -1.4022 H       1  UNL1        0.0618
     36 H           5.9002    0.2952    0.5443 H       1  UNL1        0.0618
     37 H           4.7970   -1.4193    1.8196 H       1  UNL1        0.0618
     38 H           2.5166   -2.1842    1.1897 H       1  UNL1        0.0636
@<TRIPOS>BOND
     1     1     2    1
     2     2     3    1
     3     3     4    1
     4     4     5    1
     5     5     6    1
     6     6     7    1
     7     7     8    2
     8     7     9   am
     9     9    10    1
    10     5    11    1
    11    11    12    2
    12    11    13    2
    13    11    14    1
    14    14    15   ar
    15    15    16   ar
    16    16    17   ar
    17    17    18   ar
    18    18    19   ar
    19    19    14   ar
    20     1    20    1
    21     1    21    1
    22     1    22    1
    23     2    23    1
    24     2    24    1
    25     3    25    1
    26     3    26    1
    27     4    27    1
    28     4    28    1
    29     5    29    1
    30     6    30    1
    31     6    31    1
    32     9    32    1
    33    10    33    1
    34    15    34    1
    35    16    35    1
    36    17    36    1
    37    18    37    1
    38    19    38    1
