
     RDKit          3D

 65 68  0  0  0  0  0  0  0  0999 V2000
  -10.4719   -0.6066    0.7473 C   0  0  0  0  0  0  0  0  0  0  0  0
   -9.4423   -0.1583    0.1309 O   0  0  0  0  0  0  0  0  0  0  0  0
   -8.3758    0.2859   -0.4861 C   0  0  0  0  0  0  0  0  0  0  0  0
   -8.8593    1.2805   -1.4970 C   0  0  0  0  0  0  0  0  0  0  0  0
   -7.9896    1.8897   -2.2679 C   0  0  0  0  0  0  0  0  0  0  0  0
   -6.6412    1.6522   -2.1840 C   0  0  0  0  0  0  0  0  0  0  0  0
   -6.1566    0.7197   -1.2389 C   0  0  0  0  0  0  0  0  0  0  0  0
   -4.7288    0.4323   -1.2070 C   0  0  2  0  0  0  0  0  0  0  0  0
   -4.1438    1.3076   -2.1912 O   0  0  0  0  0  0  0  0  0  0  0  0
   -4.3842   -0.9596   -1.7235 C   0  0  0  0  0  0  0  0  0  0  0  0
   -2.8885   -1.1466   -1.8051 C   0  0  0  0  0  0  0  0  0  0  0  0
   -2.0999    0.0933   -1.4594 C   0  0  2  0  0  0  0  0  0  0  0  0
   -0.7080   -0.2250   -1.5593 N   0  0  0  0  0  0  0  0  0  0  0  0
   -0.0945   -1.1721   -0.7404 C   0  0  0  0  0  0  0  0  0  0  0  0
    1.2115   -0.3746   -0.8903 C   0  0  0  0  0  0  0  0  0  0  0  0
    1.9426   -0.2041    0.3013 N   0  0  0  0  0  0  0  0  0  0  0  0
    3.3466   -0.3311    0.4728 C   0  0  0  0  0  0  0  0  0  0  0  0
    4.0662   -0.6341   -0.4587 O   0  0  0  0  0  0  0  0  0  0  0  0
    3.9247   -0.0673    1.8423 C   0  0  0  0  0  0  0  0  0  0  0  0
    5.3180   -0.1384    1.8892 N   0  0  0  0  0  0  0  0  0  0  0  0
    6.2018   -1.1858    1.6878 C   0  0  0  0  0  0  0  0  0  0  0  0
    5.7267   -2.3461    1.4133 O   0  0  0  0  0  0  0  0  0  0  0  0
    7.6165   -1.0584    1.7631 C   0  0  0  0  0  0  0  0  0  0  0  0
    8.4365   -2.1721    1.9255 C   0  0  0  0  0  0  0  0  0  0  0  0
    9.8297   -2.0575    1.9827 C   0  0  0  0  0  0  0  0  0  0  0  0
   10.3856   -0.8167    1.8702 C   0  0  0  0  0  0  0  0  0  0  0  0
    9.5799    0.3000    1.7033 C   0  0  0  0  0  0  0  0  0  0  0  0
   10.2172    1.6141    1.5711 C   0  0  0  0  0  0  0  0  0  0  0  0
   11.5462    1.4879    1.1377 F   0  0  0  0  0  0  0  0  0  0  0  0
   10.3067    2.3253    2.7610 F   0  0  0  0  0  0  0  0  0  0  0  0
    9.4965    2.4051    0.6953 F   0  0  0  0  0  0  0  0  0  0  0  0
    8.2207    0.1655    1.6547 C   0  0  0  0  0  0  0  0  0  0  0  0
    0.2485    0.7454   -1.2365 C   0  0  0  0  0  0  0  0  0  0  0  0
   -2.5195    0.7697   -0.2277 C   0  0  0  0  0  0  0  0  0  0  0  0
   -4.0320    0.6078    0.0722 C   0  0  0  0  0  0  0  0  0  0  0  0
   -7.1226    0.1479   -0.5000 N   0  0  0  0  0  0  0  0  0  0  0  0
  -10.3640   -1.3899    1.5468 H   0  0  0  0  0  0  0  0  0  0  0  0
  -11.2409   -1.1016    0.0447 H   0  0  0  0  0  0  0  0  0  0  0  0
  -11.0435    0.2669    1.2524 H   0  0  0  0  0  0  0  0  0  0  0  0
   -9.9434    1.4301   -1.5487 H   0  0  0  0  0  0  0  0  0  0  0  0
   -8.3285    2.6314   -3.0213 H   0  0  0  0  0  0  0  0  0  0  0  0
   -5.9241    2.1382   -2.7939 H   0  0  0  0  0  0  0  0  0  0  0  0
   -4.0678    2.2190   -1.7817 H   0  0  0  0  0  0  0  0  0  0  0  0
   -4.7231   -1.6963   -0.9430 H   0  0  0  0  0  0  0  0  0  0  0  0
   -4.8508   -1.2135   -2.6750 H   0  0  0  0  0  0  0  0  0  0  0  0
   -2.5130   -1.9663   -1.1358 H   0  0  0  0  0  0  0  0  0  0  0  0
   -2.6536   -1.4087   -2.8653 H   0  0  0  0  0  0  0  0  0  0  0  0
   -2.2337    0.8004   -2.3445 H   0  0  0  0  0  0  0  0  0  0  0  0
    0.0190   -2.2238   -1.1012 H   0  0  0  0  0  0  0  0  0  0  0  0
   -0.3706   -1.1402    0.3437 H   0  0  0  0  0  0  0  0  0  0  0  0
    1.7607   -0.6863   -1.7832 H   0  0  0  0  0  0  0  0  0  0  0  0
    1.4086    0.0501    1.1591 H   0  0  0  0  0  0  0  0  0  0  0  0
    3.5125    0.8988    2.2361 H   0  0  0  0  0  0  0  0  0  0  0  0
    3.4754   -0.8404    2.5237 H   0  0  0  0  0  0  0  0  0  0  0  0
    5.8130    0.7983    2.1530 H   0  0  0  0  0  0  0  0  0  0  0  0
    8.0160   -3.1553    2.0135 H   0  0  0  0  0  0  0  0  0  0  0  0
   10.4661   -2.9351    2.1085 H   0  0  0  0  0  0  0  0  0  0  0  0
   11.4381   -0.6940    1.9118 H   0  0  0  0  0  0  0  0  0  0  0  0
    7.6526    1.0611    1.5168 H   0  0  0  0  0  0  0  0  0  0  0  0
    0.0530    1.4407   -0.3884 H   0  0  0  0  0  0  0  0  0  0  0  0
    0.6114    1.3141   -2.1295 H   0  0  0  0  0  0  0  0  0  0  0  0
   -2.3600    1.8851   -0.2899 H   0  0  0  0  0  0  0  0  0  0  0  0
   -2.0119    0.4669    0.7161 H   0  0  0  0  0  0  0  0  0  0  0  0
   -4.3782    1.5126    0.5791 H   0  0  0  0  0  0  0  0  0  0  0  0
   -4.1826   -0.2669    0.7475 H   0  0  0  0  0  0  0  0  0  0  0  0
  1  2  1  0
  2  3  1  0
  3  4  2  0
  4  5  1  0
  5  6  2  0
  6  7  1  0
  7  8  1  0
  8  9  1  6
  8 10  1  0
 10 11  1  0
 11 12  1  0
 12 13  1  0
 13 14  1  0
 14 15  1  0
 15 16  1  0
 16 17  1  0
 17 18  2  0
 17 19  1  0
 19 20  1  0
 20 21  1  0
 21 22  2  0
 21 23  1  0
 23 24  2  0
 24 25  1  0
 25 26  2  0
 26 27  1  0
 27 28  1  0
 28 29  1  0
 28 30  1  0
 28 31  1  0
 27 32  2  0
 15 33  1  0
 12 34  1  0
 34 35  1  0
  7 36  2  0
 36  3  1  0
 35  8  1  0
 33 13  1  0
 32 23  1  0
  1 37  1  0
  1 38  1  0
  1 39  1  0
  4 40  1  0
  5 41  1  0
  6 42  1  0
  9 43  1  0
 10 44  1  0
 10 45  1  0
 11 46  1  0
 11 47  1  0
 12 48  1  6
 14 49  1  0
 14 50  1  0
 15 51  1  0
 16 52  1  0
 19 53  1  0
 19 54  1  0
 20 55  1  0
 24 56  1  0
 25 57  1  0
 26 58  1  0
 32 59  1  0
 33 60  1  0
 33 61  1  0
 34 62  1  0
 34 63  1  0
 35 64  1  0
 35 65  1  0
M  END
$$$$
