@<TRIPOS>MOLECULE
*****
 65 68 0 0 0
SMALL
GASTEIGER

@<TRIPOS>ATOM
      1 C         -10.4719   -0.6066    0.7473 C.3     1  UNL1        0.0804
      2 O          -9.4423   -0.1583    0.1309 O.3     1  UNL1       -0.4796
      3 C          -8.3758    0.2859   -0.4861 C.ar    1  UNL1        0.2147
      4 C          -8.8593    1.2805   -1.4970 C.ar    1  UNL1       -0.0000
      5 C          -7.9896    1.8897   -2.2679 C.ar    1  UNL1       -0.0549
      6 C          -6.6412    1.6522   -2.1840 C.ar    1  UNL1       -0.0373
      7 C          -6.1566    0.7197   -1.2389 C.ar    1  UNL1        0.0765
      8 C          -4.7288    0.4323   -1.2070 C.3     1  UNL1        0.1078
      9 O          -4.1438    1.3076   -2.1912 O.3     1  UNL1       -0.3824
     10 C          -4.3842   -0.9596   -1.7235 C.3     1  UNL1       -0.0170
     11 C          -2.8885   -1.1466   -1.8051 C.3     1  UNL1       -0.0344
     12 C          -2.0999    0.0933   -1.4594 C.3     1  UNL1        0.0107
     13 N          -0.7080   -0.2250   -1.5593 N.3     1  UNL1       -0.2958
     14 C          -0.0945   -1.1721   -0.7404 C.3     1  UNL1        0.0189
     15 C           1.2115   -0.3746   -0.8903 C.3     1  UNL1        0.0486
     16 N           1.9426   -0.2041    0.3013 N.am    1  UNL1       -0.3087
     17 C           3.3466   -0.3311    0.4728 C.2     1  UNL1        0.2305
     18 O           4.0662   -0.6341   -0.4587 O.2     1  UNL1       -0.2741
     19 C           3.9247   -0.0673    1.8423 C.3     1  UNL1        0.0884
     20 N           5.3180   -0.1384    1.8892 N.am    1  UNL1       -0.3028
     21 C           6.2018   -1.1858    1.6878 C.2     1  UNL1        0.2445
     22 O           5.7267   -2.3461    1.4133 O.2     1  UNL1       -0.2702
     23 C           7.6165   -1.0584    1.7631 C.ar    1  UNL1        0.0372
     24 C           8.4365   -2.1721    1.9255 C.ar    1  UNL1       -0.0496
     25 C           9.8297   -2.0575    1.9827 C.ar    1  UNL1       -0.0605
     26 C          10.3856   -0.8167    1.8702 C.ar    1  UNL1       -0.0501
     27 C           9.5799    0.3000    1.7033 C.ar    1  UNL1        0.0555
     28 C          10.2172    1.6141    1.5711 C.3     1  UNL1        0.4174
     29 F          11.5462    1.4879    1.1377 F       1  UNL1       -0.1659
     30 F          10.3067    2.3253    2.7610 F       1  UNL1       -0.1659
     31 F           9.4965    2.4051    0.6953 F       1  UNL1       -0.1659
     32 C           8.2207    0.1655    1.6547 C.ar    1  UNL1       -0.0380
     33 C           0.2485    0.7454   -1.2365 C.3     1  UNL1        0.0189
     34 C          -2.5195    0.7697   -0.2277 C.3     1  UNL1       -0.0344
     35 C          -4.0320    0.6078    0.0722 C.3     1  UNL1       -0.0170
     36 N          -7.1226    0.1479   -0.5000 N.ar    1  UNL1       -0.2150
     37 H         -10.3640   -1.3899    1.5468 H       1  UNL1        0.0660
     38 H         -11.2409   -1.1016    0.0447 H       1  UNL1        0.0660
     39 H         -11.0435    0.2669    1.2524 H       1  UNL1        0.0660
     40 H          -9.9434    1.4301   -1.5487 H       1  UNL1        0.0671
     41 H          -8.3285    2.6314   -3.0213 H       1  UNL1        0.0620
     42 H          -5.9241    2.1382   -2.7939 H       1  UNL1        0.0636
     43 H          -4.0678    2.2190   -1.7817 H       1  UNL1        0.2107
     44 H          -4.7231   -1.6963   -0.9430 H       1  UNL1        0.0297
     45 H          -4.8508   -1.2135   -2.6750 H       1  UNL1        0.0297
     46 H          -2.5130   -1.9663   -1.1358 H       1  UNL1        0.0281
     47 H          -2.6536   -1.4087   -2.8653 H       1  UNL1        0.0281
     48 H          -2.2337    0.8004   -2.3445 H       1  UNL1        0.0462
     49 H           0.0190   -2.2238   -1.1012 H       1  UNL1        0.0445
     50 H          -0.3706   -1.1402    0.3437 H       1  UNL1        0.0445
     51 H           1.7607   -0.6863   -1.7832 H       1  UNL1        0.0523
     52 H           1.4086    0.0501    1.1591 H       1  UNL1        0.1491
     53 H           3.5125    0.8988    2.2361 H       1  UNL1        0.0558
     54 H           3.4754   -0.8404    2.5237 H       1  UNL1        0.0558
     55 H           5.8130    0.7983    2.1530 H       1  UNL1        0.1495
     56 H           8.0160   -3.1553    2.0135 H       1  UNL1        0.0625
     57 H          10.4661   -2.9351    2.1085 H       1  UNL1        0.0618
     58 H          11.4381   -0.6940    1.9118 H       1  UNL1        0.0623
     59 H           7.6526    1.0611    1.5168 H       1  UNL1        0.0631
     60 H           0.0530    1.4407   -0.3884 H       1  UNL1        0.0445
     61 H           0.6114    1.3141   -2.1295 H       1  UNL1        0.0445
     62 H          -2.3600    1.8851   -0.2899 H       1  UNL1        0.0281
     63 H          -2.0119    0.4669    0.7161 H       1  UNL1        0.0281
     64 H          -4.3782    1.5126    0.5791 H       1  UNL1        0.0297
     65 H          -4.1826   -0.2669    0.7475 H       1  UNL1        0.0297
@<TRIPOS>BOND
     1     1     2    1
     2     2     3    1
     3     3     4   ar
     4     4     5   ar
     5     5     6   ar
     6     6     7   ar
     7     7     8    1
     8     8     9    1
     9     8    10    1
    10    10    11    1
    11    11    12    1
    12    12    13    1
    13    13    14    1
    14    14    15    1
    15    15    16    1
    16    16    17   am
    17    17    18    2
    18    17    19    1
    19    19    20    1
    20    20    21   am
    21    21    22    2
    22    21    23    1
    23    23    24   ar
    24    24    25   ar
    25    25    26   ar
    26    26    27   ar
    27    27    28    1
    28    28    29    1
    29    28    30    1
    30    28    31    1
    31    27    32   ar
    32    15    33    1
    33    12    34    1
    34    34    35    1
    35     7    36   ar
    36    36     3   ar
    37    35     8    1
    38    33    13    1
    39    32    23   ar
    40     1    37    1
    41     1    38    1
    42     1    39    1
    43     4    40    1
    44     5    41    1
    45     6    42    1
    46     9    43    1
    47    10    44    1
    48    10    45    1
    49    11    46    1
    50    11    47    1
    51    12    48    1
    52    14    49    1
    53    14    50    1
    54    15    51    1
    55    16    52    1
    56    19    53    1
    57    19    54    1
    58    20    55    1
    59    24    56    1
    60    25    57    1
    61    26    58    1
    62    32    59    1
    63    33    60    1
    64    33    61    1
    65    34    62    1
    66    34    63    1
    67    35    64    1
    68    35    65    1
