@<TRIPOS>MOLECULE
*****
 36 37 0 0 0
SMALL
GASTEIGER

@<TRIPOS>ATOM
      1 C          -4.6805    1.1488    1.0998 C.3     1  UNL1       -0.0443
      2 C          -3.5512    0.5522    0.3075 C.3     1  UNL1        0.0255
      3 C          -2.8433    1.6748   -0.4444 C.3     1  UNL1       -0.0443
      4 C          -4.1150   -0.3954   -0.7053 C.3     1  UNL1       -0.0443
      5 N          -2.5536   -0.0630    1.1703 N.pl3   1  UNL1       -0.3187
      6 C          -1.3652   -0.7205    0.7958 C.ar    1  UNL1        0.1612
      7 N          -1.0450   -1.9403    0.5096 N.ar    1  UNL1       -0.2099
      8 C           0.2113   -2.1970    0.1922 C.ar    1  UNL1        0.1365
      9 N           0.4047   -3.5973   -0.0991 N.pl3   1  UNL1       -0.3421
     10 C           1.2436   -1.1845    0.1490 C.ar    1  UNL1        0.1020
     11 S           0.1687    0.2882    0.6434 S.2     1  UNL1       -0.0472
     12 C           2.6187   -1.3716   -0.1860 C.2     1  UNL1        0.2031
     13 O           2.8820   -2.5325   -0.4657 O.2     1  UNL1       -0.2860
     14 C           3.4781   -0.2172   -0.1529 C.ar    1  UNL1        0.0229
     15 C           4.5618   -0.3174   -1.0057 C.ar    1  UNL1       -0.0509
     16 C           5.4907    0.6897   -1.1011 C.ar    1  UNL1       -0.0611
     17 C           5.3477    1.8241   -0.3367 C.ar    1  UNL1       -0.0617
     18 C           4.2792    1.9569    0.5240 C.ar    1  UNL1       -0.0611
     19 C           3.3690    0.9288    0.5937 C.ar    1  UNL1       -0.0509
     20 H          -4.3221    1.8103    1.9234 H       1  UNL1        0.0250
     21 H          -5.3239    1.7120    0.3899 H       1  UNL1        0.0250
     22 H          -5.3276    0.3188    1.5062 H       1  UNL1        0.0250
     23 H          -2.9898    2.6299    0.1250 H       1  UNL1        0.0250
     24 H          -3.3737    1.7962   -1.4241 H       1  UNL1        0.0250
     25 H          -1.7798    1.3987   -0.5703 H       1  UNL1        0.0250
     26 H          -4.1119   -1.4637   -0.3780 H       1  UNL1        0.0250
     27 H          -3.5927   -0.2963   -1.6918 H       1  UNL1        0.0250
     28 H          -5.1657   -0.1145   -0.9036 H       1  UNL1        0.0250
     29 H          -2.6869   -0.0435    2.2214 H       1  UNL1        0.1485
     30 H           0.1649   -3.8713   -1.0785 H       1  UNL1        0.1437
     31 H           0.7597   -4.3081    0.6072 H       1  UNL1        0.1437
     32 H           4.7657   -1.1779   -1.6553 H       1  UNL1        0.0625
     33 H           6.3499    0.6231   -1.7696 H       1  UNL1        0.0618
     34 H           6.0741    2.6443   -0.3925 H       1  UNL1        0.0618
     35 H           4.1414    2.8427    1.1395 H       1  UNL1        0.0618
     36 H           2.5168    0.9725    1.2492 H       1  UNL1        0.0625
@<TRIPOS>BOND
     1     1     2    1
     2     2     3    1
     3     2     4    1
     4     2     5    1
     5     5     6    1
     6     6     7   ar
     7     7     8   ar
     8     8     9    1
     9     8    10   ar
    10    10    11   ar
    11    10    12    1
    12    12    13    2
    13    12    14    1
    14    14    15   ar
    15    15    16   ar
    16    16    17   ar
    17    17    18   ar
    18    18    19   ar
    19    11     6   ar
    20    19    14   ar
    21     1    20    1
    22     1    21    1
    23     1    22    1
    24     3    23    1
    25     3    24    1
    26     3    25    1
    27     4    26    1
    28     4    27    1
    29     4    28    1
    30     5    29    1
    31     9    30    1
    32     9    31    1
    33    15    32    1
    34    16    33    1
    35    17    34    1
    36    18    35    1
    37    19    36    1
