@<TRIPOS>MOLECULE
*****
 37 39 0 0 0
SMALL
GASTEIGER

@<TRIPOS>ATOM
      1 C          -3.1989   -2.3477   -0.0780 C.3     1  UNL1        0.0140
      2 C          -1.7579   -2.4498   -0.3985 C.2     1  UNL1        0.2322
      3 O          -1.4182   -3.4575   -1.1090 O.2     1  UNL1       -0.2741
      4 N          -0.7947   -1.5071    0.0399 N.am    1  UNL1       -0.1853
      5 N           0.5663   -1.5639   -0.2372 N.2     1  UNL1       -0.1809
      6 C           1.1811   -0.5567    0.2920 C.2     1  UNL1        0.0688
      7 C           2.6132   -0.2901    0.2071 C.ar    1  UNL1       -0.0020
      8 C           3.4656   -1.1465   -0.4864 C.ar    1  UNL1       -0.0494
      9 C           4.8201   -0.9162   -0.5805 C.ar    1  UNL1       -0.0196
     10 C           5.3398    0.2112    0.0416 C.ar    1  UNL1        0.1169
     11 O           6.6951    0.4521   -0.0459 O.3     1  UNL1       -0.5068
     12 C           4.5430    1.0902    0.7396 C.ar    1  UNL1       -0.0196
     13 C           3.1962    0.8084    0.7997 C.ar    1  UNL1       -0.0494
     14 C           0.2319    0.3244    1.0182 C.3     1  UNL1        0.0165
     15 C          -1.1023   -0.3508    0.8407 C.3     1  UNL1        0.0807
     16 C          -2.1285    0.5147    0.2483 C.ar    1  UNL1       -0.0064
     17 C          -2.3615    0.6322   -1.0999 C.ar    1  UNL1       -0.0553
     18 C          -3.3312    1.4518   -1.6344 C.ar    1  UNL1       -0.0614
     19 C          -4.1046    2.1902   -0.7606 C.ar    1  UNL1       -0.0604
     20 C          -3.9139    2.1109    0.6002 C.ar    1  UNL1       -0.0431
     21 C          -2.9297    1.2754    1.0872 C.ar    1  UNL1        0.0460
     22 CL         -2.7142    1.1994    2.8356 Cl      1  UNL1       -0.0832
     23 H          -3.8068   -1.9764   -0.9061 H       1  UNL1        0.0323
     24 H          -3.5412   -3.3661    0.2030 H       1  UNL1        0.0323
     25 H          -3.3334   -1.7302    0.8565 H       1  UNL1        0.0323
     26 H           3.0240   -2.0034   -0.9510 H       1  UNL1        0.0625
     27 H           5.4607   -1.6034   -1.1293 H       1  UNL1        0.0654
     28 H           7.0170    1.4078   -0.0233 H       1  UNL1        0.2921
     29 H           5.0180    1.9447    1.1967 H       1  UNL1        0.0654
     30 H           2.5682    1.5015    1.3500 H       1  UNL1        0.0625
     31 H           0.5202    0.4060    2.0855 H       1  UNL1        0.0351
     32 H           0.2726    1.3234    0.5401 H       1  UNL1        0.0351
     33 H          -1.4164   -0.7237    1.8436 H       1  UNL1        0.0575
     34 H          -1.7522    0.0514   -1.7734 H       1  UNL1        0.0621
     35 H          -3.5069    1.5374   -2.6957 H       1  UNL1        0.0618
     36 H          -4.8933    2.8615   -1.1226 H       1  UNL1        0.0618
     37 H          -4.5273    2.6948    1.2672 H       1  UNL1        0.0632
@<TRIPOS>BOND
     1     1     2    1
     2     2     3    2
     3     2     4   am
     4     4     5    1
     5     5     6    2
     6     6     7    1
     7     7     8   ar
     8     8     9   ar
     9     9    10   ar
    10    10    11    1
    11    10    12   ar
    12    12    13   ar
    13     6    14    1
    14    14    15    1
    15    15    16    1
    16    16    17   ar
    17    17    18   ar
    18    18    19   ar
    19    19    20   ar
    20    20    21   ar
    21    21    22    1
    22    15     4    1
    23    21    16   ar
    24    13     7   ar
    25     1    23    1
    26     1    24    1
    27     1    25    1
    28     8    26    1
    29     9    27    1
    30    11    28    1
    31    12    29    1
    32    13    30    1
    33    14    31    1
    34    14    32    1
    35    15    33    1
    36    17    34    1
    37    18    35    1
    38    19    36    1
    39    20    37    1
