@<TRIPOS>MOLECULE
*****
 69 71 0 0 0
SMALL
GASTEIGER

@<TRIPOS>ATOM
      1 C          -8.5050    0.3476   -0.5237 C.3     1  UNL1       -0.0130
      2 N          -7.8499   -0.1299    0.6897 N.3     1  UNL1       -0.3069
      3 C          -8.4486   -1.4063    1.1074 C.3     1  UNL1       -0.0130
      4 C          -6.4345   -0.3311    0.3772 C.3     1  UNL1        0.0141
      5 C          -5.7456    0.9777    0.1070 C.3     1  UNL1        0.0275
      6 N          -4.3537    0.7715   -0.2019 N.am    1  UNL1       -0.2987
      7 C          -3.3999    0.7960    0.9113 C.3     1  UNL1        0.0305
      8 C          -2.1307    1.5172    0.4874 C.3     1  UNL1        0.0308
      9 N          -1.2102    0.6263   -0.2286 N.am    1  UNL1       -0.2955
     10 C           0.0811    0.6152    0.2584 C.2     1  UNL1        0.2490
     11 O           0.3122    1.4338    1.2288 O.2     1  UNL1       -0.2699
     12 C           1.2470   -0.1940   -0.1672 C.ar    1  UNL1        0.0657
     13 C           1.1603   -1.3907   -0.7815 C.ar    1  UNL1       -0.0370
     14 C           2.2631   -2.0959   -1.0740 C.ar    1  UNL1       -0.0023
     15 C           2.4614   -3.4091   -1.7331 C.3     1  UNL1       -0.0064
     16 C           2.6107   -3.3202   -3.2178 C.3     1  UNL1       -0.0556
     17 C           1.3167   -4.3198   -1.3555 C.3     1  UNL1       -0.0556
     18 C           3.7220   -4.0086   -1.1112 C.3     1  UNL1       -0.0556
     19 S           3.5588   -1.0402   -0.4560 S.2     1  UNL1       -0.0771
     20 C           2.5169    0.2392    0.1316 C.ar    1  UNL1        0.0853
     21 N           3.0245    1.4212    0.7509 N.am    1  UNL1       -0.2629
     22 C           4.4325    1.5870    0.9617 C.2     1  UNL1        0.3085
     23 O           5.1936    0.6695    0.5939 O.2     1  UNL1       -0.2521
     24 N           4.9562    2.7379    1.5612 N.am    1  UNL1       -0.2678
     25 C           6.3457    2.9221    1.7827 C.ar    1  UNL1        0.0546
     26 C           6.9373    2.5183    2.9556 C.ar    1  UNL1       -0.0389
     27 C           8.2883    2.6863    3.1885 C.ar    1  UNL1       -0.0585
     28 C           9.0465    3.2770    2.2050 C.ar    1  UNL1       -0.0419
     29 C           8.4570    3.6911    1.0102 C.ar    1  UNL1        0.0610
     30 CL          9.4565    4.4436   -0.2281 Cl      1  UNL1       -0.0820
     31 C           7.1043    3.5189    0.7862 C.ar    1  UNL1        0.0804
     32 CL          6.4352    4.0574   -0.7293 Cl      1  UNL1       -0.0801
     33 C          -1.5653   -0.1324   -1.3854 C.3     1  UNL1        0.0233
     34 C          -2.6358    0.6637   -2.1829 C.3     1  UNL1        0.0399
     35 C          -3.9510    0.5611   -1.5503 C.2     1  UNL1        0.2171
     36 O          -4.8979    0.2333   -2.3065 O.2     1  UNL1       -0.2755
     37 H          -7.8975    0.1789   -1.4234 H       1  UNL1        0.0391
     38 H          -8.6096    1.4447   -0.4083 H       1  UNL1        0.0391
     39 H          -9.4981   -0.1123   -0.6848 H       1  UNL1        0.0391
     40 H          -9.3006   -1.1782    1.7716 H       1  UNL1        0.0391
     41 H          -7.6559   -2.0042    1.5906 H       1  UNL1        0.0391
     42 H          -8.7879   -1.9922    0.2038 H       1  UNL1        0.0391
     43 H          -6.3891   -0.9872   -0.5026 H       1  UNL1        0.0442
     44 H          -5.9763   -0.7923    1.2838 H       1  UNL1        0.0442
     45 H          -5.8711    1.6500    1.0043 H       1  UNL1        0.0477
     46 H          -6.2596    1.5150   -0.7179 H       1  UNL1        0.0477
     47 H          -3.1400   -0.2289    1.1818 H       1  UNL1        0.0480
     48 H          -3.8726    1.3883    1.7057 H       1  UNL1        0.0480
     49 H          -1.6637    1.8932    1.4209 H       1  UNL1        0.0480
     50 H          -2.4224    2.3283   -0.2002 H       1  UNL1        0.0480
     51 H           0.1760   -1.8619   -1.0409 H       1  UNL1        0.0634
     52 H           2.1175   -4.2014   -3.7020 H       1  UNL1        0.0238
     53 H           3.6840   -3.3737   -3.5229 H       1  UNL1        0.0238
     54 H           2.1769   -2.3994   -3.6616 H       1  UNL1        0.0238
     55 H           1.1130   -4.1350   -0.2607 H       1  UNL1        0.0238
     56 H           0.3971   -3.9928   -1.8888 H       1  UNL1        0.0238
     57 H           1.5525   -5.3883   -1.5431 H       1  UNL1        0.0238
     58 H           4.6274   -3.6686   -1.6482 H       1  UNL1        0.0238
     59 H           3.7836   -3.6692   -0.0566 H       1  UNL1        0.0238
     60 H           3.6343   -5.1199   -1.0601 H       1  UNL1        0.0238
     61 H           2.3807    2.1584    1.0405 H       1  UNL1        0.1569
     62 H           4.2863    3.5001    1.8594 H       1  UNL1        0.1564
     63 H           6.3227    2.0584    3.7146 H       1  UNL1        0.0637
     64 H           8.7494    2.3685    4.1094 H       1  UNL1        0.0619
     65 H          10.1124    3.4235    2.3625 H       1  UNL1        0.0633
     66 H          -1.9518   -1.1252   -1.1764 H       1  UNL1        0.0469
     67 H          -0.6970   -0.1143   -2.0969 H       1  UNL1        0.0469
     68 H          -2.6521    0.2107   -3.1849 H       1  UNL1        0.0374
     69 H          -2.2682    1.6923   -2.2429 H       1  UNL1        0.0374
@<TRIPOS>BOND
     1     1     2    1
     2     2     3    1
     3     2     4    1
     4     4     5    1
     5     5     6    1
     6     6     7    1
     7     7     8    1
     8     8     9    1
     9     9    10   am
    10    10    11    2
    11    10    12    1
    12    12    13   ar
    13    13    14   ar
    14    14    15    1
    15    15    16    1
    16    15    17    1
    17    15    18    1
    18    14    19   ar
    19    19    20   ar
    20    20    21    1
    21    21    22   am
    22    22    23    2
    23    22    24   am
    24    24    25    1
    25    25    26   ar
    26    26    27   ar
    27    27    28   ar
    28    28    29   ar
    29    29    30    1
    30    29    31   ar
    31    31    32    1
    32     9    33    1
    33    33    34    1
    34    34    35    1
    35    35    36    2
    36    35     6   am
    37    20    12   ar
    38    31    25   ar
    39     1    37    1
    40     1    38    1
    41     1    39    1
    42     3    40    1
    43     3    41    1
    44     3    42    1
    45     4    43    1
    46     4    44    1
    47     5    45    1
    48     5    46    1
    49     7    47    1
    50     7    48    1
    51     8    49    1
    52     8    50    1
    53    13    51    1
    54    16    52    1
    55    16    53    1
    56    16    54    1
    57    17    55    1
    58    17    56    1
    59    17    57    1
    60    18    58    1
    61    18    59    1
    62    18    60    1
    63    21    61    1
    64    24    62    1
    65    26    63    1
    66    27    64    1
    67    28    65    1
    68    33    66    1
    69    33    67    1
    70    34    68    1
    71    34    69    1
