@<TRIPOS>MOLECULE
*****
 47 49 0 0 0
SMALL
GASTEIGER

@<TRIPOS>ATOM
      1 C          -5.6663    2.1349    0.3594 C.3     1  UNL1        0.0366
      2 O          -4.4241    1.9423   -0.1931 O.3     1  UNL1       -0.3796
      3 C          -4.4289    0.9941   -1.2208 C.3     1  UNL1        0.0814
      4 C          -4.8868   -0.3542   -0.7756 C.3     1  UNL1        0.1130
      5 O          -4.1526   -0.9428    0.2118 O.3     1  UNL1       -0.4860
      6 C          -2.8969   -1.3642    0.3623 C.ar    1  UNL1        0.1618
      7 C          -1.9501   -1.2824   -0.6200 C.ar    1  UNL1       -0.0160
      8 C          -0.6379   -1.7402   -0.4082 C.ar    1  UNL1       -0.0534
      9 C          -0.2725   -2.2856    0.7996 C.ar    1  UNL1       -0.0268
     10 C           1.1226   -2.7527    0.9817 C.3     1  UNL1        0.0340
     11 N           1.8848   -1.6362    1.5188 N.pl3   1  UNL1       -0.3449
     12 C           2.0236   -0.3918    0.8633 C.2     1  UNL1        0.0025
     13 C           3.1380   -0.1254    0.2181 C.2     1  UNL1        0.0584
     14 C           4.2345   -1.1242    0.1815 C.2     1  UNL1        0.2523
     15 O           4.0174   -2.2073    0.7933 O.2     1  UNL1       -0.2697
     16 N           5.4552   -0.8972   -0.4911 N.am    1  UNL1       -0.2483
     17 C           5.6139    0.3419   -1.1493 C.2     1  UNL1        0.2511
     18 O           6.7137    0.5607   -1.7619 O.2     1  UNL1       -0.2698
     19 C           4.5570    1.3573   -1.1390 C.ar    1  UNL1        0.0451
     20 C           4.7881    2.5384   -1.8034 C.ar    1  UNL1       -0.0480
     21 C           3.8256    3.5098   -1.8162 C.ar    1  UNL1       -0.0470
     22 C           2.6417    3.2949   -1.1665 C.ar    1  UNL1        0.0185
     23 BR          1.3311    4.6998   -1.2223 Br      1  UNL1       -0.0503
     24 C           2.3729    2.1261   -0.4904 C.ar    1  UNL1       -0.0391
     25 C           3.3609    1.1456   -0.4850 C.ar    1  UNL1        0.0014
     26 C          -1.2289   -2.3678    1.7889 C.ar    1  UNL1       -0.0119
     27 C          -2.5216   -1.9222    1.5963 C.ar    1  UNL1        0.1588
     28 O          -3.4521   -2.0225    2.6147 O.3     1  UNL1       -0.5033
     29 H          -6.1104    1.2392    0.8066 H       1  UNL1        0.0524
     30 H          -6.4061    2.5281   -0.3743 H       1  UNL1        0.0524
     31 H          -5.5741    2.9180    1.1408 H       1  UNL1        0.0524
     32 H          -5.2037    1.3969   -1.9510 H       1  UNL1        0.0593
     33 H          -3.4830    0.9940   -1.7784 H       1  UNL1        0.0593
     34 H          -5.9718   -0.3019   -0.5161 H       1  UNL1        0.0720
     35 H          -4.8566   -1.0227   -1.6888 H       1  UNL1        0.0720
     36 H          -2.1452   -0.8782   -1.6095 H       1  UNL1        0.0655
     37 H           0.0977   -1.6601   -1.2149 H       1  UNL1        0.0622
     38 H           1.5264   -3.0367   -0.0326 H       1  UNL1        0.0511
     39 H           1.1953   -3.6461    1.6007 H       1  UNL1        0.0511
     40 H           2.3523   -1.7715    2.4420 H       1  UNL1        0.1459
     41 H           1.2268    0.3100    0.9015 H       1  UNL1        0.0786
     42 H           6.2042   -1.6171   -0.4985 H       1  UNL1        0.1581
     43 H           5.7486    2.6597   -2.3053 H       1  UNL1        0.0626
     44 H           4.0331    4.4294   -2.3465 H       1  UNL1        0.0629
     45 H           1.4444    1.9687    0.0136 H       1  UNL1        0.0635
     46 H          -0.9564   -2.7941    2.7427 H       1  UNL1        0.0658
     47 H          -3.6836   -2.9449    2.9817 H       1  UNL1        0.2923
@<TRIPOS>BOND
     1     1     2    1
     2     2     3    1
     3     3     4    1
     4     4     5    1
     5     5     6    1
     6     6     7   ar
     7     7     8   ar
     8     8     9   ar
     9     9    10    1
    10    10    11    1
    11    11    12    1
    12    12    13    2
    13    13    14    1
    14    14    15    2
    15    14    16   am
    16    16    17   am
    17    17    18    2
    18    17    19    1
    19    19    20   ar
    20    20    21   ar
    21    21    22   ar
    22    22    23    1
    23    22    24   ar
    24    24    25   ar
    25     9    26   ar
    26    26    27   ar
    27    27    28    1
    28    27     6   ar
    29    25    13    1
    30    25    19   ar
    31     1    29    1
    32     1    30    1
    33     1    31    1
    34     3    32    1
    35     3    33    1
    36     4    34    1
    37     4    35    1
    38     7    36    1
    39     8    37    1
    40    10    38    1
    41    10    39    1
    42    11    40    1
    43    12    41    1
    44    16    42    1
    45    20    43    1
    46    21    44    1
    47    24    45    1
    48    26    46    1
    49    28    47    1
