
     RDKit          3D

 47 49  0  0  0  0  0  0  0  0999 V2000
   -5.6663    2.1349    0.3594 C   0  0  0  0  0  0  0  0  0  0  0  0
   -4.4241    1.9423   -0.1931 O   0  0  0  0  0  0  0  0  0  0  0  0
   -4.4289    0.9941   -1.2208 C   0  0  0  0  0  0  0  0  0  0  0  0
   -4.8868   -0.3542   -0.7756 C   0  0  0  0  0  0  0  0  0  0  0  0
   -4.1526   -0.9428    0.2118 O   0  0  0  0  0  0  0  0  0  0  0  0
   -2.8969   -1.3642    0.3623 C   0  0  0  0  0  0  0  0  0  0  0  0
   -1.9501   -1.2824   -0.6200 C   0  0  0  0  0  0  0  0  0  0  0  0
   -0.6379   -1.7402   -0.4082 C   0  0  0  0  0  0  0  0  0  0  0  0
   -0.2725   -2.2856    0.7996 C   0  0  0  0  0  0  0  0  0  0  0  0
    1.1226   -2.7527    0.9817 C   0  0  0  0  0  0  0  0  0  0  0  0
    1.8848   -1.6362    1.5188 N   0  0  0  0  0  0  0  0  0  0  0  0
    2.0236   -0.3918    0.8633 C   0  0  0  0  0  0  0  0  0  0  0  0
    3.1380   -0.1254    0.2181 C   0  0  0  0  0  0  0  0  0  0  0  0
    4.2345   -1.1242    0.1815 C   0  0  0  0  0  0  0  0  0  0  0  0
    4.0174   -2.2073    0.7933 O   0  0  0  0  0  0  0  0  0  0  0  0
    5.4552   -0.8972   -0.4911 N   0  0  0  0  0  0  0  0  0  0  0  0
    5.6139    0.3419   -1.1493 C   0  0  0  0  0  0  0  0  0  0  0  0
    6.7137    0.5607   -1.7619 O   0  0  0  0  0  0  0  0  0  0  0  0
    4.5570    1.3573   -1.1390 C   0  0  0  0  0  0  0  0  0  0  0  0
    4.7881    2.5384   -1.8034 C   0  0  0  0  0  0  0  0  0  0  0  0
    3.8256    3.5098   -1.8162 C   0  0  0  0  0  0  0  0  0  0  0  0
    2.6417    3.2949   -1.1665 C   0  0  0  0  0  0  0  0  0  0  0  0
    1.3311    4.6998   -1.2223 Br  0  0  0  0  0  0  0  0  0  0  0  0
    2.3729    2.1261   -0.4904 C   0  0  0  0  0  0  0  0  0  0  0  0
    3.3609    1.1456   -0.4850 C   0  0  0  0  0  0  0  0  0  0  0  0
   -1.2289   -2.3678    1.7889 C   0  0  0  0  0  0  0  0  0  0  0  0
   -2.5216   -1.9222    1.5963 C   0  0  0  0  0  0  0  0  0  0  0  0
   -3.4521   -2.0225    2.6147 O   0  0  0  0  0  0  0  0  0  0  0  0
   -6.1104    1.2392    0.8066 H   0  0  0  0  0  0  0  0  0  0  0  0
   -6.4061    2.5281   -0.3743 H   0  0  0  0  0  0  0  0  0  0  0  0
   -5.5741    2.9180    1.1408 H   0  0  0  0  0  0  0  0  0  0  0  0
   -5.2037    1.3969   -1.9510 H   0  0  0  0  0  0  0  0  0  0  0  0
   -3.4830    0.9940   -1.7784 H   0  0  0  0  0  0  0  0  0  0  0  0
   -5.9718   -0.3019   -0.5161 H   0  0  0  0  0  0  0  0  0  0  0  0
   -4.8566   -1.0227   -1.6888 H   0  0  0  0  0  0  0  0  0  0  0  0
   -2.1452   -0.8782   -1.6095 H   0  0  0  0  0  0  0  0  0  0  0  0
    0.0977   -1.6601   -1.2149 H   0  0  0  0  0  0  0  0  0  0  0  0
    1.5264   -3.0367   -0.0326 H   0  0  0  0  0  0  0  0  0  0  0  0
    1.1953   -3.6461    1.6007 H   0  0  0  0  0  0  0  0  0  0  0  0
    2.3523   -1.7715    2.4420 H   0  0  0  0  0  0  0  0  0  0  0  0
    1.2268    0.3100    0.9015 H   0  0  0  0  0  0  0  0  0  0  0  0
    6.2042   -1.6171   -0.4985 H   0  0  0  0  0  0  0  0  0  0  0  0
    5.7486    2.6597   -2.3053 H   0  0  0  0  0  0  0  0  0  0  0  0
    4.0331    4.4294   -2.3465 H   0  0  0  0  0  0  0  0  0  0  0  0
    1.4444    1.9687    0.0136 H   0  0  0  0  0  0  0  0  0  0  0  0
   -0.9564   -2.7941    2.7427 H   0  0  0  0  0  0  0  0  0  0  0  0
   -3.6836   -2.9449    2.9817 H   0  0  0  0  0  0  0  0  0  0  0  0
  1  2  1  0
  2  3  1  0
  3  4  1  0
  4  5  1  0
  5  6  1  0
  6  7  2  0
  7  8  1  0
  8  9  2  0
  9 10  1  0
 10 11  1  0
 11 12  1  0
 12 13  2  0
 13 14  1  0
 14 15  2  0
 14 16  1  0
 16 17  1  0
 17 18  2  0
 17 19  1  0
 19 20  2  0
 20 21  1  0
 21 22  2  0
 22 23  1  0
 22 24  1  0
 24 25  2  0
  9 26  1  0
 26 27  2  0
 27 28  1  0
 27  6  1  0
 25 13  1  0
 25 19  1  0
  1 29  1  0
  1 30  1  0
  1 31  1  0
  3 32  1  0
  3 33  1  0
  4 34  1  0
  4 35  1  0
  7 36  1  0
  8 37  1  0
 10 38  1  0
 10 39  1  0
 11 40  1  0
 12 41  1  0
 16 42  1  0
 20 43  1  0
 21 44  1  0
 24 45  1  0
 26 46  1  0
 28 47  1  0
M  END
$$$$
