@<TRIPOS>MOLECULE
*****
 43 47 0 0 0
SMALL
GASTEIGER

@<TRIPOS>ATOM
      1 C           5.4230    1.3556   -1.6282 C.3     1  UNL1       -0.0452
      2 C           4.4183    0.2707   -1.2806 C.3     1  UNL1        0.0360
      3 C           3.4548    0.8324   -0.2871 C.3     1  UNL1        0.0273
      4 N           2.5621   -0.1089    0.2860 N.pl3   1  UNL1       -0.3406
      5 C           2.0204   -1.3937   -0.1430 C.ar    1  UNL1        0.0551
      6 C           2.9373   -2.3953   -0.5600 C.ar    1  UNL1        0.0958
      7 S           2.0355   -3.7828   -0.7948 S.2     1  UNL1       -0.0818
      8 C           0.4102   -3.0690   -0.3504 C.ar    1  UNL1        0.0226
      9 C          -0.8297   -3.6514   -0.3146 C.ar    1  UNL1       -0.0453
     10 C          -1.9074   -2.8844    0.0533 C.ar    1  UNL1       -0.0346
     11 C          -1.6360   -1.5635    0.3570 C.ar    1  UNL1        0.0724
     12 N          -2.7034   -0.7937    0.6742 N.ar    1  UNL1       -0.2466
     13 C          -2.6659    0.5058    0.9579 C.ar    1  UNL1        0.0744
     14 C          -3.8779    1.2595    1.2926 C.ar    1  UNL1        0.0355
     15 C          -3.9144    2.5927    1.5942 C.ar    1  UNL1       -0.0498
     16 C          -5.0815    3.2650    1.9044 C.ar    1  UNL1       -0.0610
     17 C          -6.2696    2.6076    1.9218 C.ar    1  UNL1       -0.0590
     18 C          -6.2686    1.2574    1.6213 C.ar    1  UNL1       -0.0258
     19 C          -5.1072    0.5883    1.3125 C.ar    1  UNL1        0.1325
     20 F          -5.1444   -0.7441    1.0212 F       1  UNL1       -0.2048
     21 C          -1.4341    1.1021    0.9203 C.ar    1  UNL1       -0.0350
     22 C          -0.2889    0.3577    0.5993 C.ar    1  UNL1       -0.0499
     23 C          -0.3926   -0.9655    0.3247 C.ar    1  UNL1        0.0104
     24 C           0.7379   -1.7650   -0.0508 C.ar    1  UNL1        0.0200
     25 C           4.4135   -2.2093   -0.7794 C.2     1  UNL1        0.2528
     26 O           5.0404   -3.2594   -0.8844 O.2     1  UNL1       -0.2696
     27 N           5.0853   -0.9420   -0.8670 N.am    1  UNL1       -0.3068
     28 H           5.7854    1.1559   -2.6441 H       1  UNL1        0.0248
     29 H           4.8668    2.3159   -1.6323 H       1  UNL1        0.0248
     30 H           6.2201    1.3810   -0.8580 H       1  UNL1        0.0248
     31 H           3.8300    0.1100   -2.2361 H       1  UNL1        0.0511
     32 H           2.8683    1.6876   -0.7217 H       1  UNL1        0.0479
     33 H           4.0730    1.2368    0.5774 H       1  UNL1        0.0479
     34 H           2.2043    0.1523    1.2879 H       1  UNL1        0.1462
     35 H          -0.9379   -4.7111   -0.5783 H       1  UNL1        0.0629
     36 H          -2.8872   -3.3025    0.0956 H       1  UNL1        0.0639
     37 H          -2.9857    3.1435    1.5888 H       1  UNL1        0.0625
     38 H          -5.0092    4.3106    2.1271 H       1  UNL1        0.0618
     39 H          -7.1683    3.1554    2.1674 H       1  UNL1        0.0618
     40 H          -7.2072    0.7254    1.6321 H       1  UNL1        0.0646
     41 H          -1.3375    2.1639    1.1411 H       1  UNL1        0.0639
     42 H           0.5913    0.9264    0.5465 H       1  UNL1        0.0625
     43 H           6.0765   -0.9180   -0.6273 H       1  UNL1        0.1494
@<TRIPOS>BOND
     1     1     2    1
     2     2     3    1
     3     3     4    1
     4     4     5    1
     5     5     6   ar
     6     6     7   ar
     7     7     8   ar
     8     8     9   ar
     9     9    10   ar
    10    10    11   ar
    11    11    12   ar
    12    12    13   ar
    13    13    14    1
    14    14    15   ar
    15    15    16   ar
    16    16    17   ar
    17    17    18   ar
    18    18    19   ar
    19    19    20    1
    20    13    21   ar
    21    21    22   ar
    22    22    23   ar
    23    23    24   ar
    24     6    25    1
    25    25    26    2
    26    25    27   am
    27    27     2    1
    28    24     5   ar
    29    24     8   ar
    30    23    11   ar
    31    19    14   ar
    32     1    28    1
    33     1    29    1
    34     1    30    1
    35     2    31    1
    36     3    32    1
    37     3    33    1
    38     4    34    1
    39     9    35    1
    40    10    36    1
    41    15    37    1
    42    16    38    1
    43    17    39    1
    44    18    40    1
    45    21    41    1
    46    22    42    1
    47    27    43    1
