
     RDKit          3D

118120  0  0  0  0  0  0  0  0999 V2000
   -6.4129   -2.9306    1.4991 C   0  0  0  0  0  0  0  0  0  0  0  0
   -5.0666   -2.3826    1.8149 C   0  0  0  0  0  0  0  0  0  0  0  0
   -3.9570   -2.7312    0.8099 C   0  0  1  0  0  0  0  0  0  0  0  0
   -2.7627   -2.1045    1.2601 O   0  0  0  0  0  0  0  0  0  0  0  0
   -2.2524   -0.9853    0.6519 C   0  0  0  0  0  0  0  0  0  0  0  0
   -2.9481   -0.5680   -0.3096 O   0  0  0  0  0  0  0  0  0  0  0  0
   -0.9893   -0.4308    1.1737 C   0  0  2  0  0  0  0  0  0  0  0  0
   -1.3557   -0.0036    2.6263 C   0  0  0  0  0  0  0  0  0  0  0  0
   -0.4321    0.7422    0.4284 C   0  0  1  0  0  0  0  0  0  0  0  0
   -1.0571    1.8461    0.9458 O   0  0  0  0  0  0  0  0  0  0  0  0
   -1.8769    2.6061    0.1842 C   0  0  1  0  0  0  0  0  0  0  0  0
   -3.2116    2.6724    0.8889 C   0  0  0  0  0  0  0  0  0  0  0  0
   -4.0017    3.9027    0.5034 C   0  0  1  0  0  0  0  0  0  0  0  0
   -5.4418    3.5037    0.2347 C   0  0  0  0  0  0  0  0  0  0  0  0
   -3.9418    4.7835    1.5507 O   0  0  0  0  0  0  0  0  0  0  0  0
   -4.6068    5.9655    1.4162 C   0  0  0  0  0  0  0  0  0  0  0  0
   -3.4190    4.4082   -0.7921 C   0  0  1  0  0  0  0  0  0  0  0  0
   -4.2000    5.3966   -1.3782 O   0  0  0  0  0  0  0  0  0  0  0  0
   -2.0121    4.8405   -0.5285 C   0  0  2  0  0  0  0  0  0  0  0  0
   -1.3895    5.0999   -1.9116 C   0  0  0  0  0  0  0  0  0  0  0  0
   -1.2987    3.8673    0.0772 O   0  0  0  0  0  0  0  0  0  0  0  0
    1.0570    0.7879    0.4934 C   0  0  2  0  0  0  0  0  0  0  0  0
    1.3566    2.2441   -0.1160 C   0  0  0  0  0  0  0  0  0  0  0  0
    1.9534   -0.0954   -0.2727 C   0  0  1  0  0  0  0  0  0  0  0  0
    3.2113    0.1736    0.1601 O   0  0  0  0  0  0  0  0  0  0  0  0
    4.2896    0.6693   -0.2800 C   0  0  2  0  0  0  0  0  0  0  0  0
    5.2192   -0.3869   -0.5721 O   0  0  0  0  0  0  0  0  0  0  0  0
    6.2108    0.0321   -1.4207 C   0  0  2  0  0  0  0  0  0  0  0  0
    7.4910   -0.6983   -1.0121 C   0  0  0  0  0  0  0  0  0  0  0  0
    6.3940    1.4754   -1.6440 C   0  0  0  0  0  0  0  0  0  0  0  0
    5.9629    2.4263   -0.6077 C   0  0  1  0  0  0  0  0  0  0  0  0
    5.0676    1.7473    0.4037 C   0  0  1  0  0  0  0  0  0  0  0  0
    4.3468    2.7142    1.0398 O   0  0  0  0  0  0  0  0  0  0  0  0
    7.0128    3.1605    0.0349 N   0  0  0  0  0  0  0  0  0  0  0  0
    8.0197    2.4118    0.6949 C   0  0  0  0  0  0  0  0  0  0  0  0
    6.5380    4.2587    0.8129 C   0  0  0  0  0  0  0  0  0  0  0  0
    1.7424   -1.5711   -0.4963 C   0  0  2  0  0  0  0  0  0  0  0  0
    2.1688   -2.4514    0.6368 C   0  0  0  0  0  0  0  0  0  0  0  0
    2.8321   -1.9165   -1.4565 O   0  0  0  0  0  0  0  0  0  0  0  0
    0.5909   -1.9745   -1.2518 C   0  0  0  0  0  0  0  0  0  0  0  0
    0.0636   -3.3299   -1.4812 C   0  0  1  0  0  0  0  0  0  0  0  0
    1.0174   -4.2870   -2.1405 C   0  0  0  0  0  0  0  0  0  0  0  0
   -0.6355   -4.0185   -0.3701 C   0  0  0  0  0  0  0  0  0  0  0  0
   -0.4035   -3.8193    0.8105 O   0  0  0  0  0  0  0  0  0  0  0  0
   -1.6969   -5.0300   -0.4219 C   0  0  2  0  0  0  0  0  0  0  0  0
   -1.3403   -6.1081   -1.4666 C   0  0  0  0  0  0  0  0  0  0  0  0
   -3.1118   -4.6633   -0.6058 C   0  0  1  0  0  0  0  0  0  0  0  0
   -3.6764   -6.0286   -0.8350 O   0  0  0  0  0  0  0  0  0  0  0  0
   -3.9076   -4.1842    0.5855 C   0  0  1  0  0  0  0  0  0  0  0  0
   -3.7566   -5.0552    1.7836 C   0  0  0  0  0  0  0  0  0  0  0  0
   -5.2662   -4.4550    0.1154 O   0  0  0  0  0  0  0  0  0  0  0  0
   -7.1548   -2.2476    2.0510 H   0  0  0  0  0  0  0  0  0  0  0  0
   -6.6797   -2.7377    0.4341 H   0  0  0  0  0  0  0  0  0  0  0  0
   -6.6218   -3.9556    1.8221 H   0  0  0  0  0  0  0  0  0  0  0  0
   -4.7345   -2.7662    2.8155 H   0  0  0  0  0  0  0  0  0  0  0  0
   -5.1545   -1.2627    1.8793 H   0  0  0  0  0  0  0  0  0  0  0  0
   -4.2757   -2.2038   -0.1069 H   0  0  0  0  0  0  0  0  0  0  0  0
   -0.2892   -1.2490    1.3377 H   0  0  0  0  0  0  0  0  0  0  0  0
   -2.3676    0.4340    2.5447 H   0  0  0  0  0  0  0  0  0  0  0  0
   -1.3997   -0.9088    3.2256 H   0  0  0  0  0  0  0  0  0  0  0  0
   -0.6688    0.7867    2.9745 H   0  0  0  0  0  0  0  0  0  0  0  0
   -0.7917    0.7473   -0.6526 H   0  0  0  0  0  0  0  0  0  0  0  0
   -1.9820    2.2018   -0.8207 H   0  0  0  0  0  0  0  0  0  0  0  0
   -3.0426    2.6426    1.9819 H   0  0  0  0  0  0  0  0  0  0  0  0
   -3.7952    1.7846    0.6150 H   0  0  0  0  0  0  0  0  0  0  0  0
   -5.4185    2.4358   -0.0930 H   0  0  0  0  0  0  0  0  0  0  0  0
   -5.9091    4.0585   -0.5900 H   0  0  0  0  0  0  0  0  0  0  0  0
   -6.0503    3.5187    1.1662 H   0  0  0  0  0  0  0  0  0  0  0  0
   -5.6982    5.8621    1.2567 H   0  0  0  0  0  0  0  0  0  0  0  0
   -4.1255    6.6319    0.6842 H   0  0  0  0  0  0  0  0  0  0  0  0
   -4.5027    6.5022    2.4005 H   0  0  0  0  0  0  0  0  0  0  0  0
   -3.4232    3.5533   -1.4942 H   0  0  0  0  0  0  0  0  0  0  0  0
   -4.5093    5.1991   -2.2847 H   0  0  0  0  0  0  0  0  0  0  0  0
   -1.9868    5.8081    0.0216 H   0  0  0  0  0  0  0  0  0  0  0  0
   -1.1191    4.1404   -2.4122 H   0  0  0  0  0  0  0  0  0  0  0  0
   -0.5613    5.8261   -1.8617 H   0  0  0  0  0  0  0  0  0  0  0  0
   -2.1585    5.5500   -2.6027 H   0  0  0  0  0  0  0  0  0  0  0  0
    1.3965    0.9673    1.5466 H   0  0  0  0  0  0  0  0  0  0  0  0
    1.2075    2.9816    0.6561 H   0  0  0  0  0  0  0  0  0  0  0  0
    0.6204    2.3072   -0.9636 H   0  0  0  0  0  0  0  0  0  0  0  0
    2.3296    2.2107   -0.6009 H   0  0  0  0  0  0  0  0  0  0  0  0
    1.9868    0.3124   -1.3195 H   0  0  0  0  0  0  0  0  0  0  0  0
    4.1572    1.0274   -1.3256 H   0  0  0  0  0  0  0  0  0  0  0  0
    5.9470   -0.4436   -2.4161 H   0  0  0  0  0  0  0  0  0  0  0  0
    7.5694   -1.7057   -1.5112 H   0  0  0  0  0  0  0  0  0  0  0  0
    7.5149   -0.9189    0.0757 H   0  0  0  0  0  0  0  0  0  0  0  0
    8.4043   -0.1575   -1.2517 H   0  0  0  0  0  0  0  0  0  0  0  0
    5.9087    1.7673   -2.6268 H   0  0  0  0  0  0  0  0  0  0  0  0
    7.4963    1.6092   -1.8957 H   0  0  0  0  0  0  0  0  0  0  0  0
    5.2968    3.2254   -1.0663 H   0  0  0  0  0  0  0  0  0  0  0  0
    5.7699    1.3344    1.1744 H   0  0  0  0  0  0  0  0  0  0  0  0
    4.0894    2.5355    1.9578 H   0  0  0  0  0  0  0  0  0  0  0  0
    7.7656    1.3861    0.9650 H   0  0  0  0  0  0  0  0  0  0  0  0
    8.2274    2.9213    1.6832 H   0  0  0  0  0  0  0  0  0  0  0  0
    9.0251    2.4786    0.1809 H   0  0  0  0  0  0  0  0  0  0  0  0
    6.2317    3.9037    1.8142 H   0  0  0  0  0  0  0  0  0  0  0  0
    7.3093    5.0499    0.8837 H   0  0  0  0  0  0  0  0  0  0  0  0
    5.6194    4.6863    0.3279 H   0  0  0  0  0  0  0  0  0  0  0  0
    1.6565   -2.3150    1.5707 H   0  0  0  0  0  0  0  0  0  0  0  0
    2.1731   -3.5256    0.3236 H   0  0  0  0  0  0  0  0  0  0  0  0
    3.3049   -2.3231    0.8174 H   0  0  0  0  0  0  0  0  0  0  0  0
    3.2072   -2.7750   -1.2136 H   0  0  0  0  0  0  0  0  0  0  0  0
    0.9037   -1.6543   -2.3780 H   0  0  0  0  0  0  0  0  0  0  0  0
   -0.2697   -1.2966   -1.1840 H   0  0  0  0  0  0  0  0  0  0  0  0
   -0.7458   -3.1845   -2.2657 H   0  0  0  0  0  0  0  0  0  0  0  0
    1.7545   -3.7625   -2.7957 H   0  0  0  0  0  0  0  0  0  0  0  0
    1.5066   -5.0027   -1.4534 H   0  0  0  0  0  0  0  0  0  0  0  0
    0.4548   -4.9039   -2.8611 H   0  0  0  0  0  0  0  0  0  0  0  0
   -1.6207   -5.6717    0.5325 H   0  0  0  0  0  0  0  0  0  0  0  0
   -0.3387   -6.4819   -1.2944 H   0  0  0  0  0  0  0  0  0  0  0  0
   -1.6365   -5.8359   -2.4759 H   0  0  0  0  0  0  0  0  0  0  0  0
   -2.0328   -6.9790   -1.2080 H   0  0  0  0  0  0  0  0  0  0  0  0
   -3.3513   -4.1420   -1.5048 H   0  0  0  0  0  0  0  0  0  0  0  0
   -3.7969   -6.1441   -1.7884 H   0  0  0  0  0  0  0  0  0  0  0  0
   -2.7210   -5.0993    2.1761 H   0  0  0  0  0  0  0  0  0  0  0  0
   -4.1139   -6.0853    1.4832 H   0  0  0  0  0  0  0  0  0  0  0  0
   -4.5021   -4.7556    2.5432 H   0  0  0  0  0  0  0  0  0  0  0  0
   -5.4019   -5.4189    0.1304 H   0  0  0  0  0  0  0  0  0  0  0  0
  1  2  1  0
  2  3  1  0
  3  4  1  0
  4  5  1  0
  5  6  2  0
  5  7  1  0
  7  8  1  0
  7  9  1  0
  9 10  1  0
 10 11  1  0
 11 12  1  0
 12 13  1  0
 13 14  1  0
 13 15  1  1
 15 16  1  0
 13 17  1  0
 17 18  1  0
 17 19  1  0
 19 20  1  0
 19 21  1  0
  9 22  1  0
 22 23  1  0
 22 24  1  0
 24 25  1  0
 25 26  1  0
 26 27  1  0
 27 28  1  0
 28 29  1  0
 28 30  1  0
 30 31  1  0
 31 32  1  0
 32 33  1  0
 31 34  1  0
 34 35  1  0
 34 36  1  0
 24 37  1  0
 37 38  1  0
 37 39  1  6
 37 40  1  0
 40 41  1  0
 41 42  1  0
 41 43  1  0
 43 44  2  0
 43 45  1  0
 45 46  1  0
 45 47  1  0
 47 48  1  0
 47 49  1  0
 49 50  1  0
 49 51  1  6
 49  3  1  0
 21 11  1  0
 32 26  1  0
  1 52  1  0
  1 53  1  0
  1 54  1  0
  2 55  1  0
  2 56  1  0
  3 57  1  6
  7 58  1  1
  8 59  1  0
  8 60  1  0
  8 61  1  0
  9 62  1  6
 11 63  1  6
 12 64  1  0
 12 65  1  0
 14 66  1  0
 14 67  1  0
 14 68  1  0
 16 69  1  0
 16 70  1  0
 16 71  1  0
 17 72  1  6
 18 73  1  0
 19 74  1  1
 20 75  1  0
 20 76  1  0
 20 77  1  0
 22 78  1  1
 23 79  1  0
 23 80  1  0
 23 81  1  0
 24 82  1  6
 26 83  1  6
 28 84  1  6
 29 85  1  0
 29 86  1  0
 29 87  1  0
 30 88  1  0
 30 89  1  0
 31 90  1  6
 32 91  1  1
 33 92  1  0
 35 93  1  0
 35 94  1  0
 35 95  1  0
 36 96  1  0
 36 97  1  0
 36 98  1  0
 38 99  1  0
 38100  1  0
 38101  1  0
 39102  1  0
 40103  1  0
 40104  1  0
 41105  1  6
 42106  1  0
 42107  1  0
 42108  1  0
 45109  1  1
 46110  1  0
 46111  1  0
 46112  1  0
 47113  1  6
 48114  1  0
 50115  1  0
 50116  1  0
 50117  1  0
 51118  1  0
M  END
$$$$
