
     RDKit          3D

 51 53  0  0  0  0  0  0  0  0999 V2000
    3.1662    1.4397    0.6786 C   0  0  0  0  0  0  0  0  0  0  0  0
    3.9067    0.1745    0.7155 C   0  0  0  0  0  0  0  0  0  0  0  0
    5.2322    0.2492    1.1733 C   0  0  0  0  0  0  0  0  0  0  0  0
    5.9840   -0.8726    1.2822 C   0  0  0  0  0  0  0  0  0  0  0  0
    7.3010   -0.8916    1.7249 O   0  0  0  0  0  0  0  0  0  0  0  0
    8.0585    0.2031    2.1227 C   0  0  0  0  0  0  0  0  0  0  0  0
    9.2647    0.2304    1.4422 F   0  0  0  0  0  0  0  0  0  0  0  0
    8.3918   -0.0049    3.4693 F   0  0  0  0  0  0  0  0  0  0  0  0
    5.4149   -2.0799    0.9336 C   0  0  0  0  0  0  0  0  0  0  0  0
    4.1652   -2.1130    0.5060 N   0  0  0  0  0  0  0  0  0  0  0  0
    3.3456   -1.0250    0.3685 C   0  0  0  0  0  0  0  0  0  0  0  0
    2.0221   -1.2037   -0.1714 C   0  0  0  0  0  0  0  0  0  0  0  0
    1.5370   -2.3942   -0.0485 O   0  0  0  0  0  0  0  0  0  0  0  0
    1.1828   -0.3016   -0.8090 N   0  0  0  0  0  0  0  0  0  0  0  0
   -0.1359   -0.6340   -1.2914 C   0  0  0  0  0  0  0  0  0  0  0  0
   -0.1971   -1.0976   -2.5897 C   0  0  0  0  0  0  0  0  0  0  0  0
   -1.4191   -1.4371   -3.1260 C   0  0  0  0  0  0  0  0  0  0  0  0
   -1.5459   -1.8998   -4.3985 F   0  0  0  0  0  0  0  0  0  0  0  0
   -2.5668   -1.3036   -2.3420 C   0  0  0  0  0  0  0  0  0  0  0  0
   -3.7531   -1.6494   -2.8874 F   0  0  0  0  0  0  0  0  0  0  0  0
   -2.5134   -0.8444   -1.0547 C   0  0  0  0  0  0  0  0  0  0  0  0
   -3.7518   -0.7080   -0.2526 C   0  0  2  0  0  0  0  0  0  0  0  0
   -4.5326   -1.9711   -0.1173 C   0  0  0  0  0  0  0  0  0  0  0  0
   -4.6574    0.3314   -0.9222 C   0  0  0  0  0  0  0  0  0  0  0  0
   -3.9930    1.6659   -0.8368 C   0  0  1  0  0  0  0  0  0  0  0  0
   -4.8792    2.7262   -1.4588 C   0  0  0  0  0  0  0  0  0  0  0  0
   -5.1362    2.4592   -2.7893 F   0  0  0  0  0  0  0  0  0  0  0  0
   -6.0285    2.8738   -0.7306 F   0  0  0  0  0  0  0  0  0  0  0  0
   -4.1793    3.9232   -1.3886 F   0  0  0  0  0  0  0  0  0  0  0  0
   -3.8286    1.9844    0.5242 O   0  0  0  0  0  0  0  0  0  0  0  0
   -3.4578    1.0146    1.4278 C   0  0  0  0  0  0  0  0  0  0  0  0
   -3.1271    1.4612    2.7405 N   0  0  0  0  0  0  0  0  0  0  0  0
   -3.4217   -0.2114    1.0778 N   0  0  0  0  0  0  0  0  0  0  0  0
   -1.2602   -0.5098   -0.5427 C   0  0  0  0  0  0  0  0  0  0  0  0
    2.1251    1.3131    1.0689 H   0  0  0  0  0  0  0  0  0  0  0  0
    3.6829    2.1547    1.4091 H   0  0  0  0  0  0  0  0  0  0  0  0
    3.2563    1.9229   -0.2875 H   0  0  0  0  0  0  0  0  0  0  0  0
    5.6618    1.2122    1.4429 H   0  0  0  0  0  0  0  0  0  0  0  0
    7.5763    1.1804    2.0862 H   0  0  0  0  0  0  0  0  0  0  0  0
    6.0416   -2.9681    1.0302 H   0  0  0  0  0  0  0  0  0  0  0  0
    1.4884    0.6597   -0.9902 H   0  0  0  0  0  0  0  0  0  0  0  0
    0.7031   -1.2042   -3.2098 H   0  0  0  0  0  0  0  0  0  0  0  0
   -5.3326   -2.0765   -0.8794 H   0  0  0  0  0  0  0  0  0  0  0  0
   -5.0600   -2.0014    0.8698 H   0  0  0  0  0  0  0  0  0  0  0  0
   -3.9174   -2.8898   -0.1830 H   0  0  0  0  0  0  0  0  0  0  0  0
   -4.9340    0.0256   -1.9351 H   0  0  0  0  0  0  0  0  0  0  0  0
   -5.6193    0.3516   -0.3375 H   0  0  0  0  0  0  0  0  0  0  0  0
   -3.0050    1.6278   -1.3010 H   0  0  0  0  0  0  0  0  0  0  0  0
   -3.9111    1.7340    3.3712 H   0  0  0  0  0  0  0  0  0  0  0  0
   -2.1550    1.5229    3.0831 H   0  0  0  0  0  0  0  0  0  0  0  0
   -1.1888   -0.1491    0.4590 H   0  0  0  0  0  0  0  0  0  0  0  0
  1  2  1  0
  2  3  2  0
  3  4  1  0
  4  5  1  0
  5  6  1  0
  6  7  1  0
  6  8  1  0
  4  9  2  0
  9 10  1  0
 10 11  2  0
 11 12  1  0
 12 13  2  0
 12 14  1  0
 14 15  1  0
 15 16  2  0
 16 17  1  0
 17 18  1  0
 17 19  2  0
 19 20  1  0
 19 21  1  0
 21 22  1  0
 22 23  1  1
 22 24  1  0
 24 25  1  0
 25 26  1  0
 26 27  1  0
 26 28  1  0
 26 29  1  0
 25 30  1  0
 30 31  1  0
 31 32  1  0
 31 33  2  0
 21 34  2  0
 11  2  1  0
 34 15  1  0
 33 22  1  0
  1 35  1  0
  1 36  1  0
  1 37  1  0
  3 38  1  0
  6 39  1  0
  9 40  1  0
 14 41  1  0
 16 42  1  0
 23 43  1  0
 23 44  1  0
 23 45  1  0
 24 46  1  0
 24 47  1  0
 25 48  1  6
 32 49  1  0
 32 50  1  0
 34 51  1  0
M  END
$$$$
