@<TRIPOS>MOLECULE
*****
 51 53 0 0 0
SMALL
GASTEIGER

@<TRIPOS>ATOM
      1 C           3.1662    1.4397    0.6786 C.3     1  UNL1       -0.0374
      2 C           3.9067    0.1745    0.7155 C.ar    1  UNL1       -0.0165
      3 C           5.2322    0.2492    1.1733 C.ar    1  UNL1       -0.0131
      4 C           5.9840   -0.8726    1.2822 C.ar    1  UNL1        0.1452
      5 O           7.3010   -0.8916    1.7249 O.3     1  UNL1       -0.4327
      6 C           8.0585    0.2031    2.1227 C.3     1  UNL1        0.3893
      7 F           9.2647    0.2304    1.4422 F       1  UNL1       -0.1663
      8 F           8.3918   -0.0049    3.4693 F       1  UNL1       -0.1663
      9 C           5.4149   -2.0799    0.9336 C.ar    1  UNL1        0.0703
     10 N           4.1652   -2.1130    0.5060 N.ar    1  UNL1       -0.2465
     11 C           3.3456   -1.0250    0.3685 C.ar    1  UNL1        0.1288
     12 C           2.0221   -1.2037   -0.1714 C.2     1  UNL1        0.2668
     13 O           1.5370   -2.3942   -0.0485 O.2     1  UNL1       -0.2682
     14 N           1.1828   -0.3016   -0.8090 N.am    1  UNL1       -0.2801
     15 C          -0.1359   -0.6340   -1.2914 C.ar    1  UNL1        0.0369
     16 C          -0.1971   -1.0976   -2.5897 C.ar    1  UNL1       -0.0023
     17 C          -1.4191   -1.4371   -3.1260 C.ar    1  UNL1        0.1605
     18 F          -1.5459   -1.8998   -4.3985 F       1  UNL1       -0.2024
     19 C          -2.5668   -1.3036   -2.3420 C.ar    1  UNL1        0.1640
     20 F          -3.7531   -1.6494   -2.8874 F       1  UNL1       -0.2021
     21 C          -2.5134   -0.8444   -1.0547 C.ar    1  UNL1        0.0197
     22 C          -3.7518   -0.7080   -0.2526 C.3     1  UNL1        0.0952
     23 C          -4.5326   -1.9711   -0.1173 C.3     1  UNL1       -0.0352
     24 C          -4.6574    0.3314   -0.9222 C.3     1  UNL1        0.0223
     25 C          -3.9930    1.6659   -0.8368 C.3     1  UNL1        0.1997
     26 C          -4.8792    2.7262   -1.4588 C.3     1  UNL1        0.4266
     27 F          -5.1362    2.4592   -2.7893 F       1  UNL1       -0.1669
     28 F          -6.0285    2.8738   -0.7306 F       1  UNL1       -0.1669
     29 F          -4.1793    3.9232   -1.3886 F       1  UNL1       -0.1669
     30 O          -3.8286    1.9844    0.5242 O.2     1  UNL1       -0.4534
     31 C          -3.4578    1.0146    1.4278 C.2     1  UNL1        0.2765
     32 N          -3.1271    1.4612    2.7405 N.pl3   1  UNL1       -0.3134
     33 N          -3.4217   -0.2114    1.0778 N.2     1  UNL1       -0.2257
     34 C          -1.2602   -0.5098   -0.5427 C.ar    1  UNL1       -0.0321
     35 H           2.1251    1.3131    1.0689 H       1  UNL1        0.0278
     36 H           3.6829    2.1547    1.4091 H       1  UNL1        0.0278
     37 H           3.2563    1.9229   -0.2875 H       1  UNL1        0.0278
     38 H           5.6618    1.2122    1.4429 H       1  UNL1        0.0658
     39 H           7.5763    1.1804    2.0862 H       1  UNL1        0.1520
     40 H           6.0416   -2.9681    1.0302 H       1  UNL1        0.0867
     41 H           1.4884    0.6597   -0.9902 H       1  UNL1        0.1552
     42 H           0.7031   -1.2042   -3.2098 H       1  UNL1        0.0666
     43 H          -5.3326   -2.0765   -0.8794 H       1  UNL1        0.0256
     44 H          -5.0600   -2.0014    0.8698 H       1  UNL1        0.0256
     45 H          -3.9174   -2.8898   -0.1830 H       1  UNL1        0.0256
     46 H          -4.9340    0.0256   -1.9351 H       1  UNL1        0.0330
     47 H          -5.6193    0.3516   -0.3375 H       1  UNL1        0.0330
     48 H          -3.0050    1.6278   -1.3010 H       1  UNL1        0.0826
     49 H          -3.9111    1.7340    3.3712 H       1  UNL1        0.1466
     50 H          -2.1550    1.5229    3.0831 H       1  UNL1        0.1466
     51 H          -1.1888   -0.1491    0.4590 H       1  UNL1        0.0640
@<TRIPOS>BOND
     1     1     2    1
     2     2     3   ar
     3     3     4   ar
     4     4     5    1
     5     5     6    1
     6     6     7    1
     7     6     8    1
     8     4     9   ar
     9     9    10   ar
    10    10    11   ar
    11    11    12    1
    12    12    13    2
    13    12    14   am
    14    14    15    1
    15    15    16   ar
    16    16    17   ar
    17    17    18    1
    18    17    19   ar
    19    19    20    1
    20    19    21   ar
    21    21    22    1
    22    22    23    1
    23    22    24    1
    24    24    25    1
    25    25    26    1
    26    26    27    1
    27    26    28    1
    28    26    29    1
    29    25    30    1
    30    30    31    1
    31    31    32    1
    32    31    33    2
    33    21    34   ar
    34    11     2   ar
    35    34    15   ar
    36    33    22    1
    37     1    35    1
    38     1    36    1
    39     1    37    1
    40     3    38    1
    41     6    39    1
    42     9    40    1
    43    14    41    1
    44    16    42    1
    45    23    43    1
    46    23    44    1
    47    23    45    1
    48    24    46    1
    49    24    47    1
    50    25    48    1
    51    32    49    1
    52    32    50    1
    53    34    51    1
