
     RDKit          3D

 54 56  0  0  0  0  0  0  0  0999 V2000
   -2.2638   -2.9027   -1.3390 C   0  0  0  0  0  0  0  0  0  0  0  0
   -1.6494   -2.2955   -0.1831 N   0  0  0  0  0  0  0  0  0  0  0  0
   -2.3932   -2.2135    1.0562 C   0  0  0  0  0  0  0  0  0  0  0  0
   -3.6442   -1.4328    0.9190 C   0  0  0  0  0  0  0  0  0  0  0  0
   -3.7217   -0.0782    1.1286 C   0  0  0  0  0  0  0  0  0  0  0  0
   -4.9117    0.6171    0.9922 C   0  0  0  0  0  0  0  0  0  0  0  0
   -6.0519   -0.0940    0.6312 C   0  0  0  0  0  0  0  0  0  0  0  0
   -7.1709    0.6383    0.5158 N   0  0  0  0  0  0  0  0  0  0  0  0
   -7.2373    1.9657    0.7232 C   0  0  0  0  0  0  0  0  0  0  0  0
   -8.5893    2.5746    0.5367 C   0  0  0  0  0  0  0  0  0  0  0  0
   -6.1365    2.6372    1.0691 N   0  0  0  0  0  0  0  0  0  0  0  0
   -4.9596    1.9850    1.2103 C   0  0  0  0  0  0  0  0  0  0  0  0
   -3.9277    2.6089    1.5342 O   0  0  0  0  0  0  0  0  0  0  0  0
   -6.0383   -1.4583    0.4059 C   0  0  0  0  0  0  0  0  0  0  0  0
   -4.8225   -2.0640    0.5631 C   0  0  0  0  0  0  0  0  0  0  0  0
   -0.3220   -1.7859   -0.2745 C   0  0  0  0  0  0  0  0  0  0  0  0
    0.5585   -1.7437   -1.2818 C   0  0  0  0  0  0  0  0  0  0  0  0
    1.7822   -1.1902   -1.0979 C   0  0  0  0  0  0  0  0  0  0  0  0
    2.0442   -0.6825    0.1859 C   0  0  0  0  0  0  0  0  0  0  0  0
    0.5141   -1.0278    1.0665 S   0  0  0  0  0  0  0  0  0  0  0  0
    3.2362   -0.0222    0.7504 C   0  0  0  0  0  0  0  0  0  0  0  0
    3.1436    0.3158    1.9502 O   0  0  0  0  0  0  0  0  0  0  0  0
    4.2917    0.1203   -0.1630 N   0  0  0  0  0  0  0  0  0  0  0  0
    5.5394    0.7703    0.2932 C   0  0  1  0  0  0  0  0  0  0  0  0
    6.6824   -0.1856    0.2259 C   0  0  0  0  0  0  0  0  0  0  0  0
    7.9444    0.4333    0.6932 C   0  0  0  0  0  0  0  0  0  0  0  0
    8.4045    1.6148   -0.0534 C   0  0  0  0  0  0  0  0  0  0  0  0
    9.0995    1.5866   -1.2350 O   0  0  0  0  0  0  0  0  0  0  0  0
    8.1838    2.7886    0.3554 O   0  0  0  0  0  0  0  0  0  0  0  0
    5.7537    1.9951   -0.4834 C   0  0  0  0  0  0  0  0  0  0  0  0
    5.6284    3.0407   -1.3834 O   0  0  0  0  0  0  0  0  0  0  0  0
    4.7001    1.8171   -1.1561 O   0  0  0  0  0  0  0  0  0  0  0  0
   -2.5456   -3.9468   -1.0060 H   0  0  0  0  0  0  0  0  0  0  0  0
   -3.2400   -2.4322   -1.5943 H   0  0  0  0  0  0  0  0  0  0  0  0
   -1.5967   -3.0263   -2.1896 H   0  0  0  0  0  0  0  0  0  0  0  0
   -2.6155   -3.2667    1.3700 H   0  0  0  0  0  0  0  0  0  0  0  0
   -1.7108   -1.8313    1.8420 H   0  0  0  0  0  0  0  0  0  0  0  0
   -2.8088    0.4354    1.4079 H   0  0  0  0  0  0  0  0  0  0  0  0
   -8.0278    0.0793    0.2397 H   0  0  0  0  0  0  0  0  0  0  0  0
   -9.0353    2.1498   -0.3867 H   0  0  0  0  0  0  0  0  0  0  0  0
   -8.4352    3.6599    0.4531 H   0  0  0  0  0  0  0  0  0  0  0  0
   -9.2395    2.2702    1.3921 H   0  0  0  0  0  0  0  0  0  0  0  0
   -6.9383   -1.9806    0.1285 H   0  0  0  0  0  0  0  0  0  0  0  0
   -4.7632   -3.1359    0.3971 H   0  0  0  0  0  0  0  0  0  0  0  0
    0.2506   -2.1659   -2.2307 H   0  0  0  0  0  0  0  0  0  0  0  0
    2.5625   -1.1074   -1.8439 H   0  0  0  0  0  0  0  0  0  0  0  0
    4.2669   -0.1944   -1.1372 H   0  0  0  0  0  0  0  0  0  0  0  0
    5.3601    1.0394    1.3507 H   0  0  0  0  0  0  0  0  0  0  0  0
    6.7969   -0.6382   -0.7825 H   0  0  0  0  0  0  0  0  0  0  0  0
    6.4401   -1.0218    0.9395 H   0  0  0  0  0  0  0  0  0  0  0  0
    7.9060    0.7147    1.7735 H   0  0  0  0  0  0  0  0  0  0  0  0
    8.7971   -0.3039    0.6451 H   0  0  0  0  0  0  0  0  0  0  0  0
    9.0634    2.3655   -1.9040 H   0  0  0  0  0  0  0  0  0  0  0  0
    5.8462    4.0051   -1.0982 H   0  0  0  0  0  0  0  0  0  0  0  0
  1  2  1  0
  2  3  1  0
  3  4  1  0
  4  5  2  0
  5  6  1  0
  6  7  2  0
  7  8  1  0
  8  9  1  0
  9 10  1  0
  9 11  2  0
 11 12  1  0
 12 13  2  0
  7 14  1  0
 14 15  2  0
  2 16  1  0
 16 17  2  0
 17 18  1  0
 18 19  2  0
 19 20  1  0
 19 21  1  0
 21 22  2  0
 21 23  1  0
 23 24  1  0
 24 25  1  0
 25 26  1  0
 26 27  1  0
 27 28  1  0
 27 29  2  0
 24 30  1  0
 30 31  1  0
 30 32  2  0
 15  4  1  0
 20 16  1  0
 12  6  1  0
  1 33  1  0
  1 34  1  0
  1 35  1  0
  3 36  1  0
  3 37  1  0
  5 38  1  0
  8 39  1  0
 10 40  1  0
 10 41  1  0
 10 42  1  0
 14 43  1  0
 15 44  1  0
 17 45  1  0
 18 46  1  0
 23 47  1  0
 24 48  1  1
 25 49  1  0
 25 50  1  0
 26 51  1  0
 26 52  1  0
 28 53  1  0
 31 54  1  0
M  END
$$$$
