@<TRIPOS>MOLECULE
*****
 54 56 0 0 0
SMALL
GASTEIGER

@<TRIPOS>ATOM
      1 C          -2.2638   -2.9027   -1.3390 C.3     0  UNK0        0.0015
      2 N          -1.6494   -2.2955   -0.1831 N.pl3   0  UNK0       -0.3233
      3 C          -2.3932   -2.2135    1.0562 C.3     0  UNK0        0.0374
      4 C          -3.6442   -1.4328    0.9190 C.ar    0  UNK0       -0.0293
      5 C          -3.7217   -0.0782    1.1286 C.ar    0  UNK0       -0.0427
      6 C          -4.9117    0.6171    0.9922 C.ar    0  UNK0        0.0648
      7 C          -6.0519   -0.0940    0.6312 C.ar    0  UNK0        0.0530
      8 N          -7.1709    0.6383    0.5158 N.ar    0  UNK0       -0.3430
      9 C          -7.2373    1.9657    0.7232 C.ar    0  UNK0        0.1083
     10 C          -8.5893    2.5746    0.5367 C.3     0  UNK0       -0.0063
     11 N          -6.1365    2.6372    1.0691 N.ar    0  UNK0       -0.1958
     12 C          -4.9596    1.9850    1.2103 C.ar    0  UNK0        0.2809
     13 O          -3.9277    2.6089    1.5342 O.2     0  UNK0       -0.2651
     14 C          -6.0383   -1.4583    0.4059 C.ar    0  UNK0       -0.0373
     15 C          -4.8225   -2.0640    0.5631 C.ar    0  UNK0       -0.0551
     16 C          -0.3220   -1.7859   -0.2745 C.ar    0  UNK0        0.0687
     17 C           0.5585   -1.7437   -1.2818 C.ar    0  UNK0       -0.0326
     18 C           1.7822   -1.1902   -1.0979 C.ar    0  UNK0       -0.0407
     19 C           2.0442   -0.6825    0.1859 C.ar    0  UNK0        0.0756
     20 S           0.5141   -1.0278    1.0665 S.2     0  UNK0       -0.0691
     21 C           3.2362   -0.0222    0.7504 C.2     0  UNK0        0.2514
     22 O           3.1436    0.3158    1.9502 O.2     0  UNK0       -0.2696
     23 N           4.2917    0.1203   -0.1630 N.am    1  GLU1       -0.2979
     24 CA          5.5394    0.7703    0.2932 C.3     1  GLU1        0.1210
     25 CB          6.6824   -0.1856    0.2259 C.3     1  GLU1       -0.0140
     26 CG          7.9444    0.4333    0.6932 C.3     1  GLU1        0.0470
     27 CD          8.4045    1.6148   -0.0534 C.2     1  GLU1        0.3048
     28 OE1         9.0995    1.5866   -1.2350 O.3     1  GLU1       -0.4806
     29 OE2         8.1838    2.7886    0.3554 O.2     1  GLU1       -0.2510
     30 C           5.7537    1.9951   -0.4834 C.2     1  GLU1        0.3253
     31 O           5.6284    3.0407   -1.3834 O.3     1  GLU1       -0.4793
     32 OXT         4.7001    1.8171   -1.1561 O.2     1  GLU1       -0.2489
     33 H          -2.5456   -3.9468   -1.0060 H       0  UNK0        0.0428
     34 H          -3.2400   -2.4322   -1.5943 H       0  UNK0        0.0428
     35 H          -1.5967   -3.0263   -2.1896 H       0  UNK0        0.0428
     36 H          -2.6155   -3.2667    1.3700 H       0  UNK0        0.0513
     37 H          -1.7108   -1.8313    1.8420 H       0  UNK0        0.0513
     38 H          -2.8088    0.4354    1.4079 H       0  UNK0        0.0629
     39 H          -8.0278    0.0793    0.2397 H       0  UNK0        0.1670
     40 H          -9.0353    2.1498   -0.3867 H       0  UNK0        0.0307
     41 H          -8.4352    3.6599    0.4531 H       0  UNK0        0.0307
     42 H          -9.2395    2.2702    1.3921 H       0  UNK0        0.0307
     43 H          -6.9383   -1.9806    0.1285 H       0  UNK0        0.0638
     44 H          -4.7632   -3.1359    0.3971 H       0  UNK0        0.0621
     45 H           0.2506   -2.1659   -2.2307 H       0  UNK0        0.0642
     46 H           2.5625   -1.1074   -1.8439 H       0  UNK0        0.0631
     47 H           4.2669   -0.1944   -1.1372 H       1  GLU1        0.1499
     48 HA          5.3601    1.0394    1.3507 H       1  GLU1        0.0614
     49 HB1         6.7969   -0.6382   -0.7825 H       1  GLU1        0.0294
     50 HB2         6.4401   -1.0218    0.9395 H       1  GLU1        0.0294
     51 HG1         7.9060    0.7147    1.7735 H       1  GLU1        0.0378
     52 HG2         8.7971   -0.3039    0.6451 H       1  GLU1        0.0378
     53 HE1         9.0634    2.3655   -1.9040 H       1  GLU1        0.2951
     54 H           5.8462    4.0051   -1.0982 H       1  GLU1        0.2951
@<TRIPOS>BOND
     1     1     2    1
     2     2     3    1
     3     3     4    1
     4     4     5   ar
     5     5     6   ar
     6     6     7   ar
     7     7     8   ar
     8     8     9   ar
     9     9    10    1
    10     9    11   ar
    11    11    12   ar
    12    12    13    2
    13     7    14   ar
    14    14    15   ar
    15     2    16    1
    16    16    17   ar
    17    17    18   ar
    18    18    19   ar
    19    19    20   ar
    20    19    21    1
    21    21    22    2
    22    21    23   am
    23    23    24    1
    24    24    25    1
    25    25    26    1
    26    26    27    1
    27    27    28    1
    28    27    29    2
    29    24    30    1
    30    30    31    1
    31    30    32    2
    32    15     4   ar
    33    20    16   ar
    34    12     6   ar
    35     1    33    1
    36     1    34    1
    37     1    35    1
    38     3    36    1
    39     3    37    1
    40     5    38    1
    41     8    39    1
    42    10    40    1
    43    10    41    1
    44    10    42    1
    45    14    43    1
    46    15    44    1
    47    17    45    1
    48    18    46    1
    49    23    47    1
    50    24    48    1
    51    25    49    1
    52    25    50    1
    53    26    51    1
    54    26    52    1
    55    28    53    1
    56    31    54    1
