
     RDKit          3D

 38 41  0  0  0  0  0  0  0  0999 V2000
    5.1515    1.8001    0.5930 C   0  0  0  0  0  0  0  0  0  0  0  0
    4.0586    0.8360    0.3197 C   0  0  0  0  0  0  0  0  0  0  0  0
    4.4686   -0.4953    0.2085 C   0  0  0  0  0  0  0  0  0  0  0  0
    3.5400   -1.5076   -0.0486 C   0  0  0  0  0  0  0  0  0  0  0  0
    2.2345   -1.1041   -0.1792 C   0  0  0  0  0  0  0  0  0  0  0  0
    1.8147    0.2192   -0.0691 C   0  0  0  0  0  0  0  0  0  0  0  0
    2.7320    1.1959    0.1813 C   0  0  0  0  0  0  0  0  0  0  0  0
    0.4300    0.5493   -0.1832 N   0  0  0  0  0  0  0  0  0  0  0  0
   -0.4359   -0.3697   -0.3807 C   0  0  0  0  0  0  0  0  0  0  0  0
   -1.8679   -0.2936   -0.5351 N   0  0  0  0  0  0  0  0  0  0  0  0
   -2.2753   -1.3640   -1.4643 C   0  0  0  0  0  0  0  0  0  0  0  0
   -0.9812   -2.1792   -1.6631 C   0  0  0  0  0  0  0  0  0  0  0  0
   -0.1721   -1.8584   -0.4574 C   0  0  2  0  0  0  0  0  0  0  0  0
   -0.7940   -2.3931    0.6910 O   0  0  0  0  0  0  0  0  0  0  0  0
    1.2516   -2.1620   -0.4904 C   0  0  0  0  0  0  0  0  0  0  0  0
    1.5616   -3.3430   -0.7913 O   0  0  0  0  0  0  0  0  0  0  0  0
   -2.7618    0.6366    0.0730 C   0  0  0  0  0  0  0  0  0  0  0  0
   -2.2919    1.6202    0.9166 C   0  0  0  0  0  0  0  0  0  0  0  0
   -3.0867    2.5391    1.5298 C   0  0  0  0  0  0  0  0  0  0  0  0
   -4.4406    2.4310    1.2526 C   0  0  0  0  0  0  0  0  0  0  0  0
   -4.9921    1.4616    0.4087 C   0  0  0  0  0  0  0  0  0  0  0  0
   -4.1131    0.5562   -0.1820 C   0  0  0  0  0  0  0  0  0  0  0  0
    4.7336    2.8274    0.7472 H   0  0  0  0  0  0  0  0  0  0  0  0
    5.6986    1.5215    1.4948 H   0  0  0  0  0  0  0  0  0  0  0  0
    5.8378    1.8016   -0.2810 H   0  0  0  0  0  0  0  0  0  0  0  0
    5.5217   -0.7874    0.3181 H   0  0  0  0  0  0  0  0  0  0  0  0
    3.8376   -2.5427   -0.1380 H   0  0  0  0  0  0  0  0  0  0  0  0
    2.4916    2.2409    0.2798 H   0  0  0  0  0  0  0  0  0  0  0  0
   -3.0485   -2.0158   -1.0200 H   0  0  0  0  0  0  0  0  0  0  0  0
   -2.5311   -0.9550   -2.4429 H   0  0  0  0  0  0  0  0  0  0  0  0
   -0.4894   -1.9641   -2.6109 H   0  0  0  0  0  0  0  0  0  0  0  0
   -1.2194   -3.2755   -1.6638 H   0  0  0  0  0  0  0  0  0  0  0  0
   -0.1677   -2.9216    1.2279 H   0  0  0  0  0  0  0  0  0  0  0  0
   -1.2169    1.6875    1.1220 H   0  0  0  0  0  0  0  0  0  0  0  0
   -2.7633    3.3242    2.1958 H   0  0  0  0  0  0  0  0  0  0  0  0
   -5.1842    3.0983    1.6744 H   0  0  0  0  0  0  0  0  0  0  0  0
   -6.0367    1.3973    0.2099 H   0  0  0  0  0  0  0  0  0  0  0  0
   -4.4943   -0.2119   -0.8427 H   0  0  0  0  0  0  0  0  0  0  0  0
  1  2  1  0
  2  3  2  0
  3  4  1  0
  4  5  2  0
  5  6  1  0
  6  7  2  0
  6  8  1  0
  8  9  2  0
  9 10  1  0
 10 11  1  0
 11 12  1  0
 12 13  1  0
 13 14  1  1
 13 15  1  0
 15 16  2  0
 10 17  1  0
 17 18  2  0
 18 19  1  0
 19 20  2  0
 20 21  1  0
 21 22  2  0
  7  2  1  0
 13  9  1  0
 22 17  1  0
 15  5  1  0
  1 23  1  0
  1 24  1  0
  1 25  1  0
  3 26  1  0
  4 27  1  0
  7 28  1  0
 11 29  1  0
 11 30  1  0
 12 31  1  0
 12 32  1  0
 14 33  1  0
 18 34  1  0
 19 35  1  0
 20 36  1  0
 21 37  1  0
 22 38  1  0
M  END
$$$$
