@<TRIPOS>MOLECULE
*****
 38 41 0 0 0
SMALL
GASTEIGER

@<TRIPOS>ATOM
      1 C           5.1515    1.8001    0.5930 C.3     1  UNL1       -0.0396
      2 C           4.0586    0.8360    0.3197 C.ar    1  UNL1       -0.0463
      3 C           4.4686   -0.4953    0.2085 C.ar    1  UNL1       -0.0579
      4 C           3.5400   -1.5076   -0.0486 C.ar    1  UNL1       -0.0467
      5 C           2.2345   -1.1041   -0.1792 C.ar    1  UNL1        0.0716
      6 C           1.8147    0.2192   -0.0691 C.ar    1  UNL1        0.1870
      7 C           2.7320    1.1959    0.1813 C.ar    1  UNL1       -0.0072
      8 N           0.4300    0.5493   -0.1832 N.2     1  UNL1       -0.0419
      9 C          -0.4359   -0.3697   -0.3807 C.2     1  UNL1        0.3340
     10 N          -1.8679   -0.2936   -0.5351 N.pl3   1  UNL1       -0.1875
     11 C          -2.2753   -1.3640   -1.4643 C.3     1  UNL1        0.0893
     12 C          -0.9812   -2.1792   -1.6631 C.3     1  UNL1        0.0315
     13 C          -0.1721   -1.8584   -0.4574 C.3     1  UNL1        0.2347
     14 O          -0.7940   -2.3931    0.6910 O.3     1  UNL1       -0.3702
     15 C           1.2516   -2.1620   -0.4904 C.2     1  UNL1        0.2108
     16 O           1.5616   -3.3430   -0.7913 O.2     1  UNL1       -0.2882
     17 C          -2.7618    0.6366    0.0730 C.ar    1  UNL1        0.1208
     18 C          -2.2919    1.6202    0.9166 C.ar    1  UNL1       -0.0169
     19 C          -3.0867    2.5391    1.5298 C.ar    1  UNL1       -0.0579
     20 C          -4.4406    2.4310    1.2526 C.ar    1  UNL1       -0.0615
     21 C          -4.9921    1.4616    0.4087 C.ar    1  UNL1       -0.0579
     22 C          -4.1131    0.5562   -0.1820 C.ar    1  UNL1       -0.0169
     23 H           4.7336    2.8274    0.7472 H       1  UNL1        0.0278
     24 H           5.6986    1.5215    1.4948 H       1  UNL1        0.0278
     25 H           5.8378    1.8016   -0.2810 H       1  UNL1        0.0278
     26 H           5.5217   -0.7874    0.3181 H       1  UNL1        0.0620
     27 H           3.8376   -2.5427   -0.1380 H       1  UNL1        0.0626
     28 H           2.4916    2.2409    0.2798 H       1  UNL1        0.0664
     29 H          -3.0485   -2.0158   -1.0200 H       1  UNL1        0.0731
     30 H          -2.5311   -0.9550   -2.4429 H       1  UNL1        0.0731
     31 H          -0.4894   -1.9641   -2.6109 H       1  UNL1        0.0340
     32 H          -1.2194   -3.2755   -1.6638 H       1  UNL1        0.0340
     33 H          -0.1677   -2.9216    1.2279 H       1  UNL1        0.2115
     34 H          -1.2169    1.6875    1.1220 H       1  UNL1        0.0658
     35 H          -2.7633    3.3242    2.1958 H       1  UNL1        0.0619
     36 H          -5.1842    3.0983    1.6744 H       1  UNL1        0.0618
     37 H          -6.0367    1.3973    0.2099 H       1  UNL1        0.0619
     38 H          -4.4943   -0.2119   -0.8427 H       1  UNL1        0.0658
@<TRIPOS>BOND
     1     1     2    1
     2     2     3   ar
     3     3     4   ar
     4     4     5   ar
     5     5     6   ar
     6     6     7   ar
     7     6     8    1
     8     8     9    2
     9     9    10    1
    10    10    11    1
    11    11    12    1
    12    12    13    1
    13    13    14    1
    14    13    15    1
    15    15    16    2
    16    10    17    1
    17    17    18   ar
    18    18    19   ar
    19    19    20   ar
    20    20    21   ar
    21    21    22   ar
    22     7     2   ar
    23    13     9    1
    24    22    17   ar
    25    15     5    1
    26     1    23    1
    27     1    24    1
    28     1    25    1
    29     3    26    1
    30     4    27    1
    31     7    28    1
    32    11    29    1
    33    11    30    1
    34    12    31    1
    35    12    32    1
    36    14    33    1
    37    18    34    1
    38    19    35    1
    39    20    36    1
    40    21    37    1
    41    22    38    1
