@<TRIPOS>MOLECULE
*****
 49 52 0 0 0
SMALL
GASTEIGER

@<TRIPOS>ATOM
      1 C          -6.7274   -2.0249    1.8519 C.3     1  UNL1       -0.0010
      2 N          -6.4739   -0.7099    1.2840 N.pl3   1  UNL1       -0.3303
      3 C          -5.1767   -0.4083    0.7898 C.ar    1  UNL1        0.1485
      4 N          -4.1767   -1.2853    0.8235 N.ar    1  UNL1       -0.2124
      5 C          -2.9321   -1.0133    0.3558 C.ar    1  UNL1        0.1428
      6 N          -1.7791   -1.6695    0.2615 N.ar    1  UNL1       -0.3378
      7 C          -0.8054   -0.9340   -0.2998 C.ar    1  UNL1        0.0671
      8 C           0.5795   -1.3067   -0.5735 C.ar    1  UNL1        0.0875
      9 C           1.0234   -2.5632   -0.2489 C.ar    1  UNL1       -0.0342
     10 C           2.3155   -2.9852   -0.4832 C.ar    1  UNL1       -0.0579
     11 C           3.1855   -2.0894   -1.0706 C.ar    1  UNL1       -0.0388
     12 C           2.7450   -0.8357   -1.3946 C.ar    1  UNL1        0.0591
     13 C           3.6523    0.1631   -2.0121 C.3     1  UNL1        0.0540
     14 N           4.2671    1.0509   -1.0778 N.am    1  UNL1       -0.3078
     15 C           5.3892    0.6666   -0.3005 C.2     1  UNL1        0.2391
     16 O           5.8476   -0.4838   -0.4529 O.2     1  UNL1       -0.2733
     17 C           5.9350    1.6750    0.6423 C.3     1  UNL1        0.1233
     18 O           7.0064    1.2971    1.3807 O.3     1  UNL1       -0.3738
     19 C           6.7658    0.2482    2.2279 C.3     1  UNL1        0.0371
     20 N           1.4513   -0.4619   -1.1426 N.ar    1  UNL1       -0.2486
     21 C          -1.3833    0.3063   -0.5928 C.ar    1  UNL1       -0.0236
     22 C          -2.6944    0.2425   -0.1833 C.ar    1  UNL1        0.0450
     23 C          -3.6874    1.1819   -0.2426 C.ar    1  UNL1        0.0826
     24 C          -4.9462    0.8435    0.2540 C.ar    1  UNL1        0.1292
     25 N          -5.7166    1.9290    0.0743 N.ar    1  UNL1       -0.2323
     26 C          -4.9577    2.8795   -0.5046 C.ar    1  UNL1        0.0969
     27 N          -3.7153    2.4286   -0.7012 N.ar    1  UNL1       -0.3326
     28 C          -2.6200    3.1492   -1.2953 C.3     1  UNL1        0.0133
     29 H          -5.7739   -2.3442    2.3528 H       1  UNL1        0.0426
     30 H          -6.8652   -2.7196    0.9905 H       1  UNL1        0.0426
     31 H          -7.5651   -2.0224    2.5514 H       1  UNL1        0.0426
     32 H          -7.2419   -0.0355    1.2562 H       1  UNL1        0.1472
     33 H          -1.6620   -2.6648    0.5985 H       1  UNL1        0.1674
     34 H           0.3244   -3.2701    0.2185 H       1  UNL1        0.0639
     35 H           2.6662   -3.9932   -0.2214 H       1  UNL1        0.0619
     36 H           4.2081   -2.4407   -1.2609 H       1  UNL1        0.0636
     37 H           4.3906   -0.3883   -2.6373 H       1  UNL1        0.0527
     38 H           3.0111    0.7585   -2.7198 H       1  UNL1        0.0527
     39 H           3.8611    2.0214   -0.9726 H       1  UNL1        0.1491
     40 H           5.0779    1.9940    1.3095 H       1  UNL1        0.0656
     41 H           6.2285    2.5498   -0.0152 H       1  UNL1        0.0656
     42 H           6.4546   -0.6497    1.7050 H       1  UNL1        0.0524
     43 H           7.7489    0.0411    2.7466 H       1  UNL1        0.0524
     44 H           5.9902    0.5175    3.0070 H       1  UNL1        0.0524
     45 H          -0.8159    1.0937   -1.0529 H       1  UNL1        0.0646
     46 H          -5.3404    3.8594   -0.7585 H       1  UNL1        0.1029
     47 H          -3.0067    4.1345   -1.6966 H       1  UNL1        0.0456
     48 H          -1.8311    3.4290   -0.5731 H       1  UNL1        0.0456
     49 H          -2.2306    2.6354   -2.1972 H       1  UNL1        0.0456
@<TRIPOS>BOND
     1     1     2    1
     2     2     3    1
     3     3     4   ar
     4     4     5   ar
     5     5     6   ar
     6     6     7   ar
     7     7     8    1
     8     8     9   ar
     9     9    10   ar
    10    10    11   ar
    11    11    12   ar
    12    12    13    1
    13    13    14    1
    14    14    15   am
    15    15    16    2
    16    15    17    1
    17    17    18    1
    18    18    19    1
    19    12    20   ar
    20     7    21   ar
    21    21    22   ar
    22    22    23   ar
    23    23    24   ar
    24    24    25   ar
    25    25    26   ar
    26    26    27   ar
    27    27    28    1
    28    24     3   ar
    29    22     5   ar
    30    27    23   ar
    31    20     8   ar
    32     1    29    1
    33     1    30    1
    34     1    31    1
    35     2    32    1
    36     6    33    1
    37     9    34    1
    38    10    35    1
    39    11    36    1
    40    13    37    1
    41    13    38    1
    42    14    39    1
    43    17    40    1
    44    17    41    1
    45    19    42    1
    46    19    43    1
    47    19    44    1
    48    21    45    1
    49    26    46    1
    50    28    47    1
    51    28    48    1
    52    28    49    1
