@<TRIPOS>MOLECULE
*****
 62 65 0 0 0
SMALL
GASTEIGER

@<TRIPOS>ATOM
      1 C          -0.7939   -1.8552   -2.2912 C.3     1  UNL1        0.0325
      2 N           0.3457   -1.4471   -1.4795 N.ar    1  UNL1       -0.2466
      3 N           1.6329   -1.5008   -1.7847 N.ar    1  UNL1       -0.1544
      4 C           2.3547   -1.0267   -0.7586 C.ar    1  UNL1        0.1548
      5 C           3.8518   -0.8952   -0.6531 C.3     1  UNL1        0.0236
      6 C           4.1217    0.5825   -0.4485 C.3     1  UNL1       -0.0273
      7 C           5.5816    0.8509   -0.2989 C.3     1  UNL1        0.0153
      8 N           6.1186   -0.0420    0.7005 N.am    1  UNL1       -0.3014
      9 C           7.4948   -0.0179    0.9765 C.2     1  UNL1        0.2177
     10 O           7.9930   -0.7933    1.8513 O.2     1  UNL1       -0.2755
     11 C           8.4043    0.9144    0.2532 C.3     1  UNL1        0.0473
     12 C           9.8242    0.7342    0.7406 C.3     1  UNL1        0.0525
     13 O          10.7089    1.5829    0.0946 O.3     1  UNL1       -0.3945
     14 C           5.2669   -0.9597    1.4219 C.3     1  UNL1        0.0153
     15 C           4.3779   -1.7214    0.4832 C.3     1  UNL1       -0.0273
     16 N           1.4600   -0.6792    0.1902 N.ar    1  UNL1       -0.2093
     17 C           0.2119   -0.9340   -0.2425 C.ar    1  UNL1        0.1785
     18 C          -1.0268   -0.6962    0.4933 C.ar    1  UNL1        0.1266
     19 C          -1.0289   -0.7772    1.8838 C.ar    1  UNL1        0.0587
     20 N          -2.1954   -0.5496    2.5145 N.ar    1  UNL1       -0.2361
     21 C          -3.2994   -0.2580    1.8100 C.ar    1  UNL1        0.1472
     22 N          -4.5538   -0.0110    2.4490 N.pl3   1  UNL1       -0.3413
     23 C          -3.2758   -0.1828    0.4352 C.ar    1  UNL1        0.1672
     24 C          -4.5159    0.1424   -0.3166 C.ar    1  UNL1        0.2701
     25 N          -4.6281    0.2461   -1.6516 N.ar    1  UNL1       -0.1055
     26 N          -5.8977    0.5493   -1.9127 N.ar    1  UNL1       -0.1115
     27 C          -6.5759    0.6349   -0.7489 C.ar    1  UNL1        0.2230
     28 C          -8.0272    0.9540   -0.5786 C.3     1  UNL1        0.0401
     29 C          -8.8442   -0.3193   -0.6005 C.3     1  UNL1       -0.0516
     30 C          -8.4248    1.8720   -1.7122 C.3     1  UNL1       -0.0516
     31 C          -8.2681    1.6211    0.7504 C.3     1  UNL1       -0.0516
     32 O          -5.6941    0.3802    0.1855 O.2     1  UNL1       -0.4183
     33 N          -2.1354   -0.4040   -0.2021 N.ar    1  UNL1       -0.2338
     34 H          -0.4712   -2.4575   -3.1471 H       1  UNL1        0.0473
     35 H          -1.4492   -2.4772   -1.6273 H       1  UNL1        0.0473
     36 H          -1.3587   -0.9514   -2.5896 H       1  UNL1        0.0473
     37 H           4.2753   -1.2674   -1.5951 H       1  UNL1        0.0381
     38 H           3.6162    0.8994    0.4853 H       1  UNL1        0.0287
     39 H           3.7287    1.1324   -1.3142 H       1  UNL1        0.0287
     40 H           5.6869    1.9293    0.0127 H       1  UNL1        0.0465
     41 H           6.1226    0.7134   -1.2751 H       1  UNL1        0.0465
     42 H           8.3975    0.7389   -0.8397 H       1  UNL1        0.0381
     43 H           8.0857    1.9611    0.4717 H       1  UNL1        0.0381
     44 H           9.9080    0.8656    1.8361 H       1  UNL1        0.0562
     45 H          10.1154   -0.3053    0.4980 H       1  UNL1        0.0562
     46 H          11.5835    1.1324    0.0202 H       1  UNL1        0.2094
     47 H           5.8757   -1.7020    1.9764 H       1  UNL1        0.0465
     48 H           4.6386   -0.3972    2.1640 H       1  UNL1        0.0465
     49 H           3.5297   -2.1557    1.0806 H       1  UNL1        0.0287
     50 H           4.9657   -2.5908    0.1089 H       1  UNL1        0.0287
     51 H          -0.1441   -1.0106    2.4429 H       1  UNL1        0.0853
     52 H          -5.0120    0.9208    2.3967 H       1  UNL1        0.1438
     53 H          -5.0503   -0.7639    2.9906 H       1  UNL1        0.1438
     54 H          -8.9856   -0.7214   -1.6125 H       1  UNL1        0.0240
     55 H          -9.8244   -0.0776   -0.1086 H       1  UNL1        0.0240
     56 H          -8.3576   -1.0554    0.0715 H       1  UNL1        0.0240
     57 H          -7.6764    2.6772   -1.7646 H       1  UNL1        0.0240
     58 H          -9.4280    2.3229   -1.5215 H       1  UNL1        0.0240
     59 H          -8.4064    1.3073   -2.6491 H       1  UNL1        0.0240
     60 H          -7.7892    1.0181    1.5547 H       1  UNL1        0.0240
     61 H          -9.3506    1.6833    0.9174 H       1  UNL1        0.0240
     62 H          -7.7891    2.6371    0.7978 H       1  UNL1        0.0240
@<TRIPOS>BOND
     1     1     2    1
     2     2     3   ar
     3     3     4   ar
     4     4     5    1
     5     5     6    1
     6     6     7    1
     7     7     8    1
     8     8     9   am
     9     9    10    2
    10     9    11    1
    11    11    12    1
    12    12    13    1
    13     8    14    1
    14    14    15    1
    15     4    16   ar
    16    16    17   ar
    17    17    18    1
    18    18    19   ar
    19    19    20   ar
    20    20    21   ar
    21    21    22    1
    22    21    23   ar
    23    23    24    1
    24    24    25   ar
    25    25    26   ar
    26    26    27   ar
    27    27    28    1
    28    28    29    1
    29    28    30    1
    30    28    31    1
    31    27    32   ar
    32    23    33   ar
    33    17     2   ar
    34    33    18   ar
    35    15     5    1
    36    32    24   ar
    37     1    34    1
    38     1    35    1
    39     1    36    1
    40     5    37    1
    41     6    38    1
    42     6    39    1
    43     7    40    1
    44     7    41    1
    45    11    42    1
    46    11    43    1
    47    12    44    1
    48    12    45    1
    49    13    46    1
    50    14    47    1
    51    14    48    1
    52    15    49    1
    53    15    50    1
    54    19    51    1
    55    22    52    1
    56    22    53    1
    57    29    54    1
    58    29    55    1
    59    29    56    1
    60    30    57    1
    61    30    58    1
    62    30    59    1
    63    31    60    1
    64    31    61    1
    65    31    62    1
