
     RDKit          3D

 62 65  0  0  0  0  0  0  0  0999 V2000
    1.0151    0.4127   -0.6076 C   0  0  2  0  0  0  0  0  0  0  0  0
    1.7820    0.5646   -1.8833 C   0  0  0  0  0  0  0  0  0  0  0  0
    3.1714    0.0668   -1.4780 C   0  0  0  0  0  0  0  0  0  0  0  0
    2.9853   -0.6347   -0.1491 C   0  0  2  0  0  0  0  0  0  0  0  0
    3.1063    0.2765    0.9370 O   0  0  0  0  0  0  0  0  0  0  0  0
    4.2692    0.9878    1.1422 C   0  0  0  0  0  0  0  0  0  0  0  0
    4.3580    1.9252    2.2809 C   0  0  0  0  0  0  0  0  0  0  0  0
    5.3126    0.9250    0.4349 O   0  0  0  0  0  0  0  0  0  0  0  0
    3.8377   -1.8080    0.0439 C   0  0  0  0  0  0  0  0  0  0  0  0
    4.0890   -3.0071   -0.7537 C   0  0  0  0  0  0  0  0  0  0  0  0
    4.3626   -1.5657    1.1284 O   0  0  0  0  0  0  0  0  0  0  0  0
    1.5322   -0.9877   -0.2322 C   0  0  2  0  0  0  0  0  0  0  0  0
    1.2098   -1.9114   -1.3584 C   0  0  0  0  0  0  0  0  0  0  0  0
    0.8801   -1.3924    1.0254 C   0  0  0  0  0  0  0  0  0  0  0  0
   -0.5890   -1.5908    0.7061 C   0  0  0  0  0  0  0  0  0  0  0  0
   -1.1784   -0.2621    0.3726 C   0  0  1  0  0  0  0  0  0  0  0  0
   -0.4639    0.4692   -0.7314 C   0  0  1  0  0  0  0  0  0  0  0  0
   -0.8610    1.9366   -0.5231 C   0  0  0  0  0  0  0  0  0  0  0  0
   -2.3564    2.1326   -0.5634 C   0  0  2  0  0  0  0  0  0  0  0  0
   -2.6126    3.5297   -0.0046 C   0  0  0  0  0  0  0  0  0  0  0  0
   -3.1108    1.1251    0.1890 C   0  0  0  0  0  0  0  0  0  0  0  0
   -4.1485    1.5066    0.9414 C   0  0  0  0  0  0  0  0  0  0  0  0
   -4.8908    0.4837    1.6869 C   0  0  0  0  0  0  0  0  0  0  0  0
   -5.4500    0.8440    2.7540 O   0  0  0  0  0  0  0  0  0  0  0  0
   -4.8697   -0.8755    1.0448 C   0  0  0  0  0  0  0  0  0  0  0  0
   -3.4035   -1.2444    0.9303 C   0  0  0  0  0  0  0  0  0  0  0  0
   -2.6358   -0.2960    0.0438 C   0  0  2  0  0  0  0  0  0  0  0  0
   -2.9193   -0.6921   -1.3873 C   0  0  0  0  0  0  0  0  0  0  0  0
    1.4270    1.1791    0.0895 H   0  0  0  0  0  0  0  0  0  0  0  0
    1.8274    1.6096   -2.2458 H   0  0  0  0  0  0  0  0  0  0  0  0
    1.4033   -0.0459   -2.7086 H   0  0  0  0  0  0  0  0  0  0  0  0
    3.8125    0.9728   -1.3576 H   0  0  0  0  0  0  0  0  0  0  0  0
    3.6111   -0.6099   -2.2515 H   0  0  0  0  0  0  0  0  0  0  0  0
    4.4901    2.9540    1.8522 H   0  0  0  0  0  0  0  0  0  0  0  0
    5.2295    1.7507    2.9278 H   0  0  0  0  0  0  0  0  0  0  0  0
    3.4041    1.9663    2.8652 H   0  0  0  0  0  0  0  0  0  0  0  0
    4.9669   -3.5439   -0.2862 H   0  0  0  0  0  0  0  0  0  0  0  0
    4.3500   -2.8174   -1.8140 H   0  0  0  0  0  0  0  0  0  0  0  0
    3.2286   -3.6981   -0.6447 H   0  0  0  0  0  0  0  0  0  0  0  0
    0.3144   -1.5810   -1.9253 H   0  0  0  0  0  0  0  0  0  0  0  0
    2.0883   -2.0566   -2.0168 H   0  0  0  0  0  0  0  0  0  0  0  0
    0.9787   -2.9278   -0.9285 H   0  0  0  0  0  0  0  0  0  0  0  0
    0.9236   -0.6180    1.8147 H   0  0  0  0  0  0  0  0  0  0  0  0
    1.3141   -2.3252    1.4478 H   0  0  0  0  0  0  0  0  0  0  0  0
   -0.7754   -2.3541   -0.0610 H   0  0  0  0  0  0  0  0  0  0  0  0
   -1.0630   -1.9168    1.6563 H   0  0  0  0  0  0  0  0  0  0  0  0
   -1.0827    0.3652    1.3033 H   0  0  0  0  0  0  0  0  0  0  0  0
   -0.8507    0.2171   -1.7369 H   0  0  0  0  0  0  0  0  0  0  0  0
   -0.5594    2.1520    0.5430 H   0  0  0  0  0  0  0  0  0  0  0  0
   -0.3880    2.5979   -1.2459 H   0  0  0  0  0  0  0  0  0  0  0  0
   -2.6290    2.1559   -1.6464 H   0  0  0  0  0  0  0  0  0  0  0  0
   -2.5565    3.4453    1.0987 H   0  0  0  0  0  0  0  0  0  0  0  0
   -1.7567    4.1746   -0.3097 H   0  0  0  0  0  0  0  0  0  0  0  0
   -3.5810    3.9466   -0.2923 H   0  0  0  0  0  0  0  0  0  0  0  0
   -4.4000    2.5630    0.9698 H   0  0  0  0  0  0  0  0  0  0  0  0
   -5.3522   -1.5954    1.7049 H   0  0  0  0  0  0  0  0  0  0  0  0
   -5.3458   -0.8594    0.0522 H   0  0  0  0  0  0  0  0  0  0  0  0
   -2.9867   -1.2851    1.9659 H   0  0  0  0  0  0  0  0  0  0  0  0
   -3.3324   -2.2548    0.4771 H   0  0  0  0  0  0  0  0  0  0  0  0
   -3.0266    0.1733   -2.0703 H   0  0  0  0  0  0  0  0  0  0  0  0
   -3.9188   -1.2146   -1.4457 H   0  0  0  0  0  0  0  0  0  0  0  0
   -2.1863   -1.4376   -1.7707 H   0  0  0  0  0  0  0  0  0  0  0  0
  1  2  1  0
  2  3  1  0
  3  4  1  0
  4  5  1  1
  5  6  1  0
  6  7  1  0
  6  8  2  0
  4  9  1  0
  9 10  1  0
  9 11  2  0
  4 12  1  0
 12 13  1  6
 12 14  1  0
 14 15  1  0
 15 16  1  0
 16 17  1  0
 17 18  1  0
 18 19  1  0
 19 20  1  0
 19 21  1  0
 21 22  2  0
 22 23  1  0
 23 24  2  0
 23 25  1  0
 25 26  1  0
 26 27  1  0
 27 28  1  6
 12  1  1  0
 27 16  1  0
 17  1  1  0
 27 21  1  0
  1 29  1  1
  2 30  1  0
  2 31  1  0
  3 32  1  0
  3 33  1  0
  7 34  1  0
  7 35  1  0
  7 36  1  0
 10 37  1  0
 10 38  1  0
 10 39  1  0
 13 40  1  0
 13 41  1  0
 13 42  1  0
 14 43  1  0
 14 44  1  0
 15 45  1  0
 15 46  1  0
 16 47  1  1
 17 48  1  6
 18 49  1  0
 18 50  1  0
 19 51  1  6
 20 52  1  0
 20 53  1  0
 20 54  1  0
 22 55  1  0
 25 56  1  0
 25 57  1  0
 26 58  1  0
 26 59  1  0
 28 60  1  0
 28 61  1  0
 28 62  1  0
M  END
$$$$
