@<TRIPOS>MOLECULE
*****
 46 49 0 0 0
SMALL
GASTEIGER

@<TRIPOS>ATOM
      1 C           1.1864   -2.8282    0.9929 C.3     1  UNL1        0.0168
      2 N           1.4104   -1.6444    0.1913 N.ar    1  UNL1       -0.2928
      3 C           2.6599   -1.2422   -0.1359 C.ar    1  UNL1        0.2951
      4 O           3.6430   -1.9204    0.2690 O.2     1  UNL1       -0.2636
      5 C           2.8853   -0.1259   -0.8919 C.ar    1  UNL1        0.1934
      6 O           4.1430    0.2856   -1.2268 O.3     1  UNL1       -0.4477
      7 C           5.1570    0.6750   -0.4016 C.ar    1  UNL1        0.1639
      8 C           4.9886    0.7234    0.9605 C.ar    1  UNL1       -0.0137
      9 C           6.0703    1.1298    1.7427 C.ar    1  UNL1       -0.0228
     10 C           7.2637    1.4686    1.1464 C.ar    1  UNL1        0.1264
     11 F           8.3425    1.8708    1.8852 F       1  UNL1       -0.2054
     12 C           7.4274    1.4180   -0.2289 C.ar    1  UNL1        0.0125
     13 C           6.3639    1.0175   -1.0095 C.ar    1  UNL1        0.1681
     14 F           6.5360    0.9723   -2.3484 F       1  UNL1       -0.2015
     15 C           1.7717    0.6009   -1.3256 C.ar    1  UNL1       -0.0018
     16 C           0.5057    0.2146   -1.0084 C.ar    1  UNL1        0.0394
     17 C          -0.6244    0.8851   -1.4036 C.ar    1  UNL1        0.0419
     18 N          -1.8755    0.5132   -1.0966 N.ar    1  UNL1       -0.2222
     19 C          -2.0137   -0.6120   -0.3383 C.ar    1  UNL1        0.2173
     20 N          -3.3017   -1.0757    0.0317 N.pl3   1  UNL1       -0.3104
     21 C          -4.4542   -0.3242   -0.4165 C.3     1  UNL1        0.0275
     22 C          -4.4168    1.0714    0.0949 C.3     1  UNL1       -0.0109
     23 C          -5.7094    1.6764    0.4657 C.3     1  UNL1        0.0493
     24 O          -6.7675    0.8317    0.6384 O.3     1  UNL1       -0.3796
     25 C          -6.3483   -0.4146    1.0992 C.3     1  UNL1        0.0493
     26 C          -5.6828   -1.0914   -0.0952 C.3     1  UNL1       -0.0109
     27 N          -0.9141   -1.2779    0.0552 N.ar    1  UNL1       -0.1964
     28 C           0.3466   -0.9212   -0.2420 C.ar    1  UNL1        0.1484
     29 H           2.0720   -3.1094    1.5748 H       1  UNL1        0.0457
     30 H           0.8830   -3.6394    0.2865 H       1  UNL1        0.0457
     31 H           0.3148   -2.5947    1.6551 H       1  UNL1        0.0457
     32 H           4.0574    0.4693    1.4665 H       1  UNL1        0.0656
     33 H           5.9717    1.1787    2.8167 H       1  UNL1        0.0647
     34 H           8.3730    1.6872   -0.6932 H       1  UNL1        0.0676
     35 H           1.8882    1.4987   -1.9309 H       1  UNL1        0.0664
     36 H          -0.4562    1.7861   -2.0135 H       1  UNL1        0.0838
     37 H          -3.3699   -1.9325    0.6074 H       1  UNL1        0.1492
     38 H          -4.3619   -0.2860   -1.5426 H       1  UNL1        0.0500
     39 H          -3.7464    1.0881    1.0012 H       1  UNL1        0.0305
     40 H          -3.8770    1.7299   -0.6459 H       1  UNL1        0.0305
     41 H          -6.0022    2.4157   -0.3353 H       1  UNL1        0.0560
     42 H          -5.6399    2.3138    1.3962 H       1  UNL1        0.0560
     43 H          -5.6405   -0.3107    1.9547 H       1  UNL1        0.0560
     44 H          -7.2171   -1.0250    1.3881 H       1  UNL1        0.0560
     45 H          -6.4041   -0.9966   -0.9308 H       1  UNL1        0.0305
     46 H          -5.4378   -2.1495    0.1182 H       1  UNL1        0.0305
@<TRIPOS>BOND
     1     1     2    1
     2     2     3   ar
     3     3     4    2
     4     3     5   ar
     5     5     6    1
     6     6     7    1
     7     7     8   ar
     8     8     9   ar
     9     9    10   ar
    10    10    11    1
    11    10    12   ar
    12    12    13   ar
    13    13    14    1
    14     5    15   ar
    15    15    16   ar
    16    16    17   ar
    17    17    18   ar
    18    18    19   ar
    19    19    20    1
    20    20    21    1
    21    21    22    1
    22    22    23    1
    23    23    24    1
    24    24    25    1
    25    25    26    1
    26    19    27   ar
    27    27    28   ar
    28    28     2   ar
    29    13     7   ar
    30    28    16   ar
    31    26    21    1
    32     1    29    1
    33     1    30    1
    34     1    31    1
    35     8    32    1
    36     9    33    1
    37    12    34    1
    38    15    35    1
    39    17    36    1
    40    20    37    1
    41    21    38    1
    42    22    39    1
    43    22    40    1
    44    23    41    1
    45    23    42    1
    46    25    43    1
    47    25    44    1
    48    26    45    1
    49    26    46    1
