
     RDKit          3D

 46 49  0  0  0  0  0  0  0  0999 V2000
    1.1864   -2.8282    0.9929 C   0  0  0  0  0  0  0  0  0  0  0  0
    1.4104   -1.6444    0.1913 N   0  0  0  0  0  0  0  0  0  0  0  0
    2.6599   -1.2422   -0.1359 C   0  0  0  0  0  0  0  0  0  0  0  0
    3.6430   -1.9204    0.2690 O   0  0  0  0  0  0  0  0  0  0  0  0
    2.8853   -0.1259   -0.8919 C   0  0  0  0  0  0  0  0  0  0  0  0
    4.1430    0.2856   -1.2268 O   0  0  0  0  0  0  0  0  0  0  0  0
    5.1570    0.6750   -0.4016 C   0  0  0  0  0  0  0  0  0  0  0  0
    4.9886    0.7234    0.9605 C   0  0  0  0  0  0  0  0  0  0  0  0
    6.0703    1.1298    1.7427 C   0  0  0  0  0  0  0  0  0  0  0  0
    7.2637    1.4686    1.1464 C   0  0  0  0  0  0  0  0  0  0  0  0
    8.3425    1.8708    1.8852 F   0  0  0  0  0  0  0  0  0  0  0  0
    7.4274    1.4180   -0.2289 C   0  0  0  0  0  0  0  0  0  0  0  0
    6.3639    1.0175   -1.0095 C   0  0  0  0  0  0  0  0  0  0  0  0
    6.5360    0.9723   -2.3484 F   0  0  0  0  0  0  0  0  0  0  0  0
    1.7717    0.6009   -1.3256 C   0  0  0  0  0  0  0  0  0  0  0  0
    0.5057    0.2146   -1.0084 C   0  0  0  0  0  0  0  0  0  0  0  0
   -0.6244    0.8851   -1.4036 C   0  0  0  0  0  0  0  0  0  0  0  0
   -1.8755    0.5132   -1.0966 N   0  0  0  0  0  0  0  0  0  0  0  0
   -2.0137   -0.6120   -0.3383 C   0  0  0  0  0  0  0  0  0  0  0  0
   -3.3017   -1.0757    0.0317 N   0  0  0  0  0  0  0  0  0  0  0  0
   -4.4542   -0.3242   -0.4165 C   0  0  0  0  0  0  0  0  0  0  0  0
   -4.4168    1.0714    0.0949 C   0  0  0  0  0  0  0  0  0  0  0  0
   -5.7094    1.6764    0.4657 C   0  0  0  0  0  0  0  0  0  0  0  0
   -6.7675    0.8317    0.6384 O   0  0  0  0  0  0  0  0  0  0  0  0
   -6.3483   -0.4146    1.0992 C   0  0  0  0  0  0  0  0  0  0  0  0
   -5.6828   -1.0914   -0.0952 C   0  0  0  0  0  0  0  0  0  0  0  0
   -0.9141   -1.2779    0.0552 N   0  0  0  0  0  0  0  0  0  0  0  0
    0.3466   -0.9212   -0.2420 C   0  0  0  0  0  0  0  0  0  0  0  0
    2.0720   -3.1094    1.5748 H   0  0  0  0  0  0  0  0  0  0  0  0
    0.8830   -3.6394    0.2865 H   0  0  0  0  0  0  0  0  0  0  0  0
    0.3148   -2.5947    1.6551 H   0  0  0  0  0  0  0  0  0  0  0  0
    4.0574    0.4693    1.4665 H   0  0  0  0  0  0  0  0  0  0  0  0
    5.9717    1.1787    2.8167 H   0  0  0  0  0  0  0  0  0  0  0  0
    8.3730    1.6872   -0.6932 H   0  0  0  0  0  0  0  0  0  0  0  0
    1.8882    1.4987   -1.9309 H   0  0  0  0  0  0  0  0  0  0  0  0
   -0.4562    1.7861   -2.0135 H   0  0  0  0  0  0  0  0  0  0  0  0
   -3.3699   -1.9325    0.6074 H   0  0  0  0  0  0  0  0  0  0  0  0
   -4.3619   -0.2860   -1.5426 H   0  0  0  0  0  0  0  0  0  0  0  0
   -3.7464    1.0881    1.0012 H   0  0  0  0  0  0  0  0  0  0  0  0
   -3.8770    1.7299   -0.6459 H   0  0  0  0  0  0  0  0  0  0  0  0
   -6.0022    2.4157   -0.3353 H   0  0  0  0  0  0  0  0  0  0  0  0
   -5.6399    2.3138    1.3962 H   0  0  0  0  0  0  0  0  0  0  0  0
   -5.6405   -0.3107    1.9547 H   0  0  0  0  0  0  0  0  0  0  0  0
   -7.2171   -1.0250    1.3881 H   0  0  0  0  0  0  0  0  0  0  0  0
   -6.4041   -0.9966   -0.9308 H   0  0  0  0  0  0  0  0  0  0  0  0
   -5.4378   -2.1495    0.1182 H   0  0  0  0  0  0  0  0  0  0  0  0
  1  2  1  0
  2  3  1  0
  3  4  2  0
  3  5  1  0
  5  6  1  0
  6  7  1  0
  7  8  2  0
  8  9  1  0
  9 10  2  0
 10 11  1  0
 10 12  1  0
 12 13  2  0
 13 14  1  0
  5 15  2  0
 15 16  1  0
 16 17  2  0
 17 18  1  0
 18 19  2  0
 19 20  1  0
 20 21  1  0
 21 22  1  0
 22 23  1  0
 23 24  1  0
 24 25  1  0
 25 26  1  0
 19 27  1  0
 27 28  2  0
 28  2  1  0
 13  7  1  0
 28 16  1  0
 26 21  1  0
  1 29  1  0
  1 30  1  0
  1 31  1  0
  8 32  1  0
  9 33  1  0
 12 34  1  0
 15 35  1  0
 17 36  1  0
 20 37  1  0
 21 38  1  0
 22 39  1  0
 22 40  1  0
 23 41  1  0
 23 42  1  0
 25 43  1  0
 25 44  1  0
 26 45  1  0
 26 46  1  0
M  END
$$$$
