@<TRIPOS>MOLECULE
*****
 49 51 0 0 0
SMALL
GASTEIGER

@<TRIPOS>ATOM
      1 C          -4.0989    6.1590    0.0728 C.3     1  UNL1        0.0788
      2 O          -3.7599    5.2694   -0.9668 O.3     1  UNL1       -0.4951
      3 C          -3.7064    3.8877   -0.8299 C.ar    1  UNL1        0.1201
      4 C          -3.9855    3.2626    0.3537 C.ar    1  UNL1       -0.0196
      5 C          -3.9416    1.8706    0.5272 C.ar    1  UNL1       -0.0519
      6 C          -3.5978    1.1091   -0.5572 C.ar    1  UNL1       -0.0102
      7 C          -3.5367   -0.3984   -0.3736 C.3     1  UNL1        0.1148
      8 O          -2.3753   -0.8627   -0.0254 O.3     1  UNL1       -0.4837
      9 C          -1.2261   -1.2721    0.3962 C.ar    1  UNL1        0.1624
     10 C          -0.6517   -0.8380    1.6139 C.ar    1  UNL1       -0.0160
     11 C           0.5702   -1.2932    2.0252 C.ar    1  UNL1       -0.0546
     12 C           1.2401   -2.1895    1.2277 C.ar    1  UNL1       -0.0392
     13 C           2.5815   -2.7007    1.6286 C.3     1  UNL1        0.0024
     14 C           3.6842   -1.9835    0.9483 C.ar    1  UNL1        0.0146
     15 C           4.3464   -2.5940   -0.1261 C.ar    1  UNL1        0.0379
     16 N           5.3467   -1.9824   -0.7763 N.ar    1  UNL1       -0.2227
     17 C           5.7594   -0.7614   -0.4298 C.ar    1  UNL1        0.2142
     18 N           6.8188   -0.1071   -1.1172 N.pl3   1  UNL1       -0.3274
     19 N           5.1369   -0.1569    0.5999 N.ar    1  UNL1       -0.1999
     20 C           4.1373   -0.7309    1.2738 C.ar    1  UNL1        0.1247
     21 N           3.5332   -0.0201    2.3557 N.pl3   1  UNL1       -0.3428
     22 C           0.7133   -2.6418    0.0266 C.ar    1  UNL1       -0.0128
     23 C          -0.5027   -2.1960   -0.3937 C.ar    1  UNL1        0.1618
     24 O          -1.0614   -2.6210   -1.5814 O.3     1  UNL1       -0.4914
     25 C          -0.3692   -3.5290   -2.3999 C.3     1  UNL1        0.0790
     26 C          -3.3143    1.7145   -1.7517 C.ar    1  UNL1       -0.0519
     27 C          -3.3586    3.0830   -1.9204 C.ar    1  UNL1       -0.0196
     28 H          -5.1963    6.3151    0.1137 H       1  UNL1        0.0660
     29 H          -3.6821    5.7597    1.0196 H       1  UNL1        0.0660
     30 H          -3.5483    7.1046   -0.1136 H       1  UNL1        0.0660
     31 H          -4.2605    3.8306    1.2350 H       1  UNL1        0.0654
     32 H          -4.1724    1.4216    1.4826 H       1  UNL1        0.0622
     33 H          -4.3509   -0.6828    0.3522 H       1  UNL1        0.0748
     34 H          -3.9794   -0.7566   -1.3647 H       1  UNL1        0.0748
     35 H          -1.2102   -0.1325    2.2104 H       1  UNL1        0.0655
     36 H           1.0177   -0.9602    2.9808 H       1  UNL1        0.0622
     37 H           2.7110   -2.7166    2.7403 H       1  UNL1        0.0363
     38 H           2.6365   -3.7813    1.3251 H       1  UNL1        0.0363
     39 H           4.0039   -3.5937   -0.4065 H       1  UNL1        0.0834
     40 H           7.7783   -0.0117   -0.7059 H       1  UNL1        0.1452
     41 H           6.6537    0.3005   -2.0691 H       1  UNL1        0.1452
     42 H           3.4237   -0.5103    3.2462 H       1  UNL1        0.1437
     43 H           3.2484    0.9512    2.1556 H       1  UNL1        0.1437
     44 H           1.3038   -3.3612   -0.5643 H       1  UNL1        0.0658
     45 H          -1.0432   -3.9950   -3.1710 H       1  UNL1        0.0660
     46 H           0.3877   -2.9537   -2.9846 H       1  UNL1        0.0660
     47 H           0.0831   -4.3658   -1.8437 H       1  UNL1        0.0660
     48 H          -3.0458    1.0860   -2.5914 H       1  UNL1        0.0622
     49 H          -3.1404    3.5749   -2.8468 H       1  UNL1        0.0654
@<TRIPOS>BOND
     1     1     2    1
     2     2     3    1
     3     3     4   ar
     4     4     5   ar
     5     5     6   ar
     6     6     7    1
     7     7     8    1
     8     8     9    1
     9     9    10   ar
    10    10    11   ar
    11    11    12   ar
    12    12    13    1
    13    13    14    1
    14    14    15   ar
    15    15    16   ar
    16    16    17   ar
    17    17    18    1
    18    17    19   ar
    19    19    20   ar
    20    20    21    1
    21    12    22   ar
    22    22    23   ar
    23    23    24    1
    24    24    25    1
    25     6    26   ar
    26    26    27   ar
    27    27     3   ar
    28    23     9   ar
    29    20    14   ar
    30     1    28    1
    31     1    29    1
    32     1    30    1
    33     4    31    1
    34     5    32    1
    35     7    33    1
    36     7    34    1
    37    10    35    1
    38    11    36    1
    39    13    37    1
    40    13    38    1
    41    15    39    1
    42    18    40    1
    43    18    41    1
    44    21    42    1
    45    21    43    1
    46    22    44    1
    47    25    45    1
    48    25    46    1
    49    25    47    1
    50    26    48    1
    51    27    49    1
