
     RDKit          3D

 49 51  0  0  0  0  0  0  0  0999 V2000
   -4.0989    6.1590    0.0728 C   0  0  0  0  0  0  0  0  0  0  0  0
   -3.7599    5.2694   -0.9668 O   0  0  0  0  0  0  0  0  0  0  0  0
   -3.7064    3.8877   -0.8299 C   0  0  0  0  0  0  0  0  0  0  0  0
   -3.9855    3.2626    0.3537 C   0  0  0  0  0  0  0  0  0  0  0  0
   -3.9416    1.8706    0.5272 C   0  0  0  0  0  0  0  0  0  0  0  0
   -3.5978    1.1091   -0.5572 C   0  0  0  0  0  0  0  0  0  0  0  0
   -3.5367   -0.3984   -0.3736 C   0  0  0  0  0  0  0  0  0  0  0  0
   -2.3753   -0.8627   -0.0254 O   0  0  0  0  0  0  0  0  0  0  0  0
   -1.2261   -1.2721    0.3962 C   0  0  0  0  0  0  0  0  0  0  0  0
   -0.6517   -0.8380    1.6139 C   0  0  0  0  0  0  0  0  0  0  0  0
    0.5702   -1.2932    2.0252 C   0  0  0  0  0  0  0  0  0  0  0  0
    1.2401   -2.1895    1.2277 C   0  0  0  0  0  0  0  0  0  0  0  0
    2.5815   -2.7007    1.6286 C   0  0  0  0  0  0  0  0  0  0  0  0
    3.6842   -1.9835    0.9483 C   0  0  0  0  0  0  0  0  0  0  0  0
    4.3464   -2.5940   -0.1261 C   0  0  0  0  0  0  0  0  0  0  0  0
    5.3467   -1.9824   -0.7763 N   0  0  0  0  0  0  0  0  0  0  0  0
    5.7594   -0.7614   -0.4298 C   0  0  0  0  0  0  0  0  0  0  0  0
    6.8188   -0.1071   -1.1172 N   0  0  0  0  0  0  0  0  0  0  0  0
    5.1369   -0.1569    0.5999 N   0  0  0  0  0  0  0  0  0  0  0  0
    4.1373   -0.7309    1.2738 C   0  0  0  0  0  0  0  0  0  0  0  0
    3.5332   -0.0201    2.3557 N   0  0  0  0  0  0  0  0  0  0  0  0
    0.7133   -2.6418    0.0266 C   0  0  0  0  0  0  0  0  0  0  0  0
   -0.5027   -2.1960   -0.3937 C   0  0  0  0  0  0  0  0  0  0  0  0
   -1.0614   -2.6210   -1.5814 O   0  0  0  0  0  0  0  0  0  0  0  0
   -0.3692   -3.5290   -2.3999 C   0  0  0  0  0  0  0  0  0  0  0  0
   -3.3143    1.7145   -1.7517 C   0  0  0  0  0  0  0  0  0  0  0  0
   -3.3586    3.0830   -1.9204 C   0  0  0  0  0  0  0  0  0  0  0  0
   -5.1963    6.3151    0.1137 H   0  0  0  0  0  0  0  0  0  0  0  0
   -3.6821    5.7597    1.0196 H   0  0  0  0  0  0  0  0  0  0  0  0
   -3.5483    7.1046   -0.1136 H   0  0  0  0  0  0  0  0  0  0  0  0
   -4.2605    3.8306    1.2350 H   0  0  0  0  0  0  0  0  0  0  0  0
   -4.1724    1.4216    1.4826 H   0  0  0  0  0  0  0  0  0  0  0  0
   -4.3509   -0.6828    0.3522 H   0  0  0  0  0  0  0  0  0  0  0  0
   -3.9794   -0.7566   -1.3647 H   0  0  0  0  0  0  0  0  0  0  0  0
   -1.2102   -0.1325    2.2104 H   0  0  0  0  0  0  0  0  0  0  0  0
    1.0177   -0.9602    2.9808 H   0  0  0  0  0  0  0  0  0  0  0  0
    2.7110   -2.7166    2.7403 H   0  0  0  0  0  0  0  0  0  0  0  0
    2.6365   -3.7813    1.3251 H   0  0  0  0  0  0  0  0  0  0  0  0
    4.0039   -3.5937   -0.4065 H   0  0  0  0  0  0  0  0  0  0  0  0
    7.7783   -0.0117   -0.7059 H   0  0  0  0  0  0  0  0  0  0  0  0
    6.6537    0.3005   -2.0691 H   0  0  0  0  0  0  0  0  0  0  0  0
    3.4237   -0.5103    3.2462 H   0  0  0  0  0  0  0  0  0  0  0  0
    3.2484    0.9512    2.1556 H   0  0  0  0  0  0  0  0  0  0  0  0
    1.3038   -3.3612   -0.5643 H   0  0  0  0  0  0  0  0  0  0  0  0
   -1.0432   -3.9950   -3.1710 H   0  0  0  0  0  0  0  0  0  0  0  0
    0.3877   -2.9537   -2.9846 H   0  0  0  0  0  0  0  0  0  0  0  0
    0.0831   -4.3658   -1.8437 H   0  0  0  0  0  0  0  0  0  0  0  0
   -3.0458    1.0860   -2.5914 H   0  0  0  0  0  0  0  0  0  0  0  0
   -3.1404    3.5749   -2.8468 H   0  0  0  0  0  0  0  0  0  0  0  0
  1  2  1  0
  2  3  1  0
  3  4  2  0
  4  5  1  0
  5  6  2  0
  6  7  1  0
  7  8  1  0
  8  9  1  0
  9 10  2  0
 10 11  1  0
 11 12  2  0
 12 13  1  0
 13 14  1  0
 14 15  2  0
 15 16  1  0
 16 17  2  0
 17 18  1  0
 17 19  1  0
 19 20  2  0
 20 21  1  0
 12 22  1  0
 22 23  2  0
 23 24  1  0
 24 25  1  0
  6 26  1  0
 26 27  2  0
 27  3  1  0
 23  9  1  0
 20 14  1  0
  1 28  1  0
  1 29  1  0
  1 30  1  0
  4 31  1  0
  5 32  1  0
  7 33  1  0
  7 34  1  0
 10 35  1  0
 11 36  1  0
 13 37  1  0
 13 38  1  0
 15 39  1  0
 18 40  1  0
 18 41  1  0
 21 42  1  0
 21 43  1  0
 22 44  1  0
 25 45  1  0
 25 46  1  0
 25 47  1  0
 26 48  1  0
 27 49  1  0
M  END
$$$$
