@<TRIPOS>MOLECULE
*****
 104 110 0 0 0
SMALL
GASTEIGER

@<TRIPOS>ATOM
      1 C           7.5542    2.1624   -4.7161 C.3     1  UNL1        0.0788
      2 O           6.2338    1.9058   -4.2851 O.3     1  UNL1       -0.4950
      3 C           6.0445    1.3259   -3.0410 C.ar    1  UNL1        0.1226
      4 C           4.7645    1.0880   -2.6478 C.ar    1  UNL1        0.0013
      5 C           4.5320    0.5042   -1.4005 C.ar    1  UNL1        0.0378
      6 N           3.1816    0.2925   -1.0335 N.pl3   1  UNL1       -0.2834
      7 C           2.7119   -0.5669   -0.0141 C.ar    1  UNL1        0.2226
      8 N           3.5489   -1.3285    0.6803 N.ar    1  UNL1       -0.2225
      9 C           3.1269   -2.1704    1.6593 C.ar    1  UNL1        0.0362
     10 C           1.7769   -2.2107    1.9152 C.ar    1  UNL1        0.0186
     11 C           0.8673   -1.4203    1.2015 C.ar    1  UNL1        0.2249
     12 O          -0.4650   -1.5280    1.5291 O.3     1  UNL1       -0.4373
     13 C          -1.5267   -0.8827    0.9707 C.ar    1  UNL1        0.1381
     14 C          -2.3170    0.0020    1.7160 C.ar    1  UNL1       -0.0169
     15 C          -3.3936    0.6652    1.1716 C.ar    1  UNL1       -0.0363
     16 C          -3.7264    0.4690   -0.1522 C.ar    1  UNL1        0.0427
     17 N          -4.8391    1.1448   -0.7163 N.am    1  UNL1       -0.2686
     18 C          -6.1127    0.4981   -0.7081 C.2     1  UNL1        0.3092
     19 O          -6.2385   -0.6591   -0.2162 O.2     1  UNL1       -0.2521
     20 N          -7.2861    1.1204   -1.2472 N.am    1  UNL1       -0.2538
     21 C          -8.5649    0.4674   -1.2570 C.ar    1  UNL1        0.1299
     22 C          -9.0333   -0.2807   -2.3271 C.ar    1  UNL1        0.0018
     23 C         -10.2749   -0.7415   -1.9506 C.ar    1  UNL1        0.0679
     24 C         -11.2010   -1.6001   -2.7732 C.3     1  UNL1       -0.0025
     25 C         -11.4304   -2.9331   -2.0903 C.3     1  UNL1       -0.0572
     26 C         -12.5423   -0.9062   -2.8631 C.3     1  UNL1       -0.0572
     27 N         -10.4915   -0.2681   -0.7154 N.ar    1  UNL1       -0.1694
     28 N          -9.4769    0.4595   -0.2820 N.ar    1  UNL1       -0.2181
     29 C          -9.3758    1.1047    0.9859 C.ar    1  UNL1        0.0677
     30 C          -9.7107    2.4264    1.1847 C.ar    1  UNL1       -0.0359
     31 C          -9.6021    3.0269    2.4269 C.ar    1  UNL1       -0.0566
     32 C          -9.1512    2.3223    3.5233 C.ar    1  UNL1       -0.0474
     33 C          -9.0380    2.9829    4.8643 C.3     1  UNL1       -0.0395
     34 C          -8.8118    0.9992    3.3420 C.ar    1  UNL1       -0.0455
     35 C          -8.3211    0.1910    4.4890 C.3     1  UNL1       -0.0394
     36 C          -8.9224    0.4077    2.1024 C.ar    1  UNL1       -0.0330
     37 C          -2.9510   -0.4027   -0.8899 C.ar    1  UNL1        0.0069
     38 C          -3.3129   -0.5925   -2.2069 C.ar    1  UNL1       -0.0521
     39 C          -2.5861   -1.4598   -2.9844 C.ar    1  UNL1       -0.0611
     40 C          -1.5105   -2.1274   -2.4456 C.ar    1  UNL1       -0.0611
     41 C          -1.1216   -1.9570   -1.1245 C.ar    1  UNL1       -0.0505
     42 C          -1.8561   -1.0839   -0.3534 C.ar    1  UNL1        0.0262
     43 N           1.3897   -0.6301    0.2628 N.ar    1  UNL1       -0.1789
     44 C           5.6172    0.1952   -0.6207 C.ar    1  UNL1       -0.0281
     45 C           6.9408    0.4300   -1.0029 C.ar    1  UNL1        0.0419
     46 C           8.0419    0.0835   -0.1150 C.2     1  UNL1        0.2443
     47 O           7.7809   -0.3758    1.0141 O.2     1  UNL1       -0.2702
     48 N           9.4037    0.2357   -0.4520 N.am    1  UNL1       -0.3101
     49 C          10.4683   -0.1301    0.4971 C.3     1  UNL1        0.0247
     50 C          11.7734    0.1413   -0.1603 C.3     1  UNL1        0.0146
     51 N          12.9288   -0.1380    0.6170 N.3     1  UNL1       -0.2965
     52 C          13.1973   -1.5036    0.9142 C.3     1  UNL1        0.0225
     53 C          14.3593   -1.5250    1.9178 C.3     1  UNL1        0.0604
     54 O          14.0771   -0.8411    3.0741 O.3     1  UNL1       -0.3772
     55 C          13.0443    0.0608    2.9971 C.3     1  UNL1        0.0604
     56 C          13.1755    0.7932    1.6757 C.3     1  UNL1        0.0225
     57 C           7.1210    1.0070   -2.2420 C.ar    1  UNL1       -0.0077
     58 H           7.5277    2.5049   -5.7860 H       1  UNL1        0.0660
     59 H           8.1276    1.2093   -4.6227 H       1  UNL1        0.0660
     60 H           8.0707    2.9097   -4.0895 H       1  UNL1        0.0660
     61 H           3.9183    1.3509   -3.3045 H       1  UNL1        0.0673
     62 H           2.4436    0.8491   -1.5871 H       1  UNL1        0.1550
     63 H           3.8464   -2.7763    2.2034 H       1  UNL1        0.0832
     64 H           1.4344   -2.8830    2.6978 H       1  UNL1        0.0686
     65 H          -2.0670    0.1603    2.7402 H       1  UNL1        0.0655
     66 H          -3.9966    1.3470    1.7575 H       1  UNL1        0.0637
     67 H          -4.7764    2.0971   -1.1406 H       1  UNL1        0.1564
     68 H          -7.2010    2.0755   -1.6546 H       1  UNL1        0.1578
     69 H          -8.5326   -0.4662   -3.2627 H       1  UNL1        0.0671
     70 H         -10.7664   -1.7250   -3.7680 H       1  UNL1        0.0359
     71 H         -11.4245   -2.7758   -1.0045 H       1  UNL1        0.0236
     72 H         -10.7177   -3.7088   -2.4406 H       1  UNL1        0.0236
     73 H         -12.4449   -3.2774   -2.3779 H       1  UNL1        0.0236
     74 H         -12.3498    0.2025   -2.7932 H       1  UNL1        0.0236
     75 H         -13.1421   -1.1280   -1.9329 H       1  UNL1        0.0236
     76 H         -13.0944   -1.1441   -3.7851 H       1  UNL1        0.0236
     77 H         -10.0669    2.9842    0.3187 H       1  UNL1        0.0639
     78 H          -9.8680    4.0675    2.5712 H       1  UNL1        0.0621
     79 H          -7.9958    3.0430    5.1969 H       1  UNL1        0.0278
     80 H          -9.6620    2.4316    5.6143 H       1  UNL1        0.0278
     81 H          -9.4569    4.0083    4.8365 H       1  UNL1        0.0278
     82 H          -9.1901   -0.3660    4.9236 H       1  UNL1        0.0278
     83 H          -7.7795    0.7959    5.2271 H       1  UNL1        0.0278
     84 H          -7.6210   -0.6004    4.1025 H       1  UNL1        0.0278
     85 H          -8.6614   -0.6398    1.9274 H       1  UNL1        0.0641
     86 H          -4.1768   -0.0428   -2.6058 H       1  UNL1        0.0624
     87 H          -2.8560   -1.6232   -4.0247 H       1  UNL1        0.0618
     88 H          -0.9121   -2.8211   -3.0286 H       1  UNL1        0.0618
     89 H          -0.2799   -2.5045   -0.7145 H       1  UNL1        0.0625
     90 H           5.4986   -0.2416    0.3410 H       1  UNL1        0.0644
     91 H           9.6390    0.6164   -1.3941 H       1  UNL1        0.1490
     92 H          10.3178   -1.1831    0.7927 H       1  UNL1        0.0475
     93 H          10.3834    0.5091    1.4053 H       1  UNL1        0.0475
     94 H          11.8073   -0.4453   -1.1110 H       1  UNL1        0.0442
     95 H          11.8009    1.2230   -0.4240 H       1  UNL1        0.0442
     96 H          13.5886   -1.9987    0.0125 H       1  UNL1        0.0449
     97 H          12.3372   -2.0768    1.3013 H       1  UNL1        0.0449
     98 H          15.2141   -1.0199    1.4249 H       1  UNL1        0.0572
     99 H          14.6695   -2.5647    2.1481 H       1  UNL1        0.0572
    100 H          12.0400   -0.4259    3.0219 H       1  UNL1        0.0572
    101 H          13.1177    0.7541    3.8638 H       1  UNL1        0.0572
    102 H          12.4529    1.6344    1.7038 H       1  UNL1        0.0449
    103 H          14.2150    1.1734    1.6118 H       1  UNL1        0.0449
    104 H           8.1197    1.2120   -2.5894 H       1  UNL1        0.0662
@<TRIPOS>BOND
     1     1     2    1
     2     2     3    1
     3     3     4   ar
     4     4     5   ar
     5     5     6    1
     6     6     7    1
     7     7     8   ar
     8     8     9   ar
     9     9    10   ar
    10    10    11   ar
    11    11    12    1
    12    12    13    1
    13    13    14   ar
    14    14    15   ar
    15    15    16   ar
    16    16    17    1
    17    17    18   am
    18    18    19    2
    19    18    20   am
    20    20    21    1
    21    21    22   ar
    22    22    23   ar
    23    23    24    1
    24    24    25    1
    25    24    26    1
    26    23    27   ar
    27    27    28   ar
    28    28    29    1
    29    29    30   ar
    30    30    31   ar
    31    31    32   ar
    32    32    33    1
    33    32    34   ar
    34    34    35    1
    35    34    36   ar
    36    16    37   ar
    37    37    38   ar
    38    38    39   ar
    39    39    40   ar
    40    40    41   ar
    41    41    42   ar
    42    11    43   ar
    43     5    44   ar
    44    44    45   ar
    45    45    46    1
    46    46    47    2
    47    46    48   am
    48    48    49    1
    49    49    50    1
    50    50    51    1
    51    51    52    1
    52    52    53    1
    53    53    54    1
    54    54    55    1
    55    55    56    1
    56    45    57   ar
    57    57     3   ar
    58    43     7   ar
    59    56    51    1
    60    42    13   ar
    61    28    21   ar
    62    36    29   ar
    63    42    37   ar
    64     1    58    1
    65     1    59    1
    66     1    60    1
    67     4    61    1
    68     6    62    1
    69     9    63    1
    70    10    64    1
    71    14    65    1
    72    15    66    1
    73    17    67    1
    74    20    68    1
    75    22    69    1
    76    24    70    1
    77    25    71    1
    78    25    72    1
    79    25    73    1
    80    26    74    1
    81    26    75    1
    82    26    76    1
    83    30    77    1
    84    31    78    1
    85    33    79    1
    86    33    80    1
    87    33    81    1
    88    35    82    1
    89    35    83    1
    90    35    84    1
    91    36    85    1
    92    38    86    1
    93    39    87    1
    94    40    88    1
    95    41    89    1
    96    44    90    1
    97    48    91    1
    98    49    92    1
    99    49    93    1
   100    50    94    1
   101    50    95    1
   102    52    96    1
   103    52    97    1
   104    53    98    1
   105    53    99    1
   106    55   100    1
   107    55   101    1
   108    56   102    1
   109    56   103    1
   110    57   104    1
