
     RDKit          3D

 51 53  0  0  0  0  0  0  0  0999 V2000
    1.8395   -2.0239   -1.4084 C   0  0  0  0  0  0  0  0  0  0  0  0
    1.4923   -1.4906   -0.0401 C   0  0  0  0  0  0  0  0  0  0  0  0
    2.7131   -1.3516    0.7825 C   0  0  0  0  0  0  0  0  0  0  0  0
    2.4849   -1.0240    2.1041 O   0  0  0  0  0  0  0  0  0  0  0  0
    3.7681   -0.4759    0.2569 C   0  0  0  0  0  0  0  0  0  0  0  0
    3.8725    0.3075   -0.8727 C   0  0  0  0  0  0  0  0  0  0  0  0
    5.0136    1.0362   -1.1284 C   0  0  0  0  0  0  0  0  0  0  0  0
    6.0928    1.0125   -0.2695 C   0  0  0  0  0  0  0  0  0  0  0  0
    7.1452    1.8131   -0.7040 O   0  0  0  0  0  0  0  0  0  0  0  0
    6.0162    0.2411    0.8634 C   0  0  0  0  0  0  0  0  0  0  0  0
    4.8726   -0.4913    1.1226 C   0  0  0  0  0  0  0  0  0  0  0  0
    0.6577   -0.3429   -0.1802 N   0  0  0  0  0  0  0  0  0  0  0  0
   -0.5466   -0.7453   -0.8833 C   0  0  0  0  0  0  0  0  0  0  0  0
   -1.7987   -0.5930   -0.0243 C   0  0  0  0  0  0  0  0  0  0  0  0
   -1.9788    0.8754    0.1897 C   0  0  0  0  0  0  0  0  0  0  0  0
   -3.1063    1.2313    1.1325 C   0  0  0  0  0  0  0  0  0  0  0  0
   -4.4048    0.7325    0.6354 C   0  0  0  0  0  0  0  0  0  0  0  0
   -5.1802    1.5213   -0.1843 C   0  0  0  0  0  0  0  0  0  0  0  0
   -6.4084    1.1682   -0.7115 C   0  0  0  0  0  0  0  0  0  0  0  0
   -6.8346   -0.1052   -0.3409 C   0  0  0  0  0  0  0  0  0  0  0  0
   -6.1060   -0.9463    0.4773 C   0  0  0  0  0  0  0  0  0  0  0  0
   -4.8881   -0.5176    0.9623 C   0  0  0  0  0  0  0  0  0  0  0  0
   -0.6601    1.4489    0.6588 C   0  0  0  0  0  0  0  0  0  0  0  0
    0.3168    0.3235    1.0305 C   0  0  0  0  0  0  0  0  0  0  0  0
    1.4257   -3.0448   -1.5913 H   0  0  0  0  0  0  0  0  0  0  0  0
    1.4545   -1.3701   -2.2296 H   0  0  0  0  0  0  0  0  0  0  0  0
    2.9370   -2.1032   -1.5672 H   0  0  0  0  0  0  0  0  0  0  0  0
    0.8464   -2.2848    0.4283 H   0  0  0  0  0  0  0  0  0  0  0  0
    3.1733   -2.3854    0.8214 H   0  0  0  0  0  0  0  0  0  0  0  0
    3.0998   -0.3260    2.3805 H   0  0  0  0  0  0  0  0  0  0  0  0
    2.9952    0.2677   -1.4674 H   0  0  0  0  0  0  0  0  0  0  0  0
    4.9386    1.5937   -2.0465 H   0  0  0  0  0  0  0  0  0  0  0  0
    7.0853    2.8264   -0.7397 H   0  0  0  0  0  0  0  0  0  0  0  0
    6.8912    0.2719    1.4828 H   0  0  0  0  0  0  0  0  0  0  0  0
    4.9795   -1.0497    2.0661 H   0  0  0  0  0  0  0  0  0  0  0  0
   -0.7112   -0.0843   -1.7698 H   0  0  0  0  0  0  0  0  0  0  0  0
   -0.5072   -1.8079   -1.2028 H   0  0  0  0  0  0  0  0  0  0  0  0
   -1.7879   -1.2115    0.8786 H   0  0  0  0  0  0  0  0  0  0  0  0
   -2.6207   -1.0280   -0.6613 H   0  0  0  0  0  0  0  0  0  0  0  0
   -2.2053    1.3219   -0.8069 H   0  0  0  0  0  0  0  0  0  0  0  0
   -3.1533    2.3508    1.1278 H   0  0  0  0  0  0  0  0  0  0  0  0
   -2.9293    0.9103    2.1575 H   0  0  0  0  0  0  0  0  0  0  0  0
   -4.8087    2.5141   -0.4509 H   0  0  0  0  0  0  0  0  0  0  0  0
   -6.9595    1.8305   -1.3429 H   0  0  0  0  0  0  0  0  0  0  0  0
   -7.7860   -0.4622   -0.7091 H   0  0  0  0  0  0  0  0  0  0  0  0
   -6.4702   -1.9190    0.7385 H   0  0  0  0  0  0  0  0  0  0  0  0
   -4.2656   -1.1298    1.6102 H   0  0  0  0  0  0  0  0  0  0  0  0
   -0.7904    2.0963    1.5337 H   0  0  0  0  0  0  0  0  0  0  0  0
   -0.1693    2.0458   -0.1638 H   0  0  0  0  0  0  0  0  0  0  0  0
    1.1742    0.8663    1.4821 H   0  0  0  0  0  0  0  0  0  0  0  0
   -0.2088   -0.2931    1.7859 H   0  0  0  0  0  0  0  0  0  0  0  0
  1  2  1  0
  2  3  1  0
  3  4  1  0
  3  5  1  0
  5  6  2  0
  6  7  1  0
  7  8  2  0
  8  9  1  0
  8 10  1  0
 10 11  2  0
  2 12  1  0
 12 13  1  0
 13 14  1  0
 14 15  1  0
 15 16  1  0
 16 17  1  0
 17 18  2  0
 18 19  1  0
 19 20  2  0
 20 21  1  0
 21 22  2  0
 15 23  1  0
 23 24  1  0
 11  5  1  0
 24 12  1  0
 22 17  1  0
  1 25  1  0
  1 26  1  0
  1 27  1  0
  2 28  1  0
  3 29  1  0
  4 30  1  0
  6 31  1  0
  7 32  1  0
  9 33  1  0
 10 34  1  0
 11 35  1  0
 13 36  1  0
 13 37  1  0
 14 38  1  0
 14 39  1  0
 15 40  1  0
 16 41  1  0
 16 42  1  0
 18 43  1  0
 19 44  1  0
 20 45  1  0
 21 46  1  0
 22 47  1  0
 23 48  1  0
 23 49  1  0
 24 50  1  0
 24 51  1  0
M  END
$$$$
