@<TRIPOS>MOLECULE
*****
 51 53 0 0 0
SMALL
GASTEIGER

@<TRIPOS>ATOM
      1 C           1.8395   -2.0239   -1.4084 C.3     1  UNL1       -0.0468
      2 C           1.4923   -1.4906   -0.0401 C.3     1  UNL1        0.0377
      3 C           2.7131   -1.3516    0.7825 C.3     1  UNL1        0.0954
      4 O           2.4849   -1.0240    2.1041 O.3     1  UNL1       -0.3856
      5 C           3.7681   -0.4759    0.2569 C.ar    1  UNL1       -0.0174
      6 C           3.8725    0.3075   -0.8727 C.ar    1  UNL1       -0.0526
      7 C           5.0136    1.0362   -1.1284 C.ar    1  UNL1       -0.0198
      8 C           6.0928    1.0125   -0.2695 C.ar    1  UNL1        0.1169
      9 O           7.1452    1.8131   -0.7040 O.3     1  UNL1       -0.5068
     10 C           6.0162    0.2411    0.8634 C.ar    1  UNL1       -0.0198
     11 C           4.8726   -0.4913    1.1226 C.ar    1  UNL1       -0.0526
     12 N           0.6577   -0.3429   -0.1802 N.3     1  UNL1       -0.2969
     13 C          -0.5466   -0.7453   -0.8833 C.3     1  UNL1       -0.0005
     14 C          -1.7987   -0.5930   -0.0243 C.3     1  UNL1       -0.0370
     15 C          -1.9788    0.8754    0.1897 C.3     1  UNL1       -0.0347
     16 C          -3.1063    1.2313    1.1325 C.3     1  UNL1       -0.0248
     17 C          -4.4048    0.7325    0.6354 C.ar    1  UNL1       -0.0471
     18 C          -5.1802    1.5213   -0.1843 C.ar    1  UNL1       -0.0586
     19 C          -6.4084    1.1682   -0.7115 C.ar    1  UNL1       -0.0615
     20 C          -6.8346   -0.1052   -0.3409 C.ar    1  UNL1       -0.0617
     21 C          -6.1060   -0.9463    0.4773 C.ar    1  UNL1       -0.0615
     22 C          -4.8881   -0.5176    0.9623 C.ar    1  UNL1       -0.0586
     23 C          -0.6601    1.4489    0.6588 C.3     1  UNL1       -0.0370
     24 C           0.3168    0.3235    1.0305 C.3     1  UNL1       -0.0005
     25 H           1.4257   -3.0448   -1.5913 H       1  UNL1        0.0246
     26 H           1.4545   -1.3701   -2.2296 H       1  UNL1        0.0246
     27 H           2.9370   -2.1032   -1.5672 H       1  UNL1        0.0246
     28 H           0.8464   -2.2848    0.4283 H       1  UNL1        0.0488
     29 H           3.1733   -2.3854    0.8214 H       1  UNL1        0.0659
     30 H           3.0998   -0.3260    2.3805 H       1  UNL1        0.2103
     31 H           2.9952    0.2677   -1.4674 H       1  UNL1        0.0622
     32 H           4.9386    1.5937   -2.0465 H       1  UNL1        0.0654
     33 H           7.0853    2.8264   -0.7397 H       1  UNL1        0.2921
     34 H           6.8912    0.2719    1.4828 H       1  UNL1        0.0654
     35 H           4.9795   -1.0497    2.0661 H       1  UNL1        0.0622
     36 H          -0.7112   -0.0843   -1.7698 H       1  UNL1        0.0427
     37 H          -0.5072   -1.8079   -1.2028 H       1  UNL1        0.0427
     38 H          -1.7879   -1.2115    0.8786 H       1  UNL1        0.0280
     39 H          -2.6207   -1.0280   -0.6613 H       1  UNL1        0.0280
     40 H          -2.2053    1.3219   -0.8069 H       1  UNL1        0.0305
     41 H          -3.1533    2.3508    1.1278 H       1  UNL1        0.0316
     42 H          -2.9293    0.9103    2.1575 H       1  UNL1        0.0316
     43 H          -4.8087    2.5141   -0.4509 H       1  UNL1        0.0620
     44 H          -6.9595    1.8305   -1.3429 H       1  UNL1        0.0618
     45 H          -7.7860   -0.4622   -0.7091 H       1  UNL1        0.0618
     46 H          -6.4702   -1.9190    0.7385 H       1  UNL1        0.0618
     47 H          -4.2656   -1.1298    1.6102 H       1  UNL1        0.0620
     48 H          -0.7904    2.0963    1.5337 H       1  UNL1        0.0280
     49 H          -0.1693    2.0458   -0.1638 H       1  UNL1        0.0280
     50 H           1.1742    0.8663    1.4821 H       1  UNL1        0.0427
     51 H          -0.2088   -0.2931    1.7859 H       1  UNL1        0.0427
@<TRIPOS>BOND
     1     1     2    1
     2     2     3    1
     3     3     4    1
     4     3     5    1
     5     5     6   ar
     6     6     7   ar
     7     7     8   ar
     8     8     9    1
     9     8    10   ar
    10    10    11   ar
    11     2    12    1
    12    12    13    1
    13    13    14    1
    14    14    15    1
    15    15    16    1
    16    16    17    1
    17    17    18   ar
    18    18    19   ar
    19    19    20   ar
    20    20    21   ar
    21    21    22   ar
    22    15    23    1
    23    23    24    1
    24    11     5   ar
    25    24    12    1
    26    22    17   ar
    27     1    25    1
    28     1    26    1
    29     1    27    1
    30     2    28    1
    31     3    29    1
    32     4    30    1
    33     6    31    1
    34     7    32    1
    35     9    33    1
    36    10    34    1
    37    11    35    1
    38    13    36    1
    39    13    37    1
    40    14    38    1
    41    14    39    1
    42    15    40    1
    43    16    41    1
    44    16    42    1
    45    18    43    1
    46    19    44    1
    47    20    45    1
    48    21    46    1
    49    22    47    1
    50    23    48    1
    51    23    49    1
    52    24    50    1
    53    24    51    1
