
     RDKit          3D

 27 27  0  0  0  0  0  0  0  0999 V2000
   -3.2364   -0.5899    0.2887 C   0  0  1  0  0  0  0  0  0  0  0  0
   -3.1892   -1.9017   -0.2767 N   0  0  0  0  0  0  0  0  0  0  0  0
   -2.0607    0.2512   -0.1318 C   0  0  0  0  0  0  0  0  0  0  0  0
   -0.4720   -0.4687    0.3727 S   0  0  0  0  0  0  0  0  0  0  0  0
    0.7616    0.7157   -0.2428 C   0  0  0  0  0  0  0  0  0  0  0  0
    2.1484    0.3339    0.0549 C   0  0  0  0  0  0  0  0  0  0  0  0
    2.7765   -0.4465   -0.9034 C   0  0  0  0  0  0  0  0  0  0  0  0
    4.0988   -0.8527   -0.6953 C   0  0  0  0  0  0  0  0  0  0  0  0
    4.7355   -0.4622    0.4597 C   0  0  0  0  0  0  0  0  0  0  0  0
    6.5292   -1.0220    0.7261 Br  0  0  0  0  0  0  0  0  0  0  0  0
    4.1064    0.3130    1.4080 C   0  0  0  0  0  0  0  0  0  0  0  0
    2.8066    0.7148    1.2079 C   0  0  0  0  0  0  0  0  0  0  0  0
   -4.4428    0.1662   -0.1990 C   0  0  0  0  0  0  0  0  0  0  0  0
   -4.6356    1.4634    0.2593 O   0  0  0  0  0  0  0  0  0  0  0  0
   -5.2449   -0.4063   -1.0132 O   0  0  0  0  0  0  0  0  0  0  0  0
   -3.2743   -0.6121    1.3950 H   0  0  0  0  0  0  0  0  0  0  0  0
   -4.1453   -2.1652   -0.6218 H   0  0  0  0  0  0  0  0  0  0  0  0
   -2.4824   -1.8908   -1.0640 H   0  0  0  0  0  0  0  0  0  0  0  0
   -2.1152    1.2813    0.2063 H   0  0  0  0  0  0  0  0  0  0  0  0
   -2.0626    0.2272   -1.2620 H   0  0  0  0  0  0  0  0  0  0  0  0
    0.5299    1.6817    0.2751 H   0  0  0  0  0  0  0  0  0  0  0  0
    0.5867    0.8028   -1.3280 H   0  0  0  0  0  0  0  0  0  0  0  0
    2.3185   -0.7711   -1.8130 H   0  0  0  0  0  0  0  0  0  0  0  0
    4.6184   -1.4624   -1.4235 H   0  0  0  0  0  0  0  0  0  0  0  0
    4.5994    0.6250    2.3197 H   0  0  0  0  0  0  0  0  0  0  0  0
    2.2766    1.3300    1.9387 H   0  0  0  0  0  0  0  0  0  0  0  0
   -5.5310    1.9346    0.0623 H   0  0  0  0  0  0  0  0  0  0  0  0
  1  2  1  0
  1  3  1  0
  3  4  1  0
  4  5  1  0
  5  6  1  0
  6  7  2  0
  7  8  1  0
  8  9  2  0
  9 10  1  0
  9 11  1  0
 11 12  2  0
  1 13  1  0
 13 14  1  0
 13 15  2  0
 12  6  1  0
  1 16  1  1
  2 17  1  0
  2 18  1  0
  3 19  1  0
  3 20  1  0
  5 21  1  0
  5 22  1  0
  7 23  1  0
  8 24  1  0
 11 25  1  0
 12 26  1  0
 14 27  1  0
M  END
$$$$
