@<TRIPOS>MOLECULE
*****
 27 27 0 0 0
SMALL
GASTEIGER

@<TRIPOS>ATOM
      1 C1         -3.2364   -0.5899    0.2887 C.3     1  <1>         0.1123
      2 N1         -3.1892   -1.9017   -0.2767 N.3     1  <1>        -0.3178
      3 C2         -2.0607    0.2512   -0.1318 C.3     1  <1>         0.0196
      4 S1         -0.4720   -0.4687    0.3727 S.3     1  <1>        -0.1540
      5 C3          0.7616    0.7157   -0.2428 C.3     1  <1>         0.0189
      6 C4          2.1484    0.3339    0.0549 C.ar    1  <1>        -0.0375
      7 C5          2.7765   -0.4465   -0.9034 C.ar    1  <1>        -0.0567
      8 C6          4.0988   -0.8527   -0.6953 C.ar    1  <1>        -0.0475
      9 C7          4.7355   -0.4622    0.4597 C.ar    1  <1>         0.0179
     10 Br1         6.5292   -1.0220    0.7261 Br      1  <1>        -0.0503
     11 C8          4.1064    0.3130    1.4080 C.ar    1  <1>        -0.0475
     12 C9          2.8066    0.7148    1.2079 C.ar    1  <1>        -0.0567
     13 C10        -4.4428    0.1662   -0.1990 C.2     1  <1>         0.3225
     14 O1         -4.6356    1.4634    0.2593 O.3     1  <1>        -0.4795
     15 O2         -5.2449   -0.4063   -1.0132 O.2     1  <1>        -0.2492
     16 H1         -3.2743   -0.6121    1.3950 H       1  <1>         0.0582
     17 H2         -4.1453   -2.1652   -0.6218 H       1  <1>         0.1190
     18 H3         -2.4824   -1.8908   -1.0640 H       1  <1>         0.1190
     19 H4         -2.1152    1.2813    0.2063 H       1  <1>         0.0397
     20 H5         -2.0626    0.2272   -1.2620 H       1  <1>         0.0397
     21 H6          0.5299    1.6817    0.2751 H       1  <1>         0.0425
     22 H7          0.5867    0.8028   -1.3280 H       1  <1>         0.0425
     23 H8          2.3185   -0.7711   -1.8130 H       1  <1>         0.0621
     24 H9          4.6184   -1.4624   -1.4235 H       1  <1>         0.0629
     25 H10         4.5994    0.6250    2.3197 H       1  <1>         0.0629
     26 H11         2.2766    1.3300    1.9387 H       1  <1>         0.0621
     27 H12        -5.5310    1.9346    0.0623 H       1  <1>         0.2951
@<TRIPOS>BOND
     1     1     2    1
     2     1     3    1
     3     3     4    1
     4     4     5    1
     5     5     6    1
     6     6     7   ar
     7     7     8   ar
     8     8     9   ar
     9     9    10    1
    10     9    11   ar
    11    11    12   ar
    12     1    13    1
    13    13    14    1
    14    13    15    2
    15    12     6   ar
    16     1    16    1
    17     2    17    1
    18     2    18    1
    19     3    19    1
    20     3    20    1
    21     5    21    1
    22     5    22    1
    23     7    23    1
    24     8    24    1
    25    11    25    1
    26    12    26    1
    27    14    27    1
