@<TRIPOS>MOLECULE
*****
 62 65 0 0 0
SMALL
GASTEIGER

@<TRIPOS>ATOM
      1 C           6.3003    3.4512    3.6693 C.3     1  UNL1        0.0788
      2 O           5.0082    3.8626    3.2510 O.3     1  UNL1       -0.4951
      3 C           4.3553    3.1468    2.2548 C.ar    1  UNL1        0.1201
      4 C           4.9801    2.0477    1.6928 C.ar    1  UNL1       -0.0194
      5 C           4.3423    1.3351    0.7121 C.ar    1  UNL1       -0.0506
      6 C           3.0803    1.6434    0.2270 C.ar    1  UNL1       -0.0177
      7 C           2.4228    0.8729   -0.8090 C.ar    1  UNL1       -0.0178
      8 C           1.5408    1.4259   -1.7128 C.ar    1  UNL1       -0.0522
      9 C           0.9427    0.6223   -2.6919 C.ar    1  UNL1       -0.0348
     10 C           1.1923   -0.7234   -2.8032 C.ar    1  UNL1        0.1053
     11 S           0.4769   -1.7698   -4.0037 S.O2    1  UNL1        0.0591
     12 O           0.1891   -0.9357   -5.2306 O.2     1  UNL1       -0.1530
     13 O           1.5067   -2.8286   -4.4358 O.2     1  UNL1       -0.1530
     14 N          -0.8539   -2.5809   -3.4106 N.3     1  UNL1       -0.1759
     15 C          -1.9981   -1.8713   -2.9714 C.3     1  UNL1        0.1281
     16 C          -3.0645   -2.0725   -4.0161 C.2     1  UNL1        0.3238
     17 O          -2.8124   -2.7535   -5.0187 O.2     1  UNL1       -0.2492
     18 O          -4.3036   -1.5032   -3.8502 O.3     1  UNL1       -0.4795
     19 C          -2.5023   -2.2887   -1.6257 C.3     1  UNL1       -0.0136
     20 C          -3.7577   -1.5596   -1.1980 C.3     1  UNL1       -0.0463
     21 C          -3.7284   -1.3201    0.3064 C.3     1  UNL1       -0.0315
     22 C          -2.7513   -0.1907    0.5142 C.3     1  UNL1        0.0421
     23 N          -2.6782    0.1879    1.9036 N.ar    1  UNL1       -0.2606
     24 C          -2.5541   -0.6039    2.9824 C.ar    1  UNL1        0.2135
     25 O          -2.4822   -1.9862    2.9715 O.3     1  UNL1       -0.4924
     26 C          -2.5129    0.2344    4.0833 C.ar    1  UNL1        0.0662
     27 N          -2.6118    1.5105    3.6678 N.ar    1  UNL1       -0.3093
     28 C          -2.7119    1.4826    2.3487 C.ar    1  UNL1        0.3296
     29 O          -2.8228    2.4951    1.5921 O.2     1  UNL1       -0.2465
     30 C          -1.3981   -0.6609   -0.0348 C.3     1  UNL1       -0.0315
     31 C          -1.4388   -2.0580   -0.5861 C.3     1  UNL1       -0.0463
     32 C           2.0934   -1.2684   -1.8747 C.ar    1  UNL1       -0.0348
     33 C           2.6837   -0.4858   -0.9121 C.ar    1  UNL1       -0.0522
     34 C           2.4919    2.7598    0.8248 C.ar    1  UNL1       -0.0506
     35 C           3.1112    3.4948    1.8129 C.ar    1  UNL1       -0.0194
     36 H           6.5982    4.0289    4.5472 H       1  UNL1        0.0660
     37 H           6.1697    2.3787    3.9938 H       1  UNL1        0.0660
     38 H           6.9755    3.5075    2.8160 H       1  UNL1        0.0660
     39 H           5.9650    1.7793    2.0493 H       1  UNL1        0.0654
     40 H           4.8637    0.4756    0.2940 H       1  UNL1        0.0625
     41 H           1.3406    2.4835   -1.6311 H       1  UNL1        0.0624
     42 H           0.2554    1.0730   -3.3947 H       1  UNL1        0.0637
     43 H          -1.0341   -3.5319   -3.7892 H       1  UNL1        0.1489
     44 H          -1.7745   -0.7689   -3.0048 H       1  UNL1        0.0595
     45 H          -5.1330   -2.0153   -4.1079 H       1  UNL1        0.2951
     46 H          -2.6740   -3.3963   -1.6774 H       1  UNL1        0.0322
     47 H          -4.6103   -2.2848   -1.3407 H       1  UNL1        0.0269
     48 H          -3.9524   -0.6175   -1.6918 H       1  UNL1        0.0269
     49 H          -4.7623   -1.0379    0.6045 H       1  UNL1        0.0285
     50 H          -3.3820   -2.1935    0.8756 H       1  UNL1        0.0285
     51 H          -3.0798    0.7210   -0.0614 H       1  UNL1        0.0530
     52 H          -2.5379   -2.4876    3.8655 H       1  UNL1        0.2937
     53 H          -2.4176   -0.1120    5.1118 H       1  UNL1        0.0862
     54 H          -2.6084    2.3523    4.3113 H       1  UNL1        0.1700
     55 H          -0.7260   -0.7012    0.8770 H       1  UNL1        0.0285
     56 H          -1.0153    0.0831   -0.7446 H       1  UNL1        0.0285
     57 H          -0.4454   -2.2639   -1.0337 H       1  UNL1        0.0269
     58 H          -1.5786   -2.8113    0.2322 H       1  UNL1        0.0269
     59 H           2.3013   -2.3272   -1.9507 H       1  UNL1        0.0637
     60 H           3.3915   -0.8981   -0.1784 H       1  UNL1        0.0624
     61 H           1.5039    3.0944    0.5212 H       1  UNL1        0.0625
     62 H           2.6317    4.3582    2.2594 H       1  UNL1        0.0654
@<TRIPOS>BOND
     1     1     2    1
     2     2     3    1
     3     3     4   ar
     4     4     5   ar
     5     5     6   ar
     6     6     7    1
     7     7     8   ar
     8     8     9   ar
     9     9    10   ar
    10    10    11    1
    11    11    12    2
    12    11    13    2
    13    11    14    1
    14    14    15    1
    15    15    16    1
    16    16    17    2
    17    16    18    1
    18    15    19    1
    19    19    20    1
    20    20    21    1
    21    21    22    1
    22    22    23    1
    23    23    24   ar
    24    24    25    1
    25    24    26   ar
    26    26    27   ar
    27    27    28   ar
    28    28    29    2
    29    22    30    1
    30    30    31    1
    31    10    32   ar
    32    32    33   ar
    33     6    34   ar
    34    34    35   ar
    35    35     3   ar
    36    33     7   ar
    37    31    19    1
    38    28    23   ar
    39     1    36    1
    40     1    37    1
    41     1    38    1
    42     4    39    1
    43     5    40    1
    44     8    41    1
    45     9    42    1
    46    14    43    1
    47    15    44    1
    48    18    45    1
    49    19    46    1
    50    20    47    1
    51    20    48    1
    52    21    49    1
    53    21    50    1
    54    22    51    1
    55    25    52    1
    56    26    53    1
    57    27    54    1
    58    30    55    1
    59    30    56    1
    60    31    57    1
    61    31    58    1
    62    32    59    1
    63    33    60    1
    64    34    61    1
    65    35    62    1
