@<TRIPOS>MOLECULE
*****
 37 39 0 0 0
SMALL
GASTEIGER

@<TRIPOS>ATOM
      1 C          -0.0733   -4.0591   -0.1319 C.3     1  UNL1       -0.0012
      2 C           0.4866   -2.7667    0.2999 C.2     1  UNL1        0.1669
      3 O           1.6480   -2.7398    0.7580 O.2     1  UNL1       -0.2921
      4 C          -0.2972   -1.5531    0.1925 C.ar    1  UNL1        0.0990
      5 C           0.1823   -0.3052    0.5643 C.ar    1  UNL1        0.1380
      6 N           1.4866   -0.2143    1.0899 N.pl3   1  UNL1       -0.2976
      7 C           2.5540    0.5716    0.6253 C.ar    1  UNL1        0.0510
      8 C           3.1139    1.4991    1.4944 C.ar    1  UNL1       -0.0377
      9 C           4.1683    2.2851    1.0812 C.ar    1  UNL1       -0.0415
     10 C           4.6889    2.1711   -0.1938 C.ar    1  UNL1        0.0425
     11 CL          6.0332    3.1608   -0.7379 Cl      1  UNL1       -0.0835
     12 C           4.1264    1.2450   -1.0548 C.ar    1  UNL1       -0.0232
     13 C           3.0567    0.4522   -0.6271 C.ar    1  UNL1        0.0635
     14 CL          2.3757   -0.6903   -1.7476 Cl      1  UNL1       -0.0816
     15 N          -0.6009    0.7979    0.4345 N.ar    1  UNL1       -0.2241
     16 C          -1.8608    0.7409   -0.0528 C.ar    1  UNL1        0.1534
     17 C          -2.6713    1.8490   -0.1924 C.ar    1  UNL1        0.3003
     18 N          -2.1686    3.1367    0.1898 N.pl3   1  UNL1        0.0819
     19 O          -2.6358    4.1537   -0.3859 O.2     1  UNL1        0.0415
     20 O          -1.2217    3.3461    1.1343 O.co2   1  UNL1       -0.5760
     21 C          -3.9577    1.7284   -0.6988 C.ar    1  UNL1        0.0361
     22 C          -4.4818    0.5234   -1.0804 C.ar    1  UNL1        0.0482
     23 CL         -6.0991    0.3247   -1.7217 Cl      1  UNL1       -0.0833
     24 C          -3.6639   -0.5901   -0.9395 C.ar    1  UNL1       -0.0302
     25 C          -2.3942   -0.4728   -0.4398 C.ar    1  UNL1        0.0506
     26 C          -1.5960   -1.5801   -0.3047 C.ar    1  UNL1        0.1400
     27 O          -2.1445   -2.8002   -0.6971 O.3     1  UNL1       -0.5053
     28 H          -0.9223   -4.3573    0.5156 H       1  UNL1        0.0309
     29 H          -0.3221   -4.0952   -1.2198 H       1  UNL1        0.0309
     30 H           0.6864   -4.8921   -0.0252 H       1  UNL1        0.0309
     31 H           1.6509   -0.8191    1.9578 H       1  UNL1        0.1536
     32 H           2.7575    1.6400    2.5037 H       1  UNL1        0.0637
     33 H           4.6298    3.0171    1.7259 H       1  UNL1        0.0633
     34 H           4.4921    1.1055   -2.0714 H       1  UNL1        0.0647
     35 H          -4.5773    2.6044   -0.8022 H       1  UNL1        0.0701
     36 H          -4.0333   -1.5575   -1.2265 H       1  UNL1        0.0640
     37 H          -2.4154   -2.8600   -1.6813 H       1  UNL1        0.2922
@<TRIPOS>UNITY_ATOM_ATTR
18 1
charge 1
20 1
charge -1
@<TRIPOS>BOND
     1     1     2    1
     2     2     3    2
     3     2     4    1
     4     4     5   ar
     5     5     6    1
     6     6     7    1
     7     7     8   ar
     8     8     9   ar
     9     9    10   ar
    10    10    11    1
    11    10    12   ar
    12    12    13   ar
    13    13    14    1
    14     5    15   ar
    15    15    16   ar
    16    16    17   ar
    17    17    18    1
    18    18    19    2
    19    18    20    1
    20    17    21   ar
    21    21    22   ar
    22    22    23    1
    23    22    24   ar
    24    24    25   ar
    25    25    26   ar
    26    26    27    1
    27    26     4   ar
    28    13     7   ar
    29    25    16   ar
    30     1    28    1
    31     1    29    1
    32     1    30    1
    33     6    31    1
    34     8    32    1
    35     9    33    1
    36    12    34    1
    37    21    35    1
    38    24    36    1
    39    27    37    1
