@<TRIPOS>MOLECULE
*****
 61 65 0 0 0
SMALL
GASTEIGER

@<TRIPOS>ATOM
      1 C           8.3764    0.8266   -2.8533 C.3     1  UNL1        0.0788
      2 O           7.6776    1.2360   -1.7047 O.3     1  UNL1       -0.4951
      3 C           6.8197    0.4397   -0.9640 C.ar    1  UNL1        0.1201
      4 C           6.5910   -0.8758   -1.3355 C.ar    1  UNL1       -0.0196
      5 C           5.7211   -1.6448   -0.5642 C.ar    1  UNL1       -0.0534
      6 C           5.0950   -1.1323    0.5406 C.ar    1  UNL1       -0.0275
      7 C           4.1786   -1.9136    1.3811 C.3     1  UNL1        0.0497
      8 N           2.8172   -1.8794    0.8870 N.ar    1  UNL1       -0.3275
      9 C           2.2403   -2.7824    0.0748 C.ar    1  UNL1        0.0075
     10 C           0.9301   -2.4142   -0.1526 C.ar    1  UNL1       -0.0331
     11 C           0.6954   -1.2519    0.5406 C.ar    1  UNL1        0.0400
     12 C          -0.4376   -0.4381    0.6622 C.ar    1  UNL1        0.0436
     13 N          -1.6217   -0.7783   -0.0069 N.pl3   1  UNL1       -0.3136
     14 C          -2.7764    0.0341   -0.0232 C.ar    1  UNL1        0.0383
     15 C          -3.9616   -0.3899    0.6058 C.ar    1  UNL1       -0.0126
     16 C          -5.0910    0.3900    0.5218 C.ar    1  UNL1        0.0937
     17 C          -6.3184   -0.0903    1.1829 C.ar    1  UNL1        0.1242
     18 N          -7.0529    0.7440    1.9401 N.ar    1  UNL1       -0.2505
     19 C          -8.1775    0.3350    2.5470 C.ar    1  UNL1        0.0285
     20 C          -8.6175   -0.9557    2.4133 C.ar    1  UNL1       -0.0408
     21 C          -7.8943   -1.8624    1.6381 C.ar    1  UNL1       -0.0228
     22 C          -6.7421   -1.3891    1.0357 C.ar    1  UNL1        0.1507
     23 F          -5.9913   -2.2242    0.2667 F       1  UNL1       -0.2032
     24 N          -5.1163    1.5736   -0.1541 N.ar    1  UNL1       -0.2529
     25 C          -3.9936    1.9924   -0.7619 C.ar    1  UNL1        0.0335
     26 C          -2.8183    1.2254   -0.7008 C.ar    1  UNL1       -0.0056
     27 C          -1.6307    1.7439   -1.4122 C.3     1  UNL1       -0.0183
     28 C          -1.0962    2.9980   -0.8124 C.3     1  UNL1       -0.0585
     29 C          -2.1063    2.0223   -2.8482 C.3     1  UNL1       -0.0585
     30 C          -0.3472    0.6919    1.4394 C.ar    1  UNL1       -0.0217
     31 C           0.8589    0.9519    2.0497 C.ar    1  UNL1        0.0317
     32 N           1.9502    0.1765    1.9370 N.ar    1  UNL1       -0.2372
     33 C           1.8839   -0.9463    1.1745 C.ar    1  UNL1        0.1427
     34 C           5.3463    0.1813    0.8797 C.ar    1  UNL1       -0.0534
     35 C           6.1934    0.9856    0.1572 C.ar    1  UNL1       -0.0196
     36 H           8.9765   -0.0706   -2.6596 H       1  UNL1        0.0660
     37 H           8.9984    1.6755   -3.2173 H       1  UNL1        0.0660
     38 H           7.6109    0.6243   -3.6389 H       1  UNL1        0.0660
     39 H           7.1015   -1.2607   -2.2148 H       1  UNL1        0.0654
     40 H           5.5667   -2.6616   -0.8838 H       1  UNL1        0.0622
     41 H           4.4829   -3.0014    1.4252 H       1  UNL1        0.0542
     42 H           4.1901   -1.5913    2.4481 H       1  UNL1        0.0542
     43 H           2.7311   -3.6558   -0.3310 H       1  UNL1        0.0810
     44 H           0.1641   -2.8894   -0.7417 H       1  UNL1        0.0640
     45 H          -1.6391   -1.7081   -0.5278 H       1  UNL1        0.1522
     46 H          -3.9733   -1.3052    1.1386 H       1  UNL1        0.0658
     47 H          -8.7809    1.0119    3.1721 H       1  UNL1        0.0830
     48 H          -9.5260   -1.2757    2.9040 H       1  UNL1        0.0634
     49 H          -8.2223   -2.8881    1.5194 H       1  UNL1        0.0647
     50 H          -3.9496    2.9303   -1.3194 H       1  UNL1        0.0833
     51 H          -0.8179    0.9868   -1.4802 H       1  UNL1        0.0344
     52 H          -1.7496    3.3191    0.0235 H       1  UNL1        0.0235
     53 H          -0.0740    2.8503   -0.4211 H       1  UNL1        0.0235
     54 H          -0.9962    3.7923   -1.5867 H       1  UNL1        0.0235
     55 H          -1.2930    1.7610   -3.5585 H       1  UNL1        0.0235
     56 H          -3.0289    1.4780   -3.0893 H       1  UNL1        0.0235
     57 H          -2.3295    3.0928   -2.9851 H       1  UNL1        0.0235
     58 H          -1.2012    1.3700    1.5760 H       1  UNL1        0.0651
     59 H           0.9347    1.8550    2.6727 H       1  UNL1        0.0831
     60 H           4.8585    0.6237    1.7621 H       1  UNL1        0.0622
     61 H           6.3818    2.0047    0.4325 H       1  UNL1        0.0654
@<TRIPOS>BOND
     1     1     2    1
     2     2     3    1
     3     3     4   ar
     4     4     5   ar
     5     5     6   ar
     6     6     7    1
     7     7     8    1
     8     8     9   ar
     9     9    10   ar
    10    10    11   ar
    11    11    12   ar
    12    12    13    1
    13    13    14    1
    14    14    15   ar
    15    15    16   ar
    16    16    17    1
    17    17    18   ar
    18    18    19   ar
    19    19    20   ar
    20    20    21   ar
    21    21    22   ar
    22    22    23    1
    23    16    24   ar
    24    24    25   ar
    25    25    26   ar
    26    26    27    1
    27    27    28    1
    28    27    29    1
    29    12    30   ar
    30    30    31   ar
    31    31    32   ar
    32    32    33   ar
    33     6    34   ar
    34    34    35   ar
    35    35     3   ar
    36    33     8   ar
    37    33    11   ar
    38    26    14   ar
    39    22    17   ar
    40     1    36    1
    41     1    37    1
    42     1    38    1
    43     4    39    1
    44     5    40    1
    45     7    41    1
    46     7    42    1
    47     9    43    1
    48    10    44    1
    49    13    45    1
    50    15    46    1
    51    19    47    1
    52    20    48    1
    53    21    49    1
    54    25    50    1
    55    27    51    1
    56    28    52    1
    57    28    53    1
    58    28    54    1
    59    29    55    1
    60    29    56    1
    61    29    57    1
    62    30    58    1
    63    31    59    1
    64    34    60    1
    65    35    61    1
