@<TRIPOS>MOLECULE
*****
 52 55 0 0 0
SMALL
GASTEIGER

@<TRIPOS>ATOM
      1 C           7.3046   -1.2014    2.5841 C.3     1  UNL1       -0.0223
      2 C           6.5278   -0.6159    1.4682 C.ar    1  UNL1        0.0393
      3 C           5.2377   -1.0109    1.2820 C.ar    1  UNL1       -0.0337
      4 C           4.4727   -0.4951    0.2570 C.ar    1  UNL1        0.0004
      5 C           3.0710   -0.8966    0.0207 C.3     1  UNL1        0.1153
      6 O           2.1695    0.1027    0.4606 O.3     1  UNL1       -0.4874
      7 C           0.8078   -0.1256    0.3072 C.ar    1  UNL1        0.1210
      8 C           0.3287   -1.2923   -0.2581 C.ar    1  UNL1       -0.0192
      9 C          -1.0501   -1.4419   -0.3750 C.ar    1  UNL1       -0.0462
     10 C          -1.9237   -0.4758    0.0503 C.ar    1  UNL1        0.0370
     11 C          -3.3416   -0.6608   -0.0846 C.2     1  UNL1        0.2452
     12 O          -3.7642   -1.7464   -0.6126 O.2     1  UNL1       -0.2702
     13 N          -4.3448    0.2621    0.3188 N.am    1  UNL1       -0.2904
     14 C          -5.7575   -0.0116    0.1420 C.3     1  UNL1        0.1855
     15 C          -6.1826   -1.2698    0.8915 C.3     1  UNL1       -0.0263
     16 C          -6.1183   -0.1194   -1.2946 C.2     1  UNL1        0.2528
     17 O          -5.3026   -0.2272   -2.2201 O.2     1  UNL1       -0.2725
     18 N          -7.5268   -0.0936   -1.5990 N.am    1  UNL1       -0.2377
     19 C          -8.4388    0.5512   -0.7224 C.2     1  UNL1        0.3123
     20 O          -9.6860    0.6021   -0.9443 O.2     1  UNL1       -0.2520
     21 N          -7.9298    1.1706    0.4627 N.am    1  UNL1       -0.2377
     22 C          -6.5342    1.1134    0.7105 C.2     1  UNL1        0.2528
     23 O          -5.9691    1.9813    1.3867 O.2     1  UNL1       -0.2725
     24 C          -1.4194    0.6720    0.6077 C.ar    1  UNL1       -0.0462
     25 C          -0.0467    0.8708    0.7475 C.ar    1  UNL1       -0.0192
     26 C           5.0699    0.4454   -0.5806 C.ar    1  UNL1        0.0068
     27 C           4.3808    0.9998   -1.6136 C.ar    1  UNL1       -0.0522
     28 C           4.9557    1.9301   -2.4506 C.ar    1  UNL1       -0.0611
     29 C           6.2651    2.3078   -2.2332 C.ar    1  UNL1       -0.0597
     30 C           6.9641    1.7427   -1.1821 C.ar    1  UNL1       -0.0357
     31 C           6.3806    0.8019   -0.3368 C.ar    1  UNL1        0.0716
     32 N           7.1010    0.2868    0.6642 N.ar    1  UNL1       -0.2519
     33 H           6.8925   -2.1960    2.8715 H       1  UNL1        0.0292
     34 H           7.2603   -0.5274    3.4404 H       1  UNL1        0.0292
     35 H           8.3637   -1.2860    2.2341 H       1  UNL1        0.0292
     36 H           4.7929   -1.7438    1.9453 H       1  UNL1        0.0639
     37 H           2.8783   -1.2088   -1.0246 H       1  UNL1        0.0748
     38 H           2.8792   -1.7953    0.6488 H       1  UNL1        0.0748
     39 H           1.0486   -2.0232   -0.5779 H       1  UNL1        0.0654
     40 H          -1.3901   -2.3724   -0.8247 H       1  UNL1        0.0626
     41 H          -4.0216    1.1544    0.7522 H       1  UNL1        0.1505
     42 H          -7.2207   -1.1857    1.2586 H       1  UNL1        0.0260
     43 H          -5.9939   -2.1824    0.2944 H       1  UNL1        0.0260
     44 H          -5.5113   -1.3287    1.7869 H       1  UNL1        0.0260
     45 H          -7.8836   -0.5510   -2.4691 H       1  UNL1        0.1591
     46 H          -8.5746    1.6528    1.1274 H       1  UNL1        0.1591
     47 H          -2.0409    1.4806    0.9673 H       1  UNL1        0.0626
     48 H           0.3217    1.7828    1.1894 H       1  UNL1        0.0654
     49 H           3.3592    0.7075   -1.7862 H       1  UNL1        0.0624
     50 H           4.4303    2.3854   -3.2782 H       1  UNL1        0.0618
     51 H           6.7297    3.0503   -2.8983 H       1  UNL1        0.0618
     52 H           7.9797    2.0305   -1.0075 H       1  UNL1        0.0639
@<TRIPOS>BOND
     1     1     2    1
     2     2     3   ar
     3     3     4   ar
     4     4     5    1
     5     5     6    1
     6     6     7    1
     7     7     8   ar
     8     8     9   ar
     9     9    10   ar
    10    10    11    1
    11    11    12    2
    12    11    13   am
    13    13    14    1
    14    14    15    1
    15    14    16    1
    16    16    17    2
    17    16    18   am
    18    18    19   am
    19    19    20    2
    20    19    21   am
    21    21    22   am
    22    22    23    2
    23    10    24   ar
    24    24    25   ar
    25     4    26   ar
    26    26    27   ar
    27    27    28   ar
    28    28    29   ar
    29    29    30   ar
    30    30    31   ar
    31    31    32   ar
    32    32     2   ar
    33    25     7   ar
    34    31    26   ar
    35    22    14    1
    36     1    33    1
    37     1    34    1
    38     1    35    1
    39     3    36    1
    40     5    37    1
    41     5    38    1
    42     8    39    1
    43     9    40    1
    44    13    41    1
    45    15    42    1
    46    15    43    1
    47    15    44    1
    48    18    45    1
    49    21    46    1
    50    24    47    1
    51    25    48    1
    52    27    49    1
    53    28    50    1
    54    29    51    1
    55    30    52    1
