
     RDKit          3D

 55 57  0  0  0  0  0  0  0  0999 V2000
    1.1487   -2.4384   -2.7888 C   0  0  0  0  0  0  0  0  0  0  0  0
    1.1786   -2.5268   -1.2363 C   0  0  0  0  0  0  0  0  0  0  0  0
    1.9962   -3.7617   -0.9278 C   0  0  0  0  0  0  0  0  0  0  0  0
    1.8735   -1.3241   -0.7570 C   0  0  0  0  0  0  0  0  0  0  0  0
    3.2752   -1.2651   -0.9203 C   0  0  0  0  0  0  0  0  0  0  0  0
    3.9001   -0.1378   -0.5497 N   0  0  0  0  0  0  0  0  0  0  0  0
    3.2811    0.9454   -0.0308 C   0  0  0  0  0  0  0  0  0  0  0  0
    4.0207    2.1370    0.3488 C   0  0  0  0  0  0  0  0  0  0  0  0
    3.4548    3.2660    0.8789 C   0  0  0  0  0  0  0  0  0  0  0  0
    4.2268    4.3760    1.2214 C   0  0  0  0  0  0  0  0  0  0  0  0
    3.5055    5.8103    1.8952 Cl  0  0  0  0  0  0  0  0  0  0  0  0
    5.5910    4.3517    1.0282 C   0  0  0  0  0  0  0  0  0  0  0  0
    6.1713    3.2257    0.4974 C   0  0  0  0  0  0  0  0  0  0  0  0
    5.3963    2.1394    0.1648 C   0  0  0  0  0  0  0  0  0  0  0  0
    6.0163    1.0536   -0.3551 F   0  0  0  0  0  0  0  0  0  0  0  0
    1.9129    0.8555    0.1170 C   0  0  0  0  0  0  0  0  0  0  0  0
    1.1896   -0.2701   -0.2383 C   0  0  0  0  0  0  0  0  0  0  0  0
   -0.2231   -0.3260   -0.0834 N   0  0  0  0  0  0  0  0  0  0  0  0
   -0.8636   -1.1774    0.8224 C   0  0  0  0  0  0  0  0  0  0  0  0
   -0.0371   -1.9395    1.6775 C   0  0  0  0  0  0  0  0  0  0  0  0
   -0.6022   -2.7795    2.5750 C   0  0  0  0  0  0  0  0  0  0  0  0
   -1.9289   -2.8709    2.6341 N   0  0  0  0  0  0  0  0  0  0  0  0
   -2.7425   -2.1486    1.8224 C   0  0  0  0  0  0  0  0  0  0  0  0
   -2.2265   -1.2606    0.8707 C   0  0  0  0  0  0  0  0  0  0  0  0
   -3.1687   -0.5483    0.0451 C   0  0  0  0  0  0  0  0  0  0  0  0
   -2.7669    0.2309   -0.8515 O   0  0  0  0  0  0  0  0  0  0  0  0
   -4.5801   -0.6470    0.1527 N   0  0  0  0  0  0  0  0  0  0  0  0
   -5.4760    0.1016   -0.7130 C   0  0  0  0  0  0  0  0  0  0  0  0
   -5.3081    1.5831   -0.5951 C   0  0  2  0  0  0  0  0  0  0  0  0
   -5.6972    1.9993    0.8309 C   0  0  0  0  0  0  0  0  0  0  0  0
   -6.1799    2.2747   -1.4347 O   0  0  0  0  0  0  0  0  0  0  0  0
    0.6207   -1.5322   -3.0939 H   0  0  0  0  0  0  0  0  0  0  0  0
    0.6568   -3.3828   -3.1025 H   0  0  0  0  0  0  0  0  0  0  0  0
    2.1973   -2.4947   -3.1562 H   0  0  0  0  0  0  0  0  0  0  0  0
    0.1294   -2.6253   -0.9729 H   0  0  0  0  0  0  0  0  0  0  0  0
    1.3932   -4.6890   -1.0338 H   0  0  0  0  0  0  0  0  0  0  0  0
    2.7928   -3.8277   -1.6967 H   0  0  0  0  0  0  0  0  0  0  0  0
    2.5118   -3.6947    0.0479 H   0  0  0  0  0  0  0  0  0  0  0  0
    3.8173   -2.1050   -1.3308 H   0  0  0  0  0  0  0  0  0  0  0  0
    2.3903    3.3192    1.0434 H   0  0  0  0  0  0  0  0  0  0  0  0
    6.2376    5.1895    1.2782 H   0  0  0  0  0  0  0  0  0  0  0  0
    7.2335    3.1620    0.3290 H   0  0  0  0  0  0  0  0  0  0  0  0
    1.3384    1.6751    0.5238 H   0  0  0  0  0  0  0  0  0  0  0  0
   -0.7411    0.3205   -0.6901 H   0  0  0  0  0  0  0  0  0  0  0  0
    1.0380   -1.8505    1.6134 H   0  0  0  0  0  0  0  0  0  0  0  0
    0.0617   -3.3483    3.2147 H   0  0  0  0  0  0  0  0  0  0  0  0
   -3.7869   -2.3166    1.9726 H   0  0  0  0  0  0  0  0  0  0  0  0
   -4.9751   -1.2725    0.8722 H   0  0  0  0  0  0  0  0  0  0  0  0
   -6.5306   -0.1756   -0.5405 H   0  0  0  0  0  0  0  0  0  0  0  0
   -5.2392   -0.1897   -1.7570 H   0  0  0  0  0  0  0  0  0  0  0  0
   -4.3102    1.9638   -0.7922 H   0  0  0  0  0  0  0  0  0  0  0  0
   -5.1879    2.9723    1.0518 H   0  0  0  0  0  0  0  0  0  0  0  0
   -5.4073    1.2536    1.5725 H   0  0  0  0  0  0  0  0  0  0  0  0
   -6.7906    2.2306    0.8500 H   0  0  0  0  0  0  0  0  0  0  0  0
   -5.7878    2.4897   -2.3037 H   0  0  0  0  0  0  0  0  0  0  0  0
  1  2  1  0
  2  3  1  0
  2  4  1  0
  4  5  2  0
  5  6  1  0
  6  7  2  0
  7  8  1  0
  8  9  2  0
  9 10  1  0
 10 11  1  0
 10 12  2  0
 12 13  1  0
 13 14  2  0
 14 15  1  0
  7 16  1  0
 16 17  2  0
 17 18  1  0
 18 19  1  0
 19 20  2  0
 20 21  1  0
 21 22  2  0
 22 23  1  0
 23 24  2  0
 24 25  1  0
 25 26  2  0
 25 27  1  0
 27 28  1  0
 28 29  1  0
 29 30  1  0
 29 31  1  0
 17  4  1  0
 24 19  1  0
 14  8  1  0
  1 32  1  0
  1 33  1  0
  1 34  1  0
  2 35  1  0
  3 36  1  0
  3 37  1  0
  3 38  1  0
  5 39  1  0
  9 40  1  0
 12 41  1  0
 13 42  1  0
 16 43  1  0
 18 44  1  0
 20 45  1  0
 21 46  1  0
 23 47  1  0
 27 48  1  0
 28 49  1  0
 28 50  1  0
 29 51  1  6
 30 52  1  0
 30 53  1  0
 30 54  1  0
 31 55  1  0
M  END
$$$$
