@<TRIPOS>MOLECULE
*****
 55 57 0 0 0
SMALL
GASTEIGER

@<TRIPOS>ATOM
      1 C           1.1487   -2.4384   -2.7888 C.3     1  UNL1       -0.0585
      2 C           1.1786   -2.5268   -1.2363 C.3     1  UNL1       -0.0183
      3 C           1.9962   -3.7617   -0.9278 C.3     1  UNL1       -0.0585
      4 C           1.8735   -1.3241   -0.7570 C.ar    1  UNL1       -0.0056
      5 C           3.2752   -1.2651   -0.9203 C.ar    1  UNL1        0.0334
      6 N           3.9001   -0.1378   -0.5497 N.ar    1  UNL1       -0.2545
      7 C           3.2811    0.9454   -0.0308 C.ar    1  UNL1        0.0755
      8 C           4.0207    2.1370    0.3488 C.ar    1  UNL1        0.0369
      9 C           3.4548    3.2660    0.8789 C.ar    1  UNL1       -0.0314
     10 C           4.2268    4.3760    1.2214 C.ar    1  UNL1        0.0418
     11 CL          3.5055    5.8103    1.8952 Cl      1  UNL1       -0.0835
     12 C           5.5910    4.3517    1.0282 C.ar    1  UNL1       -0.0406
     13 C           6.1713    3.2257    0.4974 C.ar    1  UNL1       -0.0244
     14 C           5.3963    2.1394    0.1648 C.ar    1  UNL1        0.1326
     15 F           6.0163    1.0536   -0.3551 F       1  UNL1       -0.2048
     16 C           1.9129    0.8555    0.1170 C.ar    1  UNL1       -0.0141
     17 C           1.1896   -0.2701   -0.2383 C.ar    1  UNL1        0.0383
     18 N          -0.2231   -0.3260   -0.0834 N.pl3   1  UNL1       -0.3135
     19 C          -0.8636   -1.1774    0.8224 C.ar    1  UNL1        0.0465
     20 C          -0.0371   -1.9395    1.6775 C.ar    1  UNL1       -0.0217
     21 C          -0.6022   -2.7795    2.5750 C.ar    1  UNL1        0.0293
     22 N          -1.9289   -2.8709    2.6341 N.ar    1  UNL1       -0.2624
     23 C          -2.7425   -2.1486    1.8224 C.ar    1  UNL1        0.0415
     24 C          -2.2265   -1.2606    0.8707 C.ar    1  UNL1        0.0758
     25 C          -3.1687   -0.5483    0.0451 C.2     1  UNL1        0.2474
     26 O          -2.7669    0.2309   -0.8515 O.2     1  UNL1       -0.2701
     27 N          -4.5801   -0.6470    0.1527 N.am    1  UNL1       -0.3088
     28 C          -5.4760    0.1016   -0.7130 C.3     1  UNL1        0.0377
     29 C          -5.3081    1.5831   -0.5951 C.3     1  UNL1        0.0679
     30 C          -5.6972    1.9993    0.8309 C.3     1  UNL1       -0.0375
     31 O          -6.1799    2.2747   -1.4347 O.3     1  UNL1       -0.3905
     32 H           0.6207   -1.5322   -3.0939 H       1  UNL1        0.0235
     33 H           0.6568   -3.3828   -3.1025 H       1  UNL1        0.0235
     34 H           2.1973   -2.4947   -3.1562 H       1  UNL1        0.0235
     35 H           0.1294   -2.6253   -0.9729 H       1  UNL1        0.0344
     36 H           1.3932   -4.6890   -1.0338 H       1  UNL1        0.0235
     37 H           2.7928   -3.8277   -1.6967 H       1  UNL1        0.0235
     38 H           2.5118   -3.6947    0.0479 H       1  UNL1        0.0235
     39 H           3.8173   -2.1050   -1.3308 H       1  UNL1        0.0833
     40 H           2.3903    3.3192    1.0434 H       1  UNL1        0.0639
     41 H           6.2376    5.1895    1.2782 H       1  UNL1        0.0633
     42 H           7.2335    3.1620    0.3290 H       1  UNL1        0.0647
     43 H           1.3384    1.6751    0.5238 H       1  UNL1        0.0658
     44 H          -0.7411    0.3205   -0.6901 H       1  UNL1        0.1522
     45 H           1.0380   -1.8505    1.6134 H       1  UNL1        0.0651
     46 H           0.0617   -3.3483    3.2147 H       1  UNL1        0.0830
     47 H          -3.7869   -2.3166    1.9726 H       1  UNL1        0.0838
     48 H          -4.9751   -1.2725    0.8722 H       1  UNL1        0.1491
     49 H          -6.5306   -0.1756   -0.5405 H       1  UNL1        0.0487
     50 H          -5.2392   -0.1897   -1.7570 H       1  UNL1        0.0487
     51 H          -4.3102    1.9638   -0.7922 H       1  UNL1        0.0606
     52 H          -5.1879    2.9723    1.0518 H       1  UNL1        0.0255
     53 H          -5.4073    1.2536    1.5725 H       1  UNL1        0.0255
     54 H          -6.7906    2.2306    0.8500 H       1  UNL1        0.0255
     55 H          -5.7878    2.4897   -2.3037 H       1  UNL1        0.2098
@<TRIPOS>BOND
     1     1     2    1
     2     2     3    1
     3     2     4    1
     4     4     5   ar
     5     5     6   ar
     6     6     7   ar
     7     7     8    1
     8     8     9   ar
     9     9    10   ar
    10    10    11    1
    11    10    12   ar
    12    12    13   ar
    13    13    14   ar
    14    14    15    1
    15     7    16   ar
    16    16    17   ar
    17    17    18    1
    18    18    19    1
    19    19    20   ar
    20    20    21   ar
    21    21    22   ar
    22    22    23   ar
    23    23    24   ar
    24    24    25    1
    25    25    26    2
    26    25    27   am
    27    27    28    1
    28    28    29    1
    29    29    30    1
    30    29    31    1
    31    17     4   ar
    32    24    19   ar
    33    14     8   ar
    34     1    32    1
    35     1    33    1
    36     1    34    1
    37     2    35    1
    38     3    36    1
    39     3    37    1
    40     3    38    1
    41     5    39    1
    42     9    40    1
    43    12    41    1
    44    13    42    1
    45    16    43    1
    46    18    44    1
    47    20    45    1
    48    21    46    1
    49    23    47    1
    50    27    48    1
    51    28    49    1
    52    28    50    1
    53    29    51    1
    54    30    52    1
    55    30    53    1
    56    30    54    1
    57    31    55    1
