@<TRIPOS>MOLECULE
*****
 65 69 0 0 0
SMALL
GASTEIGER

@<TRIPOS>ATOM
      1 C           0.0151   -0.2336   -0.8843 C.3     1  UNL1       -0.0268
      2 C           0.7858   -0.4977   -2.1284 C.3     1  UNL1       -0.0196
      3 C           2.1951   -0.5509   -1.5122 C.3     1  UNL1        0.0984
      4 O           2.5131    0.7340   -1.1305 O.3     1  UNL1       -0.3448
      5 C           2.9072    0.7251    0.1766 C.3     1  UNL1        0.1610
      6 C           4.3679    1.1215    0.3492 C.3     1  UNL1       -0.0018
      7 C           4.6178    2.5164   -0.1802 C.3     1  UNL1       -0.0513
      8 C           4.2918    2.6396   -1.6548 C.3     1  UNL1       -0.0651
      9 O           2.6195   -0.4791    0.7620 O.3     1  UNL1       -0.3342
     10 C           1.9752   -1.2730   -0.1749 C.3     1  UNL1        0.1637
     11 C           2.6155   -2.6070   -0.3483 C.2     1  UNL1        0.1931
     12 O           2.3833   -3.5783   -1.0868 O.2     1  UNL1       -0.2918
     13 C           3.8031   -2.9673    0.4951 C.3     1  UNL1        0.1053
     14 O           4.1441   -1.9438    1.3758 O.3     1  UNL1       -0.3874
     15 C           0.4971   -1.3240    0.0445 C.3     1  UNL1        0.0121
     16 C          -0.0453   -2.6836   -0.2697 C.3     1  UNL1       -0.0561
     17 C           0.0818   -0.8452    1.4185 C.3     1  UNL1       -0.0177
     18 C          -1.3618   -0.5285    1.5221 C.3     1  UNL1        0.0600
     19 O          -2.0940   -1.6732    1.7975 O.3     1  UNL1       -0.3914
     20 C          -1.8958    0.3094    0.4078 C.3     1  UNL1        0.0007
     21 C          -1.4510   -0.2944   -0.9277 C.3     1  UNL1       -0.0310
     22 C          -2.0787    0.4708   -2.0691 C.3     1  UNL1       -0.0458
     23 C          -3.5734    0.2957   -1.8747 C.3     1  UNL1       -0.0302
     24 C          -3.9396    1.1503   -0.7347 C.2     1  UNL1       -0.0559
     25 C          -4.6625    2.2506   -0.8748 C.2     1  UNL1       -0.0149
     26 C          -4.9313    2.9772    0.3621 C.2     1  UNL1        0.1787
     27 O          -5.6001    4.0171    0.3217 O.2     1  UNL1       -0.2879
     28 C          -4.4327    2.5123    1.6518 C.2     1  UNL1       -0.0180
     29 C          -3.7250    1.3940    1.6250 C.2     1  UNL1       -0.0701
     30 C          -3.3633    0.5391    0.4661 C.3     1  UNL1        0.0131
     31 C          -4.1378   -0.7635    0.6872 C.3     1  UNL1       -0.0520
     32 H           0.3940    0.7309   -0.4724 H       1  UNL1        0.0311
     33 H           0.7534    0.3689   -2.8195 H       1  UNL1        0.0294
     34 H           0.5287   -1.3968   -2.6821 H       1  UNL1        0.0294
     35 H           2.9246   -1.0360   -2.1542 H       1  UNL1        0.0630
     36 H           2.3325    1.5151    0.7034 H       1  UNL1        0.0910
     37 H           5.0627    0.4435   -0.1824 H       1  UNL1        0.0314
     38 H           4.6580    1.1447    1.4136 H       1  UNL1        0.0314
     39 H           5.6817    2.7463   -0.0325 H       1  UNL1        0.0264
     40 H           4.0476    3.2880    0.3730 H       1  UNL1        0.0264
     41 H           4.9967    3.3749   -2.1236 H       1  UNL1        0.0230
     42 H           3.2363    2.9340   -1.8008 H       1  UNL1        0.0230
     43 H           4.4505    1.6595   -2.1339 H       1  UNL1        0.0230
     44 H           4.6451   -3.2133   -0.1897 H       1  UNL1        0.0637
     45 H           3.5665   -3.9121    1.0435 H       1  UNL1        0.0637
     46 H           3.8315   -2.2357    2.2817 H       1  UNL1        0.2100
     47 H           0.0062   -2.9318   -1.3454 H       1  UNL1        0.0236
     48 H          -1.0941   -2.8539    0.0491 H       1  UNL1        0.0236
     49 H           0.5232   -3.4916    0.2669 H       1  UNL1        0.0236
     50 H           0.3409   -1.5552    2.2211 H       1  UNL1        0.0297
     51 H           0.6452    0.0877    1.6219 H       1  UNL1        0.0297
     52 H          -1.4653    0.1081    2.4516 H       1  UNL1        0.0596
     53 H          -1.8199   -1.9751    2.7072 H       1  UNL1        0.2098
     54 H          -1.3871    1.2952    0.4628 H       1  UNL1        0.0340
     55 H          -1.8760   -1.3099   -0.9691 H       1  UNL1        0.0308
     56 H          -1.8360    1.5425   -1.9047 H       1  UNL1        0.0271
     57 H          -1.6975    0.0705   -3.0107 H       1  UNL1        0.0271
     58 H          -3.7677   -0.7785   -1.7383 H       1  UNL1        0.0310
     59 H          -4.0325    0.6129   -2.8299 H       1  UNL1        0.0310
     60 H          -5.0158    2.5666   -1.8438 H       1  UNL1        0.0655
     61 H          -4.6015    3.0103    2.5960 H       1  UNL1        0.0653
     62 H          -3.3279    1.0016    2.5602 H       1  UNL1        0.0582
     63 H          -3.7217   -1.6096    0.1233 H       1  UNL1        0.0241
     64 H          -5.1827   -0.6459    0.2738 H       1  UNL1        0.0241
     65 H          -4.3205   -0.9657    1.7658 H       1  UNL1        0.0241
@<TRIPOS>BOND
     1     1     2    1
     2     2     3    1
     3     3     4    1
     4     4     5    1
     5     5     6    1
     6     6     7    1
     7     7     8    1
     8     5     9    1
     9     9    10    1
    10    10    11    1
    11    11    12    2
    12    11    13    1
    13    13    14    1
    14    10    15    1
    15    15    16    1
    16    15    17    1
    17    17    18    1
    18    18    19    1
    19    18    20    1
    20    20    21    1
    21    21    22    1
    22    22    23    1
    23    23    24    1
    24    24    25    2
    25    25    26    1
    26    26    27    2
    27    26    28    1
    28    28    29    2
    29    29    30    1
    30    30    31    1
    31    15     1    1
    32    30    20    1
    33    21     1    1
    34    30    24    1
    35    10     3    1
    36     1    32    1
    37     2    33    1
    38     2    34    1
    39     3    35    1
    40     5    36    1
    41     6    37    1
    42     6    38    1
    43     7    39    1
    44     7    40    1
    45     8    41    1
    46     8    42    1
    47     8    43    1
    48    13    44    1
    49    13    45    1
    50    14    46    1
    51    16    47    1
    52    16    48    1
    53    16    49    1
    54    17    50    1
    55    17    51    1
    56    18    52    1
    57    19    53    1
    58    20    54    1
    59    21    55    1
    60    22    56    1
    61    22    57    1
    62    23    58    1
    63    23    59    1
    64    25    60    1
    65    28    61    1
    66    29    62    1
    67    31    63    1
    68    31    64    1
    69    31    65    1
