@<TRIPOS>MOLECULE
*****
 63 65 0 0 0
SMALL
GASTEIGER

@<TRIPOS>ATOM
      1 C           3.8147    5.2851   -0.5194 C.3     1  UNL1        0.0788
      2 O           4.0431    4.4388    0.5826 O.3     1  UNL1       -0.4951
      3 C           3.7138    3.0971    0.4680 C.ar    1  UNL1        0.1203
      4 C           3.9118    2.2128    1.5092 C.ar    1  UNL1       -0.0165
      5 C           3.5783    0.8864    1.3758 C.ar    1  UNL1       -0.0165
      6 C           3.0269    0.3676    0.1914 C.ar    1  UNL1        0.1218
      7 O           2.7401   -0.9188    0.1529 O.3     1  UNL1       -0.4812
      8 C           2.2017   -1.8879   -0.6008 C.3     1  UNL1        0.1554
      9 C           2.3649   -3.2479    0.1564 C.3     1  UNL1       -0.0203
     10 C           2.6861   -2.1175   -1.9815 C.3     1  UNL1       -0.0203
     11 C           0.6702   -1.7048   -0.6673 C.3     1  UNL1        0.1991
     12 O           0.3494   -0.4895   -1.2238 O.3     1  UNL1       -0.3473
     13 C          -0.8561    0.0376   -0.7997 C.3     1  UNL1        0.0566
     14 C          -1.7658   -1.0809   -0.3362 C.3     1  UNL1        0.0165
     15 C          -3.0824   -0.5067    0.1384 C.3     1  UNL1       -0.0271
     16 C          -2.9553    0.4474    1.2507 C.2     1  UNL1       -0.0875
     17 C          -3.3542    1.6913    1.1260 C.2     1  UNL1       -0.0874
     18 C          -3.9583    2.3177   -0.0622 C.3     1  UNL1       -0.0247
     19 C          -3.1536    3.4866   -0.5973 C.3     1  UNL1        0.0482
     20 C          -3.0104    4.5807    0.3718 C.2     1  UNL1        0.3050
     21 O          -3.5361    4.5469    1.5139 O.2     1  UNL1       -0.2510
     22 O          -2.2669    5.7369    0.0644 O.3     1  UNL1       -0.4806
     23 C          -1.1224   -1.8506    0.7326 C.3     1  UNL1        0.0933
     24 C          -1.4202   -3.3013    0.7466 C.ar    1  UNL1       -0.0003
     25 C          -0.6715   -4.0870    1.6106 C.ar    1  UNL1       -0.0532
     26 C          -0.8673   -5.4518    1.7009 C.ar    1  UNL1       -0.0433
     27 C          -1.8328   -6.0136    0.9040 C.ar    1  UNL1        0.0276
     28 N          -2.5663   -5.2676    0.0624 N.ar    1  UNL1       -0.2629
     29 C          -2.3567   -3.9283   -0.0097 C.ar    1  UNL1        0.0332
     30 O           0.2607   -1.6899    0.6764 O.3     1  UNL1       -0.3393
     31 C           2.8462    1.2715   -0.8172 C.ar    1  UNL1       -0.0165
     32 C           3.1824    2.6167   -0.6860 C.ar    1  UNL1       -0.0165
     33 H           4.3786    4.8535   -1.3941 H       1  UNL1        0.0660
     34 H           4.2483    6.2796   -0.2731 H       1  UNL1        0.0660
     35 H           2.7693    5.3356   -0.8184 H       1  UNL1        0.0660
     36 H           4.3389    2.6148    2.4265 H       1  UNL1        0.0655
     37 H           3.7424    0.2155    2.2030 H       1  UNL1        0.0655
     38 H           3.3366   -3.6791   -0.0924 H       1  UNL1        0.0270
     39 H           2.1815   -3.0969    1.2343 H       1  UNL1        0.0270
     40 H           1.5589   -3.9024   -0.2296 H       1  UNL1        0.0270
     41 H           3.7301   -2.4733   -2.0500 H       1  UNL1        0.0270
     42 H           2.0676   -2.9582   -2.4168 H       1  UNL1        0.0270
     43 H           2.4825   -1.2537   -2.6447 H       1  UNL1        0.0270
     44 H           0.2368   -2.5678   -1.2126 H       1  UNL1        0.0951
     45 H          -1.3313    0.5268   -1.6889 H       1  UNL1        0.0564
     46 H          -0.7510    0.7812    0.0197 H       1  UNL1        0.0564
     47 H          -1.9964   -1.6621   -1.2606 H       1  UNL1        0.0354
     48 H          -3.6509   -1.4153    0.5250 H       1  UNL1        0.0312
     49 H          -3.6589   -0.1629   -0.7124 H       1  UNL1        0.0312
     50 H          -2.5199    0.1024    2.2071 H       1  UNL1        0.0569
     51 H          -3.2173    2.3290    2.0218 H       1  UNL1        0.0569
     52 H          -4.1731    1.6688   -0.9069 H       1  UNL1        0.0312
     53 H          -4.9708    2.7657    0.2074 H       1  UNL1        0.0312
     54 H          -3.6893    3.8782   -1.4848 H       1  UNL1        0.0380
     55 H          -2.1410    3.1603   -0.9248 H       1  UNL1        0.0380
     56 H          -2.4550    6.6105    0.5080 H       1  UNL1        0.2951
     57 H          -1.4237   -1.4715    1.7266 H       1  UNL1        0.0651
     58 H           0.0943   -3.6732    2.2512 H       1  UNL1        0.0622
     59 H          -0.3042   -6.0944    2.3610 H       1  UNL1        0.0633
     60 H          -2.0162   -7.0856    0.9470 H       1  UNL1        0.0829
     61 H          -2.9477   -3.3616   -0.6809 H       1  UNL1        0.0833
     62 H           2.4526    0.9736   -1.7603 H       1  UNL1        0.0655
     63 H           3.0145    3.2856   -1.5223 H       1  UNL1        0.0655
@<TRIPOS>BOND
     1     1     2    1
     2     2     3    1
     3     3     4   ar
     4     4     5   ar
     5     5     6   ar
     6     6     7    1
     7     7     8    1
     8     8     9    1
     9     8    10    1
    10     8    11    1
    11    11    12    1
    12    12    13    1
    13    13    14    1
    14    14    15    1
    15    15    16    1
    16    16    17    2
    17    17    18    1
    18    18    19    1
    19    19    20    1
    20    20    21    2
    21    20    22    1
    22    14    23    1
    23    23    24    1
    24    24    25   ar
    25    25    26   ar
    26    26    27   ar
    27    27    28   ar
    28    28    29   ar
    29    23    30    1
    30     6    31   ar
    31    31    32   ar
    32    32     3   ar
    33    30    11    1
    34    29    24   ar
    35     1    33    1
    36     1    34    1
    37     1    35    1
    38     4    36    1
    39     5    37    1
    40     9    38    1
    41     9    39    1
    42     9    40    1
    43    10    41    1
    44    10    42    1
    45    10    43    1
    46    11    44    1
    47    13    45    1
    48    13    46    1
    49    14    47    1
    50    15    48    1
    51    15    49    1
    52    16    50    1
    53    17    51    1
    54    18    52    1
    55    18    53    1
    56    19    54    1
    57    19    55    1
    58    22    56    1
    59    23    57    1
    60    25    58    1
    61    26    59    1
    62    27    60    1
    63    29    61    1
    64    31    62    1
    65    32    63    1
