
     RDKit          3D

 63 65  0  0  0  0  0  0  0  0999 V2000
    3.8147    5.2851   -0.5194 C   0  0  0  0  0  0  0  0  0  0  0  0
    4.0431    4.4388    0.5826 O   0  0  0  0  0  0  0  0  0  0  0  0
    3.7138    3.0971    0.4680 C   0  0  0  0  0  0  0  0  0  0  0  0
    3.9118    2.2128    1.5092 C   0  0  0  0  0  0  0  0  0  0  0  0
    3.5783    0.8864    1.3758 C   0  0  0  0  0  0  0  0  0  0  0  0
    3.0269    0.3676    0.1914 C   0  0  0  0  0  0  0  0  0  0  0  0
    2.7401   -0.9188    0.1529 O   0  0  0  0  0  0  0  0  0  0  0  0
    2.2017   -1.8879   -0.6008 C   0  0  0  0  0  0  0  0  0  0  0  0
    2.3649   -3.2479    0.1564 C   0  0  0  0  0  0  0  0  0  0  0  0
    2.6861   -2.1175   -1.9815 C   0  0  0  0  0  0  0  0  0  0  0  0
    0.6702   -1.7048   -0.6673 C   0  0  0  0  0  0  0  0  0  0  0  0
    0.3494   -0.4895   -1.2238 O   0  0  0  0  0  0  0  0  0  0  0  0
   -0.8561    0.0376   -0.7997 C   0  0  0  0  0  0  0  0  0  0  0  0
   -1.7658   -1.0809   -0.3362 C   0  0  0  0  0  0  0  0  0  0  0  0
   -3.0824   -0.5067    0.1384 C   0  0  0  0  0  0  0  0  0  0  0  0
   -2.9553    0.4474    1.2507 C   0  0  0  0  0  0  0  0  0  0  0  0
   -3.3542    1.6913    1.1260 C   0  0  0  0  0  0  0  0  0  0  0  0
   -3.9583    2.3177   -0.0622 C   0  0  0  0  0  0  0  0  0  0  0  0
   -3.1536    3.4866   -0.5973 C   0  0  0  0  0  0  0  0  0  0  0  0
   -3.0104    4.5807    0.3718 C   0  0  0  0  0  0  0  0  0  0  0  0
   -3.5361    4.5469    1.5139 O   0  0  0  0  0  0  0  0  0  0  0  0
   -2.2669    5.7369    0.0644 O   0  0  0  0  0  0  0  0  0  0  0  0
   -1.1224   -1.8506    0.7326 C   0  0  0  0  0  0  0  0  0  0  0  0
   -1.4202   -3.3013    0.7466 C   0  0  0  0  0  0  0  0  0  0  0  0
   -0.6715   -4.0870    1.6106 C   0  0  0  0  0  0  0  0  0  0  0  0
   -0.8673   -5.4518    1.7009 C   0  0  0  0  0  0  0  0  0  0  0  0
   -1.8328   -6.0136    0.9040 C   0  0  0  0  0  0  0  0  0  0  0  0
   -2.5663   -5.2676    0.0624 N   0  0  0  0  0  0  0  0  0  0  0  0
   -2.3567   -3.9283   -0.0097 C   0  0  0  0  0  0  0  0  0  0  0  0
    0.2607   -1.6899    0.6764 O   0  0  0  0  0  0  0  0  0  0  0  0
    2.8462    1.2715   -0.8172 C   0  0  0  0  0  0  0  0  0  0  0  0
    3.1824    2.6167   -0.6860 C   0  0  0  0  0  0  0  0  0  0  0  0
    4.3786    4.8535   -1.3941 H   0  0  0  0  0  0  0  0  0  0  0  0
    4.2483    6.2796   -0.2731 H   0  0  0  0  0  0  0  0  0  0  0  0
    2.7693    5.3356   -0.8184 H   0  0  0  0  0  0  0  0  0  0  0  0
    4.3389    2.6148    2.4265 H   0  0  0  0  0  0  0  0  0  0  0  0
    3.7424    0.2155    2.2030 H   0  0  0  0  0  0  0  0  0  0  0  0
    3.3366   -3.6791   -0.0924 H   0  0  0  0  0  0  0  0  0  0  0  0
    2.1815   -3.0969    1.2343 H   0  0  0  0  0  0  0  0  0  0  0  0
    1.5589   -3.9024   -0.2296 H   0  0  0  0  0  0  0  0  0  0  0  0
    3.7301   -2.4733   -2.0500 H   0  0  0  0  0  0  0  0  0  0  0  0
    2.0676   -2.9582   -2.4168 H   0  0  0  0  0  0  0  0  0  0  0  0
    2.4825   -1.2537   -2.6447 H   0  0  0  0  0  0  0  0  0  0  0  0
    0.2368   -2.5678   -1.2126 H   0  0  0  0  0  0  0  0  0  0  0  0
   -1.3313    0.5268   -1.6889 H   0  0  0  0  0  0  0  0  0  0  0  0
   -0.7510    0.7812    0.0197 H   0  0  0  0  0  0  0  0  0  0  0  0
   -1.9964   -1.6621   -1.2606 H   0  0  0  0  0  0  0  0  0  0  0  0
   -3.6509   -1.4153    0.5250 H   0  0  0  0  0  0  0  0  0  0  0  0
   -3.6589   -0.1629   -0.7124 H   0  0  0  0  0  0  0  0  0  0  0  0
   -2.5199    0.1024    2.2071 H   0  0  0  0  0  0  0  0  0  0  0  0
   -3.2173    2.3290    2.0218 H   0  0  0  0  0  0  0  0  0  0  0  0
   -4.1731    1.6688   -0.9069 H   0  0  0  0  0  0  0  0  0  0  0  0
   -4.9708    2.7657    0.2074 H   0  0  0  0  0  0  0  0  0  0  0  0
   -3.6893    3.8782   -1.4848 H   0  0  0  0  0  0  0  0  0  0  0  0
   -2.1410    3.1603   -0.9248 H   0  0  0  0  0  0  0  0  0  0  0  0
   -2.4550    6.6105    0.5080 H   0  0  0  0  0  0  0  0  0  0  0  0
   -1.4237   -1.4715    1.7266 H   0  0  0  0  0  0  0  0  0  0  0  0
    0.0943   -3.6732    2.2512 H   0  0  0  0  0  0  0  0  0  0  0  0
   -0.3042   -6.0944    2.3610 H   0  0  0  0  0  0  0  0  0  0  0  0
   -2.0162   -7.0856    0.9470 H   0  0  0  0  0  0  0  0  0  0  0  0
   -2.9477   -3.3616   -0.6809 H   0  0  0  0  0  0  0  0  0  0  0  0
    2.4526    0.9736   -1.7603 H   0  0  0  0  0  0  0  0  0  0  0  0
    3.0145    3.2856   -1.5223 H   0  0  0  0  0  0  0  0  0  0  0  0
  1  2  1  0
  2  3  1  0
  3  4  2  0
  4  5  1  0
  5  6  2  0
  6  7  1  0
  7  8  1  0
  8  9  1  0
  8 10  1  0
  8 11  1  0
 11 12  1  0
 12 13  1  0
 13 14  1  0
 14 15  1  0
 15 16  1  0
 16 17  2  0
 17 18  1  0
 18 19  1  0
 19 20  1  0
 20 21  2  0
 20 22  1  0
 14 23  1  0
 23 24  1  0
 24 25  2  0
 25 26  1  0
 26 27  2  0
 27 28  1  0
 28 29  2  0
 23 30  1  0
  6 31  1  0
 31 32  2  0
 32  3  1  0
 30 11  1  0
 29 24  1  0
  1 33  1  0
  1 34  1  0
  1 35  1  0
  4 36  1  0
  5 37  1  0
  9 38  1  0
  9 39  1  0
  9 40  1  0
 10 41  1  0
 10 42  1  0
 10 43  1  0
 11 44  1  0
 13 45  1  0
 13 46  1  0
 14 47  1  0
 15 48  1  0
 15 49  1  0
 16 50  1  0
 17 51  1  0
 18 52  1  0
 18 53  1  0
 19 54  1  0
 19 55  1  0
 22 56  1  0
 23 57  1  0
 25 58  1  0
 26 59  1  0
 27 60  1  0
 29 61  1  0
 31 62  1  0
 32 63  1  0
M  END
$$$$
