@<TRIPOS>MOLECULE
*****
 50 54 0 0 0
SMALL
GASTEIGER

@<TRIPOS>ATOM
      1 CL          5.7765   -4.2371    2.8139 Cl      1  UNL1       -0.0835
      2 C           5.0584   -2.9289    1.9022 C.ar    1  UNL1        0.0410
      3 C           4.4275   -3.1503    0.6935 C.ar    1  UNL1       -0.0427
      4 C           3.8677   -2.0767    0.0025 C.ar    1  UNL1       -0.0497
      5 C           3.9326   -0.7865    0.5079 C.ar    1  UNL1        0.0174
      6 C           3.3426    0.3299   -0.2188 C.ar    1  UNL1        0.1358
      7 C           3.3633    1.6413    0.2085 C.ar    1  UNL1       -0.0152
      8 C           2.7107    2.4003   -0.7349 C.ar    1  UNL1       -0.0122
      9 C           2.3052    1.5045   -1.7291 C.ar    1  UNL1        0.1711
     10 C           1.5714    1.8433   -2.9439 C.ar    1  UNL1        0.1811
     11 N           2.0419    2.3354   -4.1041 N.ar    1  UNL1       -0.2328
     12 C           1.0339    2.5108   -4.9850 C.ar    1  UNL1        0.0465
     13 C          -0.0994    2.1111   -4.3407 C.ar    1  UNL1        0.0299
     14 N           0.2318    1.7080   -3.1051 N.ar    1  UNL1       -0.2970
     15 C          -0.6278    1.2105   -2.0840 C.ar    1  UNL1        0.0482
     16 C          -1.1639   -0.0615   -2.1910 C.ar    1  UNL1       -0.0361
     17 C          -1.9985   -0.5922   -1.2358 C.ar    1  UNL1       -0.0387
     18 C          -2.3483    0.1379   -0.0977 C.ar    1  UNL1        0.0299
     19 N          -3.2038   -0.4269    0.8555 N.pl3   1  UNL1       -0.3275
     20 C          -3.4539    0.2385    2.1112 C.3     1  UNL1        0.0248
     21 C          -3.6514   -0.8149    3.1957 C.3     1  UNL1        0.0117
     22 N          -4.7966   -1.6265    2.9263 N.3     1  UNL1       -0.3130
     23 C          -5.1473   -1.6552    1.5175 C.3     1  UNL1        0.0117
     24 C          -3.8924   -1.6928    0.6549 C.3     1  UNL1        0.0248
     25 C          -1.8182    1.3921    0.0045 C.ar    1  UNL1       -0.0387
     26 C          -0.9791    1.9249   -0.9564 C.ar    1  UNL1       -0.0361
     27 O           2.7057    0.3186   -1.3643 O.2     1  UNL1       -0.4518
     28 C           4.5633   -0.5830    1.7109 C.ar    1  UNL1       -0.0497
     29 C           5.1176   -1.6382    2.3969 C.ar    1  UNL1       -0.0427
     30 H           4.3897   -4.1615    0.3194 H       1  UNL1        0.0632
     31 H           3.3822   -2.2754   -0.9366 H       1  UNL1        0.0625
     32 H           3.8266    1.9842    1.1402 H       1  UNL1        0.0656
     33 H           2.5600    3.4678   -0.6875 H       1  UNL1        0.0657
     34 H           1.0638    2.8889   -6.0056 H       1  UNL1        0.0845
     35 H          -1.0924    2.1154   -4.7480 H       1  UNL1        0.0829
     36 H          -0.9519   -0.7131   -3.0418 H       1  UNL1        0.0639
     37 H          -2.4217   -1.5835   -1.3106 H       1  UNL1        0.0637
     38 H          -4.4626    0.7288    2.0128 H       1  UNL1        0.0476
     39 H          -2.6736    0.9316    2.4189 H       1  UNL1        0.0476
     40 H          -3.7675   -0.3509    4.1867 H       1  UNL1        0.0439
     41 H          -2.7352   -1.4600    3.2240 H       1  UNL1        0.0439
     42 H          -4.6742   -2.5893    3.3226 H       1  UNL1        0.1220
     43 H          -5.7524   -0.7678    1.2929 H       1  UNL1        0.0439
     44 H          -5.7323   -2.5877    1.3531 H       1  UNL1        0.0439
     45 H          -3.2332   -2.5087    0.9433 H       1  UNL1        0.0476
     46 H          -4.2193   -1.8381   -0.4008 H       1  UNL1        0.0476
     47 H          -2.0575    1.9980    0.8576 H       1  UNL1        0.0637
     48 H          -0.5756    2.9248   -0.8456 H       1  UNL1        0.0639
     49 H           4.6413    0.3986    2.1455 H       1  UNL1        0.0625
     50 H           5.6162   -1.4670    3.3482 H       1  UNL1        0.0632
@<TRIPOS>BOND
     1     1     2    1
     2     2     3   ar
     3     3     4   ar
     4     4     5   ar
     5     5     6    1
     6     6     7   ar
     7     7     8   ar
     8     8     9   ar
     9     9    10    1
    10    10    11   ar
    11    11    12   ar
    12    12    13   ar
    13    13    14   ar
    14    14    15    1
    15    15    16   ar
    16    16    17   ar
    17    17    18   ar
    18    18    19    1
    19    19    20    1
    20    20    21    1
    21    21    22    1
    22    22    23    1
    23    23    24    1
    24    18    25   ar
    25    25    26   ar
    26     9    27   ar
    27     5    28   ar
    28    28    29   ar
    29    29     2   ar
    30    27     6   ar
    31    14    10   ar
    32    26    15   ar
    33    24    19    1
    34     3    30    1
    35     4    31    1
    36     7    32    1
    37     8    33    1
    38    12    34    1
    39    13    35    1
    40    16    36    1
    41    17    37    1
    42    20    38    1
    43    20    39    1
    44    21    40    1
    45    21    41    1
    46    22    42    1
    47    23    43    1
    48    23    44    1
    49    24    45    1
    50    24    46    1
    51    25    47    1
    52    26    48    1
    53    28    49    1
    54    29    50    1
