
     RDKit          3D

 50 54  0  0  0  0  0  0  0  0999 V2000
    5.7765   -4.2371    2.8139 Cl  0  0  0  0  0  0  0  0  0  0  0  0
    5.0584   -2.9289    1.9022 C   0  0  0  0  0  0  0  0  0  0  0  0
    4.4275   -3.1503    0.6935 C   0  0  0  0  0  0  0  0  0  0  0  0
    3.8677   -2.0767    0.0025 C   0  0  0  0  0  0  0  0  0  0  0  0
    3.9326   -0.7865    0.5079 C   0  0  0  0  0  0  0  0  0  0  0  0
    3.3426    0.3299   -0.2188 C   0  0  0  0  0  0  0  0  0  0  0  0
    3.3633    1.6413    0.2085 C   0  0  0  0  0  0  0  0  0  0  0  0
    2.7107    2.4003   -0.7349 C   0  0  0  0  0  0  0  0  0  0  0  0
    2.3052    1.5045   -1.7291 C   0  0  0  0  0  0  0  0  0  0  0  0
    1.5714    1.8433   -2.9439 C   0  0  0  0  0  0  0  0  0  0  0  0
    2.0419    2.3354   -4.1041 N   0  0  0  0  0  0  0  0  0  0  0  0
    1.0339    2.5108   -4.9850 C   0  0  0  0  0  0  0  0  0  0  0  0
   -0.0994    2.1111   -4.3407 C   0  0  0  0  0  0  0  0  0  0  0  0
    0.2318    1.7080   -3.1051 N   0  0  0  0  0  0  0  0  0  0  0  0
   -0.6278    1.2105   -2.0840 C   0  0  0  0  0  0  0  0  0  0  0  0
   -1.1639   -0.0615   -2.1910 C   0  0  0  0  0  0  0  0  0  0  0  0
   -1.9985   -0.5922   -1.2358 C   0  0  0  0  0  0  0  0  0  0  0  0
   -2.3483    0.1379   -0.0977 C   0  0  0  0  0  0  0  0  0  0  0  0
   -3.2038   -0.4269    0.8555 N   0  0  0  0  0  0  0  0  0  0  0  0
   -3.4539    0.2385    2.1112 C   0  0  0  0  0  0  0  0  0  0  0  0
   -3.6514   -0.8149    3.1957 C   0  0  0  0  0  0  0  0  0  0  0  0
   -4.7966   -1.6265    2.9263 N   0  0  0  0  0  0  0  0  0  0  0  0
   -5.1473   -1.6552    1.5175 C   0  0  0  0  0  0  0  0  0  0  0  0
   -3.8924   -1.6928    0.6549 C   0  0  0  0  0  0  0  0  0  0  0  0
   -1.8182    1.3921    0.0045 C   0  0  0  0  0  0  0  0  0  0  0  0
   -0.9791    1.9249   -0.9564 C   0  0  0  0  0  0  0  0  0  0  0  0
    2.7057    0.3186   -1.3643 O   0  0  0  0  0  0  0  0  0  0  0  0
    4.5633   -0.5830    1.7109 C   0  0  0  0  0  0  0  0  0  0  0  0
    5.1176   -1.6382    2.3969 C   0  0  0  0  0  0  0  0  0  0  0  0
    4.3897   -4.1615    0.3194 H   0  0  0  0  0  0  0  0  0  0  0  0
    3.3822   -2.2754   -0.9366 H   0  0  0  0  0  0  0  0  0  0  0  0
    3.8266    1.9842    1.1402 H   0  0  0  0  0  0  0  0  0  0  0  0
    2.5600    3.4678   -0.6875 H   0  0  0  0  0  0  0  0  0  0  0  0
    1.0638    2.8889   -6.0056 H   0  0  0  0  0  0  0  0  0  0  0  0
   -1.0924    2.1154   -4.7480 H   0  0  0  0  0  0  0  0  0  0  0  0
   -0.9519   -0.7131   -3.0418 H   0  0  0  0  0  0  0  0  0  0  0  0
   -2.4217   -1.5835   -1.3106 H   0  0  0  0  0  0  0  0  0  0  0  0
   -4.4626    0.7288    2.0128 H   0  0  0  0  0  0  0  0  0  0  0  0
   -2.6736    0.9316    2.4189 H   0  0  0  0  0  0  0  0  0  0  0  0
   -3.7675   -0.3509    4.1867 H   0  0  0  0  0  0  0  0  0  0  0  0
   -2.7352   -1.4600    3.2240 H   0  0  0  0  0  0  0  0  0  0  0  0
   -4.6742   -2.5893    3.3226 H   0  0  0  0  0  0  0  0  0  0  0  0
   -5.7524   -0.7678    1.2929 H   0  0  0  0  0  0  0  0  0  0  0  0
   -5.7323   -2.5877    1.3531 H   0  0  0  0  0  0  0  0  0  0  0  0
   -3.2332   -2.5087    0.9433 H   0  0  0  0  0  0  0  0  0  0  0  0
   -4.2193   -1.8381   -0.4008 H   0  0  0  0  0  0  0  0  0  0  0  0
   -2.0575    1.9980    0.8576 H   0  0  0  0  0  0  0  0  0  0  0  0
   -0.5756    2.9248   -0.8456 H   0  0  0  0  0  0  0  0  0  0  0  0
    4.6413    0.3986    2.1455 H   0  0  0  0  0  0  0  0  0  0  0  0
    5.6162   -1.4670    3.3482 H   0  0  0  0  0  0  0  0  0  0  0  0
  1  2  1  0
  2  3  2  0
  3  4  1  0
  4  5  2  0
  5  6  1  0
  6  7  2  0
  7  8  1  0
  8  9  2  0
  9 10  1  0
 10 11  2  0
 11 12  1  0
 12 13  2  0
 13 14  1  0
 14 15  1  0
 15 16  2  0
 16 17  1  0
 17 18  2  0
 18 19  1  0
 19 20  1  0
 20 21  1  0
 21 22  1  0
 22 23  1  0
 23 24  1  0
 18 25  1  0
 25 26  2  0
  9 27  1  0
  5 28  1  0
 28 29  2  0
 29  2  1  0
 27  6  1  0
 14 10  1  0
 26 15  1  0
 24 19  1  0
  3 30  1  0
  4 31  1  0
  7 32  1  0
  8 33  1  0
 12 34  1  0
 13 35  1  0
 16 36  1  0
 17 37  1  0
 20 38  1  0
 20 39  1  0
 21 40  1  0
 21 41  1  0
 22 42  1  0
 23 43  1  0
 23 44  1  0
 24 45  1  0
 24 46  1  0
 25 47  1  0
 26 48  1  0
 28 49  1  0
 29 50  1  0
M  END
$$$$
