@<TRIPOS>MOLECULE
*****
 24 25 0 0 0
SMALL
GASTEIGER

@<TRIPOS>ATOM
      1 C          -0.4320    0.2873    0.5694 C.3     1  UNL1        0.1345
      2 O          -0.2415   -0.9776    1.0922 O.3     1  UNL1       -0.3659
      3 C           1.1400   -1.0233    1.2764 C.3     1  UNL1        0.0947
      4 C           1.7058   -0.4519    0.0220 C.3     1  UNL1        0.2283
      5 O           2.8380    0.3412    0.2069 O.2     1  UNL1       -0.2081
      6 N           4.0774    0.1867   -0.3043 N.pl3   1  UNL1        0.2847
      7 O           3.9860    0.6013   -1.6316 O.co2   1  UNL1       -0.5338
      8 O           5.1576   -0.2325    0.2134 O.2     1  UNL1        0.0934
      9 C           0.5426    0.2668   -0.5988 C.3     1  UNL1        0.1345
     10 O          -0.0580   -0.4659   -1.5983 O.3     1  UNL1       -0.3659
     11 C          -1.3941   -0.6716   -1.2809 C.3     1  UNL1        0.0947
     12 C          -1.7353    0.3722   -0.2373 C.3     1  UNL1        0.2283
     13 O          -2.8630    0.0653    0.5145 O.2     1  UNL1       -0.2081
     14 N          -3.8678    0.9936    0.6222 N.pl3   1  UNL1        0.2847
     15 O          -4.3310    2.0642   -0.1233 O.co2   1  UNL1       -0.5338
     16 O          -4.5726    0.8664    1.6605 O.2     1  UNL1        0.0934
     17 H          -0.2951    1.1173    1.2523 H       1  UNL1        0.0664
     18 H           1.3672   -0.3845    2.1541 H       1  UNL1        0.0600
     19 H           1.5077   -2.0658    1.4180 H       1  UNL1        0.0600
     20 H           1.9786   -1.2922   -0.6533 H       1  UNL1        0.0858
     21 H           0.7206    1.2965   -0.8959 H       1  UNL1        0.0664
     22 H          -1.4914   -1.6705   -0.7753 H       1  UNL1        0.0600
     23 H          -1.9935   -0.5951   -2.2036 H       1  UNL1        0.0600
     24 H          -1.7463    1.3720   -0.6994 H       1  UNL1        0.0858
@<TRIPOS>UNITY_ATOM_ATTR
6 1
charge 1
7 1
charge -1
14 1
charge 1
15 1
charge -1
@<TRIPOS>BOND
     1     1     2    1
     2     2     3    1
     3     3     4    1
     4     4     5    1
     5     5     6    1
     6     6     7    1
     7     6     8    2
     8     4     9    1
     9     9    10    1
    10    10    11    1
    11    11    12    1
    12    12    13    1
    13    13    14    1
    14    14    15    1
    15    14    16    2
    16     9     1    1
    17    12     1    1
    18     1    17    1
    19     3    18    1
    20     3    19    1
    21     4    20    1
    22     9    21    1
    23    11    22    1
    24    11    23    1
    25    12    24    1
