@<TRIPOS>MOLECULE
*****
 52 56 0 0 0
SMALL
GASTEIGER

@<TRIPOS>ATOM
      1 F          -1.8528    2.1431    3.5541 F       1  UNL1       -0.1657
      2 C          -0.7922    1.6431    2.7593 C.3     1  UNL1        0.4226
      3 F          -0.1501    0.7141    3.5298 F       1  UNL1       -0.1657
      4 F          -0.0398    2.7849    2.5157 F       1  UNL1       -0.1657
      5 C          -1.3777    1.0652    1.5337 C.ar    1  UNL1        0.1202
      6 C          -0.6044    0.4550    0.6094 C.ar    1  UNL1        0.0465
      7 N           0.7748    0.2995    0.7202 N.pl3   1  UNL1       -0.3293
      8 C           1.6316    1.4673    0.6185 C.3     1  UNL1        0.0127
      9 C           2.7863    1.1479   -0.3691 C.3     1  UNL1       -0.0303
     10 C           3.4759   -0.0571    0.2285 C.3     1  UNL1       -0.0130
     11 C           4.8322   -0.2586   -0.2237 C.ar    1  UNL1       -0.0442
     12 C           5.8839   -0.2469    0.6598 C.ar    1  UNL1       -0.0583
     13 C           7.2016   -0.4428    0.2196 C.ar    1  UNL1       -0.0615
     14 C           7.4394   -0.6494   -1.1182 C.ar    1  UNL1       -0.0617
     15 C           6.4052   -0.6648   -2.0160 C.ar    1  UNL1       -0.0615
     16 C           5.1119   -0.4681   -1.5517 C.ar    1  UNL1       -0.0583
     17 C           2.5498   -1.2232   -0.0156 C.3     1  UNL1       -0.0303
     18 C           1.3456   -1.0253    0.9215 C.3     1  UNL1        0.0127
     19 C          -1.2429   -0.0589   -0.5303 C.ar    1  UNL1       -0.0234
     20 C          -2.6030    0.0546   -0.6983 C.ar    1  UNL1        0.0147
     21 N          -3.3574    0.6645    0.2312 N.ar    1  UNL1       -0.2858
     22 C          -4.6865    0.9021    0.3041 C.ar    1  UNL1        0.1380
     23 C          -5.7435    0.5468   -0.6549 C.3     1  UNL1        0.0106
     24 C          -6.3212   -0.8183   -0.3514 C.3     1  UNL1       -0.0341
     25 C          -7.3999   -1.3637   -1.2008 C.3     1  UNL1       -0.0496
     26 C          -5.9856   -1.8787   -1.3644 C.3     1  UNL1       -0.0496
     27 N          -4.8859    1.5506    1.4609 N.ar    1  UNL1       -0.1337
     28 N          -3.7315    1.7169    2.0946 N.ar    1  UNL1       -0.1288
     29 C          -2.7690    1.1638    1.3293 C.ar    1  UNL1        0.1746
     30 H           2.1406    1.7392    1.5410 H       1  UNL1        0.0464
     31 H           1.1448    2.3460    0.1696 H       1  UNL1        0.0464
     32 H           3.3878    2.0468   -0.4091 H       1  UNL1        0.0286
     33 H           2.3816    0.8637   -1.3589 H       1  UNL1        0.0286
     34 H           3.4737    0.0952    1.3450 H       1  UNL1        0.0350
     35 H           5.7700   -0.0928    1.7062 H       1  UNL1        0.0620
     36 H           8.0255   -0.4313    0.9297 H       1  UNL1        0.0618
     37 H           8.4786   -0.8016   -1.4488 H       1  UNL1        0.0618
     38 H           6.6248   -0.8295   -3.0605 H       1  UNL1        0.0618
     39 H           4.3168   -0.4810   -2.2495 H       1  UNL1        0.0620
     40 H           2.9735   -2.1887    0.2429 H       1  UNL1        0.0286
     41 H           2.1985   -1.1499   -1.0666 H       1  UNL1        0.0286
     42 H           0.5766   -1.7698    0.6391 H       1  UNL1        0.0464
     43 H           1.7418   -1.1723    1.9451 H       1  UNL1        0.0464
     44 H          -0.6427   -0.5552   -1.2906 H       1  UNL1        0.0651
     45 H          -3.1229   -0.3342   -1.5709 H       1  UNL1        0.0814
     46 H          -5.3968    0.6059   -1.7106 H       1  UNL1        0.0347
     47 H          -6.5614    1.2855   -0.5628 H       1  UNL1        0.0347
     48 H          -6.3010   -1.0918    0.7103 H       1  UNL1        0.0305
     49 H          -8.1095   -2.1030   -0.7875 H       1  UNL1        0.0268
     50 H          -7.7960   -0.6650   -1.9700 H       1  UNL1        0.0268
     51 H          -5.4691   -1.5846   -2.3053 H       1  UNL1        0.0268
     52 H          -5.7298   -2.8949   -1.0135 H       1  UNL1        0.0268
@<TRIPOS>BOND
     1     1     2    1
     2     2     3    1
     3     2     4    1
     4     2     5    1
     5     5     6   ar
     6     6     7    1
     7     7     8    1
     8     8     9    1
     9     9    10    1
    10    10    11    1
    11    11    12   ar
    12    12    13   ar
    13    13    14   ar
    14    14    15   ar
    15    15    16   ar
    16    10    17    1
    17    17    18    1
    18     6    19   ar
    19    19    20   ar
    20    20    21   ar
    21    21    22   ar
    22    22    23    1
    23    23    24    1
    24    24    25    1
    25    25    26    1
    26    22    27   ar
    27    27    28   ar
    28    28    29   ar
    29    29     5   ar
    30    18     7    1
    31    29    21   ar
    32    16    11   ar
    33    26    24    1
    34     8    30    1
    35     8    31    1
    36     9    32    1
    37     9    33    1
    38    10    34    1
    39    12    35    1
    40    13    36    1
    41    14    37    1
    42    15    38    1
    43    16    39    1
    44    17    40    1
    45    17    41    1
    46    18    42    1
    47    18    43    1
    48    19    44    1
    49    20    45    1
    50    23    46    1
    51    23    47    1
    52    24    48    1
    53    25    49    1
    54    25    50    1
    55    26    51    1
    56    26    52    1
