
     RDKit          3D

 52 56  0  0  0  0  0  0  0  0999 V2000
   -1.8528    2.1431    3.5541 F   0  0  0  0  0  0  0  0  0  0  0  0
   -0.7922    1.6431    2.7593 C   0  0  0  0  0  0  0  0  0  0  0  0
   -0.1501    0.7141    3.5298 F   0  0  0  0  0  0  0  0  0  0  0  0
   -0.0398    2.7849    2.5157 F   0  0  0  0  0  0  0  0  0  0  0  0
   -1.3777    1.0652    1.5337 C   0  0  0  0  0  0  0  0  0  0  0  0
   -0.6044    0.4550    0.6094 C   0  0  0  0  0  0  0  0  0  0  0  0
    0.7748    0.2995    0.7202 N   0  0  0  0  0  0  0  0  0  0  0  0
    1.6316    1.4673    0.6185 C   0  0  0  0  0  0  0  0  0  0  0  0
    2.7863    1.1479   -0.3691 C   0  0  0  0  0  0  0  0  0  0  0  0
    3.4759   -0.0571    0.2285 C   0  0  0  0  0  0  0  0  0  0  0  0
    4.8322   -0.2586   -0.2237 C   0  0  0  0  0  0  0  0  0  0  0  0
    5.8839   -0.2469    0.6598 C   0  0  0  0  0  0  0  0  0  0  0  0
    7.2016   -0.4428    0.2196 C   0  0  0  0  0  0  0  0  0  0  0  0
    7.4394   -0.6494   -1.1182 C   0  0  0  0  0  0  0  0  0  0  0  0
    6.4052   -0.6648   -2.0160 C   0  0  0  0  0  0  0  0  0  0  0  0
    5.1119   -0.4681   -1.5517 C   0  0  0  0  0  0  0  0  0  0  0  0
    2.5498   -1.2232   -0.0156 C   0  0  0  0  0  0  0  0  0  0  0  0
    1.3456   -1.0253    0.9215 C   0  0  0  0  0  0  0  0  0  0  0  0
   -1.2429   -0.0589   -0.5303 C   0  0  0  0  0  0  0  0  0  0  0  0
   -2.6030    0.0546   -0.6983 C   0  0  0  0  0  0  0  0  0  0  0  0
   -3.3574    0.6645    0.2312 N   0  0  0  0  0  0  0  0  0  0  0  0
   -4.6865    0.9021    0.3041 C   0  0  0  0  0  0  0  0  0  0  0  0
   -5.7435    0.5468   -0.6549 C   0  0  0  0  0  0  0  0  0  0  0  0
   -6.3212   -0.8183   -0.3514 C   0  0  0  0  0  0  0  0  0  0  0  0
   -7.3999   -1.3637   -1.2008 C   0  0  0  0  0  0  0  0  0  0  0  0
   -5.9856   -1.8787   -1.3644 C   0  0  0  0  0  0  0  0  0  0  0  0
   -4.8859    1.5506    1.4609 N   0  0  0  0  0  0  0  0  0  0  0  0
   -3.7315    1.7169    2.0946 N   0  0  0  0  0  0  0  0  0  0  0  0
   -2.7690    1.1638    1.3293 C   0  0  0  0  0  0  0  0  0  0  0  0
    2.1406    1.7392    1.5410 H   0  0  0  0  0  0  0  0  0  0  0  0
    1.1448    2.3460    0.1696 H   0  0  0  0  0  0  0  0  0  0  0  0
    3.3878    2.0468   -0.4091 H   0  0  0  0  0  0  0  0  0  0  0  0
    2.3816    0.8637   -1.3589 H   0  0  0  0  0  0  0  0  0  0  0  0
    3.4737    0.0952    1.3450 H   0  0  0  0  0  0  0  0  0  0  0  0
    5.7700   -0.0928    1.7062 H   0  0  0  0  0  0  0  0  0  0  0  0
    8.0255   -0.4313    0.9297 H   0  0  0  0  0  0  0  0  0  0  0  0
    8.4786   -0.8016   -1.4488 H   0  0  0  0  0  0  0  0  0  0  0  0
    6.6248   -0.8295   -3.0605 H   0  0  0  0  0  0  0  0  0  0  0  0
    4.3168   -0.4810   -2.2495 H   0  0  0  0  0  0  0  0  0  0  0  0
    2.9735   -2.1887    0.2429 H   0  0  0  0  0  0  0  0  0  0  0  0
    2.1985   -1.1499   -1.0666 H   0  0  0  0  0  0  0  0  0  0  0  0
    0.5766   -1.7698    0.6391 H   0  0  0  0  0  0  0  0  0  0  0  0
    1.7418   -1.1723    1.9451 H   0  0  0  0  0  0  0  0  0  0  0  0
   -0.6427   -0.5552   -1.2906 H   0  0  0  0  0  0  0  0  0  0  0  0
   -3.1229   -0.3342   -1.5709 H   0  0  0  0  0  0  0  0  0  0  0  0
   -5.3968    0.6059   -1.7106 H   0  0  0  0  0  0  0  0  0  0  0  0
   -6.5614    1.2855   -0.5628 H   0  0  0  0  0  0  0  0  0  0  0  0
   -6.3010   -1.0918    0.7103 H   0  0  0  0  0  0  0  0  0  0  0  0
   -8.1095   -2.1030   -0.7875 H   0  0  0  0  0  0  0  0  0  0  0  0
   -7.7960   -0.6650   -1.9700 H   0  0  0  0  0  0  0  0  0  0  0  0
   -5.4691   -1.5846   -2.3053 H   0  0  0  0  0  0  0  0  0  0  0  0
   -5.7298   -2.8949   -1.0135 H   0  0  0  0  0  0  0  0  0  0  0  0
  1  2  1  0
  2  3  1  0
  2  4  1  0
  2  5  1  0
  5  6  2  0
  6  7  1  0
  7  8  1  0
  8  9  1  0
  9 10  1  0
 10 11  1  0
 11 12  2  0
 12 13  1  0
 13 14  2  0
 14 15  1  0
 15 16  2  0
 10 17  1  0
 17 18  1  0
  6 19  1  0
 19 20  2  0
 20 21  1  0
 21 22  1  0
 22 23  1  0
 23 24  1  0
 24 25  1  0
 25 26  1  0
 22 27  2  0
 27 28  1  0
 28 29  2  0
 29  5  1  0
 18  7  1  0
 29 21  1  0
 16 11  1  0
 26 24  1  0
  8 30  1  0
  8 31  1  0
  9 32  1  0
  9 33  1  0
 10 34  1  0
 12 35  1  0
 13 36  1  0
 14 37  1  0
 15 38  1  0
 16 39  1  0
 17 40  1  0
 17 41  1  0
 18 42  1  0
 18 43  1  0
 19 44  1  0
 20 45  1  0
 23 46  1  0
 23 47  1  0
 24 48  1  0
 25 49  1  0
 25 50  1  0
 26 51  1  0
 26 52  1  0
M  END
$$$$
