@<TRIPOS>MOLECULE
*****
 73 77 0 0 0
SMALL
GASTEIGER

@<TRIPOS>ATOM
      1 C           9.2857   -2.4480   -1.5785 C.3     1  UNL1        0.0368
      2 O           8.2388   -1.5898   -1.3010 O.3     1  UNL1       -0.3797
      3 C           8.4578   -0.9664   -0.0927 C.3     1  UNL1        0.0612
      4 C           8.5819    0.5231   -0.2260 C.3     1  UNL1       -0.0107
      5 C           7.6220    1.2925    0.6484 C.3     1  UNL1        0.0173
      6 N           6.3093    0.7306    0.4524 N.am    1  UNL1       -0.2974
      7 C           5.2176    1.4588   -0.0791 C.2     1  UNL1        0.2467
      8 O           5.3518    2.6834   -0.4265 O.2     1  UNL1       -0.2700
      9 C           3.9292    0.7851   -0.2228 C.ar    1  UNL1        0.0384
     10 C           2.9352    1.0825    0.6715 C.ar    1  UNL1       -0.0478
     11 C           1.7038    0.4262    0.5526 C.ar    1  UNL1       -0.0384
     12 C           1.4712   -0.5061   -0.4367 C.ar    1  UNL1        0.0510
     13 N           0.2171   -1.1923   -0.5516 N.pl3   1  UNL1       -0.2982
     14 C          -0.8182   -0.9181    0.3895 C.ar    1  UNL1        0.1249
     15 C          -2.1092   -0.5792   -0.0550 C.ar    1  UNL1        0.0031
     16 C          -3.1407   -0.2968    0.8091 C.ar    1  UNL1        0.0649
     17 C          -2.8993   -0.3492    2.1564 C.ar    1  UNL1        0.0192
     18 C          -1.6157   -0.6875    2.5929 C.ar    1  UNL1        0.0389
     19 N          -0.6454   -0.9536    1.7161 N.ar    1  UNL1       -0.2395
     20 C          -4.0483   -0.0332    2.7835 C.ar    1  UNL1       -0.0264
     21 C          -5.0285    0.2199    1.7902 C.ar    1  UNL1        0.0637
     22 C          -6.3745    0.6080    2.1328 C.ar    1  UNL1        0.0364
     23 C          -7.4900    0.8311    1.4134 C.ar    1  UNL1        0.0585
     24 N          -8.5034    1.2830    2.2440 N.ar    1  UNL1       -0.1792
     25 N          -8.0452    1.3460    3.4710 N.ar    1  UNL1       -0.2738
     26 C          -8.7809    1.7728    4.6438 C.3     1  UNL1        0.0302
     27 C          -6.7664    0.9467    3.4461 C.ar    1  UNL1        0.0343
     28 N          -4.4703    0.0610    0.5958 N.ar    1  UNL1       -0.2454
     29 C          -4.9293    0.2929   -0.7150 C.2     1  UNL1        0.4209
     30 O          -6.0081    0.8311   -0.9713 O.2     1  UNL1       -0.2227
     31 O          -4.1984   -0.0731   -1.8471 O.3     1  UNL1       -0.4424
     32 C          -4.6651    0.1607   -3.1555 C.3     1  UNL1        0.1070
     33 C          -4.8728    1.5999   -3.4950 C.3     1  UNL1       -0.0253
     34 C          -3.6707   -0.4730   -4.0871 C.3     1  UNL1       -0.0253
     35 C          -5.9844   -0.6110   -3.3751 C.3     1  UNL1       -0.0253
     36 C           2.4934   -0.7870   -1.3286 C.ar    1  UNL1        0.0628
     37 CL          2.2337   -1.9598   -2.5880 Cl      1  UNL1       -0.0816
     38 C           3.7234   -0.1387   -1.2193 C.ar    1  UNL1       -0.0295
     39 C           6.1244   -0.6528    0.8193 C.3     1  UNL1        0.0173
     40 C           7.4108   -1.4216    0.8838 C.3     1  UNL1       -0.0107
     41 H           9.0875   -2.9371   -2.5758 H       1  UNL1        0.0524
     42 H           9.3171   -3.3100   -0.8676 H       1  UNL1        0.0524
     43 H          10.2644   -1.9687   -1.6270 H       1  UNL1        0.0524
     44 H           9.4409   -1.3453    0.3130 H       1  UNL1        0.0597
     45 H           9.6330    0.8834   -0.0817 H       1  UNL1        0.0305
     46 H           8.3450    0.8220   -1.2875 H       1  UNL1        0.0305
     47 H           7.9559    1.2377    1.7053 H       1  UNL1        0.0465
     48 H           7.6484    2.3601    0.2900 H       1  UNL1        0.0465
     49 H           3.0296    1.8012    1.4823 H       1  UNL1        0.0626
     50 H           0.9244    0.6774    1.2632 H       1  UNL1        0.0637
     51 H           0.0494   -1.8770   -1.2947 H       1  UNL1        0.1536
     52 H          -2.2560   -0.5490   -1.1229 H       1  UNL1        0.0673
     53 H          -1.5021   -0.7097    3.6643 H       1  UNL1        0.0837
     54 H          -4.1860    0.0133    3.8463 H       1  UNL1        0.0645
     55 H          -7.7252    0.6906    0.3775 H       1  UNL1        0.0854
     56 H          -8.3679    2.7428    5.0057 H       1  UNL1        0.0473
     57 H          -8.6857    0.9917    5.4262 H       1  UNL1        0.0473
     58 H          -9.8599    1.8786    4.4261 H       1  UNL1        0.0473
     59 H          -6.1141    0.8906    4.2978 H       1  UNL1        0.0833
     60 H          -5.6408    2.1026   -2.8807 H       1  UNL1        0.0268
     61 H          -3.8881    2.1206   -3.3870 H       1  UNL1        0.0268
     62 H          -5.2464    1.6665   -4.5529 H       1  UNL1        0.0268
     63 H          -4.1722   -0.9291   -4.9752 H       1  UNL1        0.0268
     64 H          -3.2061   -1.3370   -3.5628 H       1  UNL1        0.0268
     65 H          -2.8938    0.2708   -4.3750 H       1  UNL1        0.0268
     66 H          -6.0391   -0.9193   -4.4172 H       1  UNL1        0.0268
     67 H          -6.8086    0.0621   -3.0624 H       1  UNL1        0.0268
     68 H          -5.9390   -1.4679   -2.6817 H       1  UNL1        0.0268
     69 H           4.5506   -0.3271   -1.8960 H       1  UNL1        0.0640
     70 H           5.7057   -0.6378    1.8652 H       1  UNL1        0.0465
     71 H           5.3764   -1.1815    0.1930 H       1  UNL1        0.0465
     72 H           7.1572   -2.4842    0.5762 H       1  UNL1        0.0305
     73 H           7.8033   -1.5294    1.9190 H       1  UNL1        0.0305
@<TRIPOS>BOND
     1     1     2    1
     2     2     3    1
     3     3     4    1
     4     4     5    1
     5     5     6    1
     6     6     7   am
     7     7     8    2
     8     7     9    1
     9     9    10   ar
    10    10    11   ar
    11    11    12   ar
    12    12    13    1
    13    13    14    1
    14    14    15   ar
    15    15    16   ar
    16    16    17   ar
    17    17    18   ar
    18    18    19   ar
    19    17    20   ar
    20    20    21   ar
    21    21    22    1
    22    22    23   ar
    23    23    24   ar
    24    24    25   ar
    25    25    26    1
    26    25    27   ar
    27    21    28   ar
    28    28    29   am
    29    29    30    2
    30    29    31    1
    31    31    32    1
    32    32    33    1
    33    32    34    1
    34    32    35    1
    35    12    36   ar
    36    36    37    1
    37    36    38   ar
    38     6    39    1
    39    39    40    1
    40    40     3    1
    41    38     9   ar
    42    19    14   ar
    43    27    22   ar
    44    28    16   ar
    45     1    41    1
    46     1    42    1
    47     1    43    1
    48     3    44    1
    49     4    45    1
    50     4    46    1
    51     5    47    1
    52     5    48    1
    53    10    49    1
    54    11    50    1
    55    13    51    1
    56    15    52    1
    57    18    53    1
    58    20    54    1
    59    23    55    1
    60    26    56    1
    61    26    57    1
    62    26    58    1
    63    27    59    1
    64    33    60    1
    65    33    61    1
    66    33    62    1
    67    34    63    1
    68    34    64    1
    69    34    65    1
    70    35    66    1
    71    35    67    1
    72    35    68    1
    73    38    69    1
    74    39    70    1
    75    39    71    1
    76    40    72    1
    77    40    73    1
