
     RDKit          3D

 73 77  0  0  0  0  0  0  0  0999 V2000
    9.2857   -2.4480   -1.5785 C   0  0  0  0  0  0  0  0  0  0  0  0
    8.2388   -1.5898   -1.3010 O   0  0  0  0  0  0  0  0  0  0  0  0
    8.4578   -0.9664   -0.0927 C   0  0  0  0  0  0  0  0  0  0  0  0
    8.5819    0.5231   -0.2260 C   0  0  0  0  0  0  0  0  0  0  0  0
    7.6220    1.2925    0.6484 C   0  0  0  0  0  0  0  0  0  0  0  0
    6.3093    0.7306    0.4524 N   0  0  0  0  0  0  0  0  0  0  0  0
    5.2176    1.4588   -0.0791 C   0  0  0  0  0  0  0  0  0  0  0  0
    5.3518    2.6834   -0.4265 O   0  0  0  0  0  0  0  0  0  0  0  0
    3.9292    0.7851   -0.2228 C   0  0  0  0  0  0  0  0  0  0  0  0
    2.9352    1.0825    0.6715 C   0  0  0  0  0  0  0  0  0  0  0  0
    1.7038    0.4262    0.5526 C   0  0  0  0  0  0  0  0  0  0  0  0
    1.4712   -0.5061   -0.4367 C   0  0  0  0  0  0  0  0  0  0  0  0
    0.2171   -1.1923   -0.5516 N   0  0  0  0  0  0  0  0  0  0  0  0
   -0.8182   -0.9181    0.3895 C   0  0  0  0  0  0  0  0  0  0  0  0
   -2.1092   -0.5792   -0.0550 C   0  0  0  0  0  0  0  0  0  0  0  0
   -3.1407   -0.2968    0.8091 C   0  0  0  0  0  0  0  0  0  0  0  0
   -2.8993   -0.3492    2.1564 C   0  0  0  0  0  0  0  0  0  0  0  0
   -1.6157   -0.6875    2.5929 C   0  0  0  0  0  0  0  0  0  0  0  0
   -0.6454   -0.9536    1.7161 N   0  0  0  0  0  0  0  0  0  0  0  0
   -4.0483   -0.0332    2.7835 C   0  0  0  0  0  0  0  0  0  0  0  0
   -5.0285    0.2199    1.7902 C   0  0  0  0  0  0  0  0  0  0  0  0
   -6.3745    0.6080    2.1328 C   0  0  0  0  0  0  0  0  0  0  0  0
   -7.4900    0.8311    1.4134 C   0  0  0  0  0  0  0  0  0  0  0  0
   -8.5034    1.2830    2.2440 N   0  0  0  0  0  0  0  0  0  0  0  0
   -8.0452    1.3460    3.4710 N   0  0  0  0  0  0  0  0  0  0  0  0
   -8.7809    1.7728    4.6438 C   0  0  0  0  0  0  0  0  0  0  0  0
   -6.7664    0.9467    3.4461 C   0  0  0  0  0  0  0  0  0  0  0  0
   -4.4703    0.0610    0.5958 N   0  0  0  0  0  0  0  0  0  0  0  0
   -4.9293    0.2929   -0.7150 C   0  0  0  0  0  0  0  0  0  0  0  0
   -6.0081    0.8311   -0.9713 O   0  0  0  0  0  0  0  0  0  0  0  0
   -4.1984   -0.0731   -1.8471 O   0  0  0  0  0  0  0  0  0  0  0  0
   -4.6651    0.1607   -3.1555 C   0  0  0  0  0  0  0  0  0  0  0  0
   -4.8728    1.5999   -3.4950 C   0  0  0  0  0  0  0  0  0  0  0  0
   -3.6707   -0.4730   -4.0871 C   0  0  0  0  0  0  0  0  0  0  0  0
   -5.9844   -0.6110   -3.3751 C   0  0  0  0  0  0  0  0  0  0  0  0
    2.4934   -0.7870   -1.3286 C   0  0  0  0  0  0  0  0  0  0  0  0
    2.2337   -1.9598   -2.5880 Cl  0  0  0  0  0  0  0  0  0  0  0  0
    3.7234   -0.1387   -1.2193 C   0  0  0  0  0  0  0  0  0  0  0  0
    6.1244   -0.6528    0.8193 C   0  0  0  0  0  0  0  0  0  0  0  0
    7.4108   -1.4216    0.8838 C   0  0  0  0  0  0  0  0  0  0  0  0
    9.0875   -2.9371   -2.5758 H   0  0  0  0  0  0  0  0  0  0  0  0
    9.3171   -3.3100   -0.8676 H   0  0  0  0  0  0  0  0  0  0  0  0
   10.2644   -1.9687   -1.6270 H   0  0  0  0  0  0  0  0  0  0  0  0
    9.4409   -1.3453    0.3130 H   0  0  0  0  0  0  0  0  0  0  0  0
    9.6330    0.8834   -0.0817 H   0  0  0  0  0  0  0  0  0  0  0  0
    8.3450    0.8220   -1.2875 H   0  0  0  0  0  0  0  0  0  0  0  0
    7.9559    1.2377    1.7053 H   0  0  0  0  0  0  0  0  0  0  0  0
    7.6484    2.3601    0.2900 H   0  0  0  0  0  0  0  0  0  0  0  0
    3.0296    1.8012    1.4823 H   0  0  0  0  0  0  0  0  0  0  0  0
    0.9244    0.6774    1.2632 H   0  0  0  0  0  0  0  0  0  0  0  0
    0.0494   -1.8770   -1.2947 H   0  0  0  0  0  0  0  0  0  0  0  0
   -2.2560   -0.5490   -1.1229 H   0  0  0  0  0  0  0  0  0  0  0  0
   -1.5021   -0.7097    3.6643 H   0  0  0  0  0  0  0  0  0  0  0  0
   -4.1860    0.0133    3.8463 H   0  0  0  0  0  0  0  0  0  0  0  0
   -7.7252    0.6906    0.3775 H   0  0  0  0  0  0  0  0  0  0  0  0
   -8.3679    2.7428    5.0057 H   0  0  0  0  0  0  0  0  0  0  0  0
   -8.6857    0.9917    5.4262 H   0  0  0  0  0  0  0  0  0  0  0  0
   -9.8599    1.8786    4.4261 H   0  0  0  0  0  0  0  0  0  0  0  0
   -6.1141    0.8906    4.2978 H   0  0  0  0  0  0  0  0  0  0  0  0
   -5.6408    2.1026   -2.8807 H   0  0  0  0  0  0  0  0  0  0  0  0
   -3.8881    2.1206   -3.3870 H   0  0  0  0  0  0  0  0  0  0  0  0
   -5.2464    1.6665   -4.5529 H   0  0  0  0  0  0  0  0  0  0  0  0
   -4.1722   -0.9291   -4.9752 H   0  0  0  0  0  0  0  0  0  0  0  0
   -3.2061   -1.3370   -3.5628 H   0  0  0  0  0  0  0  0  0  0  0  0
   -2.8938    0.2708   -4.3750 H   0  0  0  0  0  0  0  0  0  0  0  0
   -6.0391   -0.9193   -4.4172 H   0  0  0  0  0  0  0  0  0  0  0  0
   -6.8086    0.0621   -3.0624 H   0  0  0  0  0  0  0  0  0  0  0  0
   -5.9390   -1.4679   -2.6817 H   0  0  0  0  0  0  0  0  0  0  0  0
    4.5506   -0.3271   -1.8960 H   0  0  0  0  0  0  0  0  0  0  0  0
    5.7057   -0.6378    1.8652 H   0  0  0  0  0  0  0  0  0  0  0  0
    5.3764   -1.1815    0.1930 H   0  0  0  0  0  0  0  0  0  0  0  0
    7.1572   -2.4842    0.5762 H   0  0  0  0  0  0  0  0  0  0  0  0
    7.8033   -1.5294    1.9190 H   0  0  0  0  0  0  0  0  0  0  0  0
  1  2  1  0
  2  3  1  0
  3  4  1  0
  4  5  1  0
  5  6  1  0
  6  7  1  0
  7  8  2  0
  7  9  1  0
  9 10  2  0
 10 11  1  0
 11 12  2  0
 12 13  1  0
 13 14  1  0
 14 15  2  0
 15 16  1  0
 16 17  2  0
 17 18  1  0
 18 19  2  0
 17 20  1  0
 20 21  2  0
 21 22  1  0
 22 23  1  0
 23 24  2  0
 24 25  1  0
 25 26  1  0
 25 27  1  0
 21 28  1  0
 28 29  1  0
 29 30  2  0
 29 31  1  0
 31 32  1  0
 32 33  1  0
 32 34  1  0
 32 35  1  0
 12 36  1  0
 36 37  1  0
 36 38  2  0
  6 39  1  0
 39 40  1  0
 40  3  1  0
 38  9  1  0
 19 14  1  0
 27 22  2  0
 28 16  1  0
  1 41  1  0
  1 42  1  0
  1 43  1  0
  3 44  1  0
  4 45  1  0
  4 46  1  0
  5 47  1  0
  5 48  1  0
 10 49  1  0
 11 50  1  0
 13 51  1  0
 15 52  1  0
 18 53  1  0
 20 54  1  0
 23 55  1  0
 26 56  1  0
 26 57  1  0
 26 58  1  0
 27 59  1  0
 33 60  1  0
 33 61  1  0
 33 62  1  0
 34 63  1  0
 34 64  1  0
 34 65  1  0
 35 66  1  0
 35 67  1  0
 35 68  1  0
 38 69  1  0
 39 70  1  0
 39 71  1  0
 40 72  1  0
 40 73  1  0
M  END
$$$$
