@<TRIPOS>MOLECULE
*****
 56 58 0 0 0
SMALL
GASTEIGER

@<TRIPOS>ATOM
      1 C           8.5322   -0.2769    0.2454 C.3     1  UNL1       -0.0586
      2 C           7.4194    0.6098   -0.3245 C.3     1  UNL1       -0.0215
      3 C           7.8235    1.0545   -1.7103 C.3     1  UNL1       -0.0586
      4 C           6.1546   -0.1632   -0.3258 C.ar    1  UNL1       -0.0432
      5 C           5.1032    0.2226    0.4713 C.ar    1  UNL1       -0.0548
      6 C           3.9109   -0.4873    0.4847 C.ar    1  UNL1       -0.0182
      7 C           3.7012   -1.6107   -0.2890 C.ar    1  UNL1        0.1387
      8 O           2.5953   -2.3476   -0.3318 O.3     1  UNL1       -0.4904
      9 C           1.3710   -2.6160    0.0225 C.3     1  UNL1        0.0927
     10 C           0.2627   -1.6882   -0.3503 C.3     1  UNL1        0.0157
     11 C           0.4172   -0.3075    0.1603 C.3     1  UNL1        0.0927
     12 O          -0.6887    0.4827   -0.1481 O.3     1  UNL1       -0.4917
     13 C          -1.9461    0.3144    0.3212 C.ar    1  UNL1        0.1240
     14 C          -2.3767   -0.6290    1.2117 C.ar    1  UNL1       -0.0195
     15 C          -3.6911   -0.7266    1.6300 C.ar    1  UNL1       -0.0517
     16 C          -4.6346    0.1447    1.1537 C.ar    1  UNL1       -0.0053
     17 C          -4.2316    1.1080    0.2556 C.ar    1  UNL1        0.1287
     18 C          -2.9285    1.1907   -0.1483 C.ar    1  UNL1        0.0221
     19 O          -5.1498    2.0295   -0.2678 O.3     1  UNL1       -0.4744
     20 C          -6.5170    1.7362   -0.1046 C.3     1  UNL1        0.2034
     21 C          -7.2921    3.0137   -0.3691 C.3     1  UNL1       -0.0143
     22 C          -6.9125    0.6824   -1.0753 C.2     1  UNL1        0.3488
     23 O          -6.1235    0.1698   -1.8858 O.2     1  UNL1       -0.2465
     24 O          -8.2338    0.2581   -1.0656 O.3     1  UNL1       -0.4779
     25 C          -6.7532    1.3219    1.3149 C.3     1  UNL1        0.0015
     26 C          -6.0489    0.0178    1.6222 C.3     1  UNL1       -0.0201
     27 C           4.8024   -1.9843   -1.0996 C.ar    1  UNL1        0.0828
     28 CL          4.6076   -3.3958   -2.1029 Cl      1  UNL1       -0.0797
     29 C           5.9776   -1.2803   -1.1090 C.ar    1  UNL1       -0.0364
     30 H           8.0960   -0.7187    1.1812 H       1  UNL1        0.0235
     31 H           8.7739   -1.1131   -0.4179 H       1  UNL1        0.0235
     32 H           9.4499    0.2946    0.4345 H       1  UNL1        0.0235
     33 H           7.3244    1.4598    0.3799 H       1  UNL1        0.0343
     34 H           8.5996    0.3473   -2.1213 H       1  UNL1        0.0235
     35 H           6.9816    1.1394   -2.4062 H       1  UNL1        0.0235
     36 H           8.3382    2.0284   -1.6020 H       1  UNL1        0.0235
     37 H           5.2051    1.0994    1.1036 H       1  UNL1        0.0622
     38 H           3.0916   -0.1729    1.1390 H       1  UNL1        0.0655
     39 H           1.0891   -3.6623   -0.4031 H       1  UNL1        0.0697
     40 H           1.2604   -2.8514    1.1602 H       1  UNL1        0.0697
     41 H          -0.7019   -2.1912   -0.1695 H       1  UNL1        0.0331
     42 H           0.2722   -1.5886   -1.5069 H       1  UNL1        0.0331
     43 H           0.6779   -0.3373    1.2280 H       1  UNL1        0.0697
     44 H           1.3344    0.1113   -0.3800 H       1  UNL1        0.0697
     45 H          -1.6753   -1.3177    1.6364 H       1  UNL1        0.0654
     46 H          -3.9484   -1.4960    2.3308 H       1  UNL1        0.0623
     47 H          -2.6465    1.9548   -0.8508 H       1  UNL1        0.0691
     48 H          -7.1307    3.6644    0.5332 H       1  UNL1        0.0274
     49 H          -8.3701    2.8350   -0.5254 H       1  UNL1        0.0274
     50 H          -6.7987    3.5352   -1.2099 H       1  UNL1        0.0274
     51 H          -8.5096   -0.5574   -1.6230 H       1  UNL1        0.2952
     52 H          -6.3490    2.0825    1.9830 H       1  UNL1        0.0312
     53 H          -7.8362    1.1406    1.4570 H       1  UNL1        0.0312
     54 H          -6.0075   -0.1177    2.7208 H       1  UNL1        0.0316
     55 H          -6.4949   -0.8436    1.0930 H       1  UNL1        0.0316
     56 H           6.8238   -1.5680   -1.7323 H       1  UNL1        0.0636
@<TRIPOS>BOND
     1     1     2    1
     2     2     3    1
     3     2     4    1
     4     4     5   ar
     5     5     6   ar
     6     6     7   ar
     7     7     8    1
     8     8     9    1
     9     9    10    1
    10    10    11    1
    11    11    12    1
    12    12    13    1
    13    13    14   ar
    14    14    15   ar
    15    15    16   ar
    16    16    17   ar
    17    17    18   ar
    18    17    19    1
    19    19    20    1
    20    20    21    1
    21    20    22    1
    22    22    23    2
    23    22    24    1
    24    20    25    1
    25    25    26    1
    26     7    27   ar
    27    27    28    1
    28    27    29   ar
    29    29     4   ar
    30    18    13   ar
    31    26    16    1
    32     1    30    1
    33     1    31    1
    34     1    32    1
    35     2    33    1
    36     3    34    1
    37     3    35    1
    38     3    36    1
    39     5    37    1
    40     6    38    1
    41     9    39    1
    42     9    40    1
    43    10    41    1
    44    10    42    1
    45    11    43    1
    46    11    44    1
    47    14    45    1
    48    15    46    1
    49    18    47    1
    50    21    48    1
    51    21    49    1
    52    21    50    1
    53    24    51    1
    54    25    52    1
    55    25    53    1
    56    26    54    1
    57    26    55    1
    58    29    56    1
