
     RDKit          3D

 56 58  0  0  0  0  0  0  0  0999 V2000
    8.5322   -0.2769    0.2454 C   0  0  0  0  0  0  0  0  0  0  0  0
    7.4194    0.6098   -0.3245 C   0  0  0  0  0  0  0  0  0  0  0  0
    7.8235    1.0545   -1.7103 C   0  0  0  0  0  0  0  0  0  0  0  0
    6.1546   -0.1632   -0.3258 C   0  0  0  0  0  0  0  0  0  0  0  0
    5.1032    0.2226    0.4713 C   0  0  0  0  0  0  0  0  0  0  0  0
    3.9109   -0.4873    0.4847 C   0  0  0  0  0  0  0  0  0  0  0  0
    3.7012   -1.6107   -0.2890 C   0  0  0  0  0  0  0  0  0  0  0  0
    2.5953   -2.3476   -0.3318 O   0  0  0  0  0  0  0  0  0  0  0  0
    1.3710   -2.6160    0.0225 C   0  0  0  0  0  0  0  0  0  0  0  0
    0.2627   -1.6882   -0.3503 C   0  0  0  0  0  0  0  0  0  0  0  0
    0.4172   -0.3075    0.1603 C   0  0  0  0  0  0  0  0  0  0  0  0
   -0.6887    0.4827   -0.1481 O   0  0  0  0  0  0  0  0  0  0  0  0
   -1.9461    0.3144    0.3212 C   0  0  0  0  0  0  0  0  0  0  0  0
   -2.3767   -0.6290    1.2117 C   0  0  0  0  0  0  0  0  0  0  0  0
   -3.6911   -0.7266    1.6300 C   0  0  0  0  0  0  0  0  0  0  0  0
   -4.6346    0.1447    1.1537 C   0  0  0  0  0  0  0  0  0  0  0  0
   -4.2316    1.1080    0.2556 C   0  0  0  0  0  0  0  0  0  0  0  0
   -2.9285    1.1907   -0.1483 C   0  0  0  0  0  0  0  0  0  0  0  0
   -5.1498    2.0295   -0.2678 O   0  0  0  0  0  0  0  0  0  0  0  0
   -6.5170    1.7362   -0.1046 C   0  0  1  0  0  0  0  0  0  0  0  0
   -7.2921    3.0137   -0.3691 C   0  0  0  0  0  0  0  0  0  0  0  0
   -6.9125    0.6824   -1.0753 C   0  0  0  0  0  0  0  0  0  0  0  0
   -6.1235    0.1698   -1.8858 O   0  0  0  0  0  0  0  0  0  0  0  0
   -8.2338    0.2581   -1.0656 O   0  0  0  0  0  0  0  0  0  0  0  0
   -6.7532    1.3219    1.3149 C   0  0  0  0  0  0  0  0  0  0  0  0
   -6.0489    0.0178    1.6222 C   0  0  0  0  0  0  0  0  0  0  0  0
    4.8024   -1.9843   -1.0996 C   0  0  0  0  0  0  0  0  0  0  0  0
    4.6076   -3.3958   -2.1029 Cl  0  0  0  0  0  0  0  0  0  0  0  0
    5.9776   -1.2803   -1.1090 C   0  0  0  0  0  0  0  0  0  0  0  0
    8.0960   -0.7187    1.1812 H   0  0  0  0  0  0  0  0  0  0  0  0
    8.7739   -1.1131   -0.4179 H   0  0  0  0  0  0  0  0  0  0  0  0
    9.4499    0.2946    0.4345 H   0  0  0  0  0  0  0  0  0  0  0  0
    7.3244    1.4598    0.3799 H   0  0  0  0  0  0  0  0  0  0  0  0
    8.5996    0.3473   -2.1213 H   0  0  0  0  0  0  0  0  0  0  0  0
    6.9816    1.1394   -2.4062 H   0  0  0  0  0  0  0  0  0  0  0  0
    8.3382    2.0284   -1.6020 H   0  0  0  0  0  0  0  0  0  0  0  0
    5.2051    1.0994    1.1036 H   0  0  0  0  0  0  0  0  0  0  0  0
    3.0916   -0.1729    1.1390 H   0  0  0  0  0  0  0  0  0  0  0  0
    1.0891   -3.6623   -0.4031 H   0  0  0  0  0  0  0  0  0  0  0  0
    1.2604   -2.8514    1.1602 H   0  0  0  0  0  0  0  0  0  0  0  0
   -0.7019   -2.1912   -0.1695 H   0  0  0  0  0  0  0  0  0  0  0  0
    0.2722   -1.5886   -1.5069 H   0  0  0  0  0  0  0  0  0  0  0  0
    0.6779   -0.3373    1.2280 H   0  0  0  0  0  0  0  0  0  0  0  0
    1.3344    0.1113   -0.3800 H   0  0  0  0  0  0  0  0  0  0  0  0
   -1.6753   -1.3177    1.6364 H   0  0  0  0  0  0  0  0  0  0  0  0
   -3.9484   -1.4960    2.3308 H   0  0  0  0  0  0  0  0  0  0  0  0
   -2.6465    1.9548   -0.8508 H   0  0  0  0  0  0  0  0  0  0  0  0
   -7.1307    3.6644    0.5332 H   0  0  0  0  0  0  0  0  0  0  0  0
   -8.3701    2.8350   -0.5254 H   0  0  0  0  0  0  0  0  0  0  0  0
   -6.7987    3.5352   -1.2099 H   0  0  0  0  0  0  0  0  0  0  0  0
   -8.5096   -0.5574   -1.6230 H   0  0  0  0  0  0  0  0  0  0  0  0
   -6.3490    2.0825    1.9830 H   0  0  0  0  0  0  0  0  0  0  0  0
   -7.8362    1.1406    1.4570 H   0  0  0  0  0  0  0  0  0  0  0  0
   -6.0075   -0.1177    2.7208 H   0  0  0  0  0  0  0  0  0  0  0  0
   -6.4949   -0.8436    1.0930 H   0  0  0  0  0  0  0  0  0  0  0  0
    6.8238   -1.5680   -1.7323 H   0  0  0  0  0  0  0  0  0  0  0  0
  1  2  1  0
  2  3  1  0
  2  4  1  0
  4  5  2  0
  5  6  1  0
  6  7  2  0
  7  8  1  0
  8  9  1  0
  9 10  1  0
 10 11  1  0
 11 12  1  0
 12 13  1  0
 13 14  2  0
 14 15  1  0
 15 16  2  0
 16 17  1  0
 17 18  2  0
 17 19  1  0
 19 20  1  0
 20 21  1  6
 20 22  1  0
 22 23  2  0
 22 24  1  0
 20 25  1  0
 25 26  1  0
  7 27  1  0
 27 28  1  0
 27 29  2  0
 29  4  1  0
 18 13  1  0
 26 16  1  0
  1 30  1  0
  1 31  1  0
  1 32  1  0
  2 33  1  0
  3 34  1  0
  3 35  1  0
  3 36  1  0
  5 37  1  0
  6 38  1  0
  9 39  1  0
  9 40  1  0
 10 41  1  0
 10 42  1  0
 11 43  1  0
 11 44  1  0
 14 45  1  0
 15 46  1  0
 18 47  1  0
 21 48  1  0
 21 49  1  0
 21 50  1  0
 24 51  1  0
 25 52  1  0
 25 53  1  0
 26 54  1  0
 26 55  1  0
 29 56  1  0
M  END
$$$$
