@<TRIPOS>MOLECULE
*****
 46 49 0 0 0
SMALL
GASTEIGER

@<TRIPOS>ATOM
      1 C          -4.1149   -3.0627   -0.5709 C.3     1  UNL1       -0.0373
      2 C          -2.6651   -3.5037   -0.3102 C.3     1  UNL1        0.0703
      3 O          -2.3521   -3.3397    1.0078 O.3     1  UNL1       -0.3903
      4 C          -1.7366   -2.7825   -1.2508 C.3     1  UNL1        0.0504
      5 N          -1.7985   -1.3369   -1.1007 N.ar    1  UNL1       -0.3271
      6 C          -2.8124   -0.6569   -1.7208 C.ar    1  UNL1        0.0972
      7 N          -2.7307    0.6485   -1.4549 N.ar    1  UNL1       -0.2351
      8 C          -1.6658    0.8010   -0.6670 C.ar    1  UNL1        0.0967
      9 C          -1.2009    2.0752   -0.1487 C.ar    1  UNL1        0.0026
     10 C          -0.7418    3.0057   -1.0684 C.ar    1  UNL1       -0.0498
     11 C          -0.2777    4.2368   -0.6831 C.ar    1  UNL1       -0.0258
     12 C          -0.2584    4.5787    0.6538 C.ar    1  UNL1        0.1234
     13 F           0.2027    5.8102    1.0712 F       1  UNL1       -0.2055
     14 C          -0.7117    3.6664    1.5848 C.ar    1  UNL1       -0.0258
     15 C          -1.1811    2.4199    1.1788 C.ar    1  UNL1       -0.0498
     16 C          -1.0774   -0.4556   -0.4440 C.ar    1  UNL1        0.0779
     17 C           0.1205   -0.6193    0.3356 C.ar    1  UNL1        0.0173
     18 C           0.1359   -1.1716    1.5848 C.ar    1  UNL1       -0.0477
     19 C           1.3290   -1.2594    2.2815 C.ar    1  UNL1       -0.0182
     20 C           2.5193   -0.7987    1.7433 C.ar    1  UNL1        0.1381
     21 N           3.7789   -0.7613    2.2282 N.ar    1  UNL1       -0.2353
     22 C           4.5809   -0.1899    1.3104 C.ar    1  UNL1        0.0588
     23 C           3.7709    0.1239    0.2387 C.ar    1  UNL1        0.1280
     24 C           4.2790    0.7822   -0.9605 C.2     1  UNL1        0.2599
     25 N           5.6033    1.2891   -1.0563 N.am    1  UNL1       -0.3241
     26 O           3.5451    0.9334   -1.9878 O.2     1  UNL1       -0.2687
     27 N           2.4998   -0.2466    0.4924 N.ar    1  UNL1       -0.2949
     28 C           1.3432   -0.1624   -0.1829 C.ar    1  UNL1        0.0211
     29 H          -4.4137   -3.2050   -1.6211 H       1  UNL1        0.0255
     30 H          -4.2339   -2.0001   -0.2343 H       1  UNL1        0.0255
     31 H          -4.8155   -3.6471    0.0536 H       1  UNL1        0.0255
     32 H          -2.6717   -4.6081   -0.6031 H       1  UNL1        0.0608
     33 H          -2.8313   -2.6205    1.4812 H       1  UNL1        0.2098
     34 H          -0.7042   -3.1531   -0.9797 H       1  UNL1        0.0518
     35 H          -2.0223   -3.0946   -2.2825 H       1  UNL1        0.0518
     36 H          -3.6009   -1.0710   -2.3558 H       1  UNL1        0.1029
     37 H          -0.7472    2.7565   -2.1317 H       1  UNL1        0.0625
     38 H           0.0816    4.9547   -1.4241 H       1  UNL1        0.0646
     39 H          -0.6791    3.9740    2.6331 H       1  UNL1        0.0646
     40 H          -1.5319    1.7229    1.9229 H       1  UNL1        0.0625
     41 H          -0.7712   -1.5462    2.0837 H       1  UNL1        0.0626
     42 H           1.3401   -1.6991    3.2697 H       1  UNL1        0.0654
     43 H           5.6658   -0.0173    1.4179 H       1  UNL1        0.0853
     44 H           5.9978    1.7967   -0.2388 H       1  UNL1        0.1453
     45 H           6.1368    1.1397   -1.9280 H       1  UNL1        0.1453
     46 H           1.4177    0.2943   -1.1670 H       1  UNL1        0.0820
@<TRIPOS>BOND
     1     1     2    1
     2     2     3    1
     3     2     4    1
     4     4     5    1
     5     5     6   ar
     6     6     7   ar
     7     7     8   ar
     8     8     9    1
     9     9    10   ar
    10    10    11   ar
    11    11    12   ar
    12    12    13    1
    13    12    14   ar
    14    14    15   ar
    15     8    16   ar
    16    16    17    1
    17    17    18   ar
    18    18    19   ar
    19    19    20   ar
    20    20    21   ar
    21    21    22   ar
    22    22    23   ar
    23    23    24    1
    24    24    25   am
    25    24    26    2
    26    23    27   ar
    27    27    28   ar
    28    16     5   ar
    29    28    17   ar
    30    15     9   ar
    31    27    20   ar
    32     1    29    1
    33     1    30    1
    34     1    31    1
    35     2    32    1
    36     3    33    1
    37     4    34    1
    38     4    35    1
    39     6    36    1
    40    10    37    1
    41    11    38    1
    42    14    39    1
    43    15    40    1
    44    18    41    1
    45    19    42    1
    46    22    43    1
    47    25    44    1
    48    25    45    1
    49    28    46    1
