
     RDKit          3D

 73 77  0  0  0  0  0  0  0  0999 V2000
    0.4522   -3.3068    0.1930 C   0  0  0  0  0  0  0  0  0  0  0  0
    0.3072   -2.1839    1.1538 C   0  0  0  0  0  0  0  0  0  0  0  0
   -0.6111   -2.4680    2.3090 C   0  0  0  0  0  0  0  0  0  0  0  0
   -0.1581   -0.9281    0.4833 C   0  0  0  0  0  0  0  0  0  0  0  0
   -1.4177   -0.4847    0.1925 C   0  0  0  0  0  0  0  0  0  0  0  0
   -2.7074   -1.1024    0.3236 C   0  0  0  0  0  0  0  0  0  0  0  0
   -3.7604   -0.3535    0.4462 O   0  0  0  0  0  0  0  0  0  0  0  0
   -2.9945   -2.4741    0.3300 N   0  0  0  0  0  0  0  0  0  0  0  0
   -4.3483   -2.9593    0.4786 C   0  0  0  0  0  0  0  0  0  0  0  0
   -5.1099   -3.1594   -0.6515 C   0  0  0  0  0  0  0  0  0  0  0  0
   -6.4104   -3.6227   -0.5576 C   0  0  0  0  0  0  0  0  0  0  0  0
   -6.9898   -3.9003    0.6702 C   0  0  0  0  0  0  0  0  0  0  0  0
   -6.2169   -3.6959    1.7944 C   0  0  0  0  0  0  0  0  0  0  0  0
   -4.9146   -3.2318    1.6978 C   0  0  0  0  0  0  0  0  0  0  0  0
   -1.2514    0.8002   -0.3995 C   0  0  0  0  0  0  0  0  0  0  0  0
   -2.3102    1.6581   -0.8725 C   0  0  0  0  0  0  0  0  0  0  0  0
   -2.4427    1.8195   -2.2583 C   0  0  0  0  0  0  0  0  0  0  0  0
   -3.4292    2.6315   -2.7741 C   0  0  0  0  0  0  0  0  0  0  0  0
   -4.3190    3.3134   -1.9683 C   0  0  0  0  0  0  0  0  0  0  0  0
   -4.1913    3.1571   -0.6142 C   0  0  0  0  0  0  0  0  0  0  0  0
   -3.1927    2.3349   -0.0805 C   0  0  0  0  0  0  0  0  0  0  0  0
    0.0796    1.0904   -0.4517 C   0  0  0  0  0  0  0  0  0  0  0  0
    0.7217    2.3130   -0.9841 C   0  0  0  0  0  0  0  0  0  0  0  0
    1.5316    2.3343   -2.0738 C   0  0  0  0  0  0  0  0  0  0  0  0
    2.1045    3.5303   -2.5155 C   0  0  0  0  0  0  0  0  0  0  0  0
    1.8524    4.7050   -1.8472 C   0  0  0  0  0  0  0  0  0  0  0  0
    2.3682    5.9040   -2.2105 F   0  0  0  0  0  0  0  0  0  0  0  0
    1.0304    4.6914   -0.7391 C   0  0  0  0  0  0  0  0  0  0  0  0
    0.4705    3.4932   -0.3155 C   0  0  0  0  0  0  0  0  0  0  0  0
    0.7234    0.0474    0.0800 N   0  0  0  0  0  0  0  0  0  0  0  0
    2.1633   -0.0340    0.1988 C   0  0  0  0  0  0  0  0  0  0  0  0
    2.7044    0.5627    1.4558 C   0  0  0  0  0  0  0  0  0  0  0  0
    4.2102    0.4542    1.5477 C   0  0  2  0  0  0  0  0  0  0  0  0
    4.9076    1.1497    0.4240 C   0  0  0  0  0  0  0  0  0  0  0  0
    5.7688    0.2125   -0.4083 C   0  0  1  0  0  0  0  0  0  0  0  0
    6.3832    0.9360   -1.4017 O   0  0  0  0  0  0  0  0  0  0  0  0
    6.7794   -0.4066    0.5669 C   0  0  0  0  0  0  0  0  0  0  0  0
    5.9695   -1.1804    1.5428 C   0  0  0  0  0  0  0  0  0  0  0  0
    6.5030   -2.0938    2.2590 O   0  0  0  0  0  0  0  0  0  0  0  0
    4.6203   -0.8876    1.6580 O   0  0  0  0  0  0  0  0  0  0  0  0
   -0.0827   -3.1364   -0.7636 H   0  0  0  0  0  0  0  0  0  0  0  0
    1.5414   -3.3599   -0.0967 H   0  0  0  0  0  0  0  0  0  0  0  0
    0.1827   -4.2571    0.6871 H   0  0  0  0  0  0  0  0  0  0  0  0
    1.3069   -1.9229    1.6211 H   0  0  0  0  0  0  0  0  0  0  0  0
   -1.3969   -1.6682    2.4412 H   0  0  0  0  0  0  0  0  0  0  0  0
   -1.1379   -3.4317    2.2565 H   0  0  0  0  0  0  0  0  0  0  0  0
   -0.0508   -2.4128    3.2945 H   0  0  0  0  0  0  0  0  0  0  0  0
   -2.2770   -3.2038    0.2028 H   0  0  0  0  0  0  0  0  0  0  0  0
   -4.6873   -2.9520   -1.6252 H   0  0  0  0  0  0  0  0  0  0  0  0
   -7.0317   -3.7888   -1.4322 H   0  0  0  0  0  0  0  0  0  0  0  0
   -8.0143   -4.2634    0.7152 H   0  0  0  0  0  0  0  0  0  0  0  0
   -6.6401   -3.9040    2.7774 H   0  0  0  0  0  0  0  0  0  0  0  0
   -4.3289   -3.0784    2.5828 H   0  0  0  0  0  0  0  0  0  0  0  0
   -1.7629    1.3016   -2.9459 H   0  0  0  0  0  0  0  0  0  0  0  0
   -3.5646    2.7836   -3.8545 H   0  0  0  0  0  0  0  0  0  0  0  0
   -5.0853    3.9450   -2.3931 H   0  0  0  0  0  0  0  0  0  0  0  0
   -4.8644    3.6715    0.0315 H   0  0  0  0  0  0  0  0  0  0  0  0
   -3.1097    2.2325    0.9936 H   0  0  0  0  0  0  0  0  0  0  0  0
    1.7315    1.4239   -2.6017 H   0  0  0  0  0  0  0  0  0  0  0  0
    2.7496    3.5563   -3.3814 H   0  0  0  0  0  0  0  0  0  0  0  0
    0.8195    5.6105   -0.1974 H   0  0  0  0  0  0  0  0  0  0  0  0
   -0.1666    3.5387    0.5588 H   0  0  0  0  0  0  0  0  0  0  0  0
    2.4971   -1.1136    0.1841 H   0  0  0  0  0  0  0  0  0  0  0  0
    2.7007    0.4167   -0.6673 H   0  0  0  0  0  0  0  0  0  0  0  0
    2.2366    0.1163    2.3246 H   0  0  0  0  0  0  0  0  0  0  0  0
    2.4966    1.6768    1.4333 H   0  0  0  0  0  0  0  0  0  0  0  0
    4.4872    0.9511    2.5227 H   0  0  0  0  0  0  0  0  0  0  0  0
    5.6255    1.9205    0.8316 H   0  0  0  0  0  0  0  0  0  0  0  0
    4.2231    1.7141   -0.2385 H   0  0  0  0  0  0  0  0  0  0  0  0
    5.1933   -0.6287   -0.8225 H   0  0  0  0  0  0  0  0  0  0  0  0
    6.7194    0.3227   -2.1180 H   0  0  0  0  0  0  0  0  0  0  0  0
    7.4217   -1.0906   -0.0408 H   0  0  0  0  0  0  0  0  0  0  0  0
    7.3926    0.3651    1.0380 H   0  0  0  0  0  0  0  0  0  0  0  0
  1  2  1  0
  2  3  1  0
  2  4  1  0
  4  5  2  0
  5  6  1  0
  6  7  2  0
  6  8  1  0
  8  9  1  0
  9 10  2  0
 10 11  1  0
 11 12  2  0
 12 13  1  0
 13 14  2  0
  5 15  1  0
 15 16  1  0
 16 17  2  0
 17 18  1  0
 18 19  2  0
 19 20  1  0
 20 21  2  0
 15 22  2  0
 22 23  1  0
 23 24  2  0
 24 25  1  0
 25 26  2  0
 26 27  1  0
 26 28  1  0
 28 29  2  0
 22 30  1  0
 30 31  1  0
 31 32  1  0
 32 33  1  0
 33 34  1  0
 34 35  1  0
 35 36  1  0
 35 37  1  0
 37 38  1  0
 38 39  2  0
 38 40  1  0
 30  4  1  0
 40 33  1  0
 14  9  1  0
 21 16  1  0
 29 23  1  0
  1 41  1  0
  1 42  1  0
  1 43  1  0
  2 44  1  0
  3 45  1  0
  3 46  1  0
  3 47  1  0
  8 48  1  0
 10 49  1  0
 11 50  1  0
 12 51  1  0
 13 52  1  0
 14 53  1  0
 17 54  1  0
 18 55  1  0
 19 56  1  0
 20 57  1  0
 21 58  1  0
 24 59  1  0
 25 60  1  0
 28 61  1  0
 29 62  1  0
 31 63  1  0
 31 64  1  0
 32 65  1  0
 32 66  1  0
 33 67  1  1
 34 68  1  0
 34 69  1  0
 35 70  1  6
 36 71  1  0
 37 72  1  0
 37 73  1  0
M  END
$$$$
