@<TRIPOS>MOLECULE
*****
 73 77 0 0 0
SMALL
GASTEIGER

@<TRIPOS>ATOM
      1 C           0.4522   -3.3068    0.1930 C.3     1  UNL1       -0.0573
      2 C           0.3072   -2.1839    1.1538 C.3     1  UNL1       -0.0054
      3 C          -0.6111   -2.4680    2.3090 C.3     1  UNL1       -0.0573
      4 C          -0.1581   -0.9281    0.4833 C.ar    1  UNL1        0.0345
      5 C          -1.4177   -0.4847    0.1925 C.ar    1  UNL1        0.0662
      6 C          -2.7074   -1.1024    0.3236 C.2     1  UNL1        0.2506
      7 O          -3.7604   -0.3535    0.4462 O.2     1  UNL1       -0.2698
      8 N          -2.9945   -2.4741    0.3300 N.am    1  UNL1       -0.2814
      9 C          -4.3483   -2.9593    0.4786 C.ar    1  UNL1        0.0337
     10 C          -5.1099   -3.1594   -0.6515 C.ar    1  UNL1       -0.0405
     11 C          -6.4104   -3.6227   -0.5576 C.ar    1  UNL1       -0.0600
     12 C          -6.9898   -3.9003    0.6702 C.ar    1  UNL1       -0.0616
     13 C          -6.2169   -3.6959    1.7944 C.ar    1  UNL1       -0.0600
     14 C          -4.9146   -3.2318    1.6978 C.ar    1  UNL1       -0.0405
     15 C          -1.2514    0.8002   -0.3995 C.ar    1  UNL1        0.0200
     16 C          -2.3102    1.6581   -0.8725 C.ar    1  UNL1       -0.0151
     17 C          -2.4427    1.8195   -2.2583 C.ar    1  UNL1       -0.0539
     18 C          -3.4292    2.6315   -2.7741 C.ar    1  UNL1       -0.0612
     19 C          -4.3190    3.3134   -1.9683 C.ar    1  UNL1       -0.0617
     20 C          -4.1913    3.1571   -0.6142 C.ar    1  UNL1       -0.0612
     21 C          -3.1927    2.3349   -0.0805 C.ar    1  UNL1       -0.0539
     22 C           0.0796    1.0904   -0.4517 C.ar    1  UNL1        0.0578
     23 C           0.7217    2.3130   -0.9841 C.ar    1  UNL1       -0.0007
     24 C           1.5316    2.3343   -2.0738 C.ar    1  UNL1       -0.0499
     25 C           2.1045    3.5303   -2.5155 C.ar    1  UNL1       -0.0258
     26 C           1.8524    4.7050   -1.8472 C.ar    1  UNL1        0.1234
     27 F           2.3682    5.9040   -2.2105 F       1  UNL1       -0.2055
     28 C           1.0304    4.6914   -0.7391 C.ar    1  UNL1       -0.0258
     29 C           0.4705    3.4932   -0.3155 C.ar    1  UNL1       -0.0499
     30 N           0.7234    0.0474    0.0800 N.ar    1  UNL1       -0.3422
     31 C           2.1633   -0.0340    0.1988 C.3     1  UNL1        0.0269
     32 C           2.7044    0.5627    1.4558 C.3     1  UNL1        0.0024
     33 C           4.2102    0.4542    1.5477 C.3     1  UNL1        0.1070
     34 C           4.9076    1.1497    0.4240 C.3     1  UNL1        0.0110
     35 C           5.7688    0.2125   -0.4083 C.3     1  UNL1        0.0686
     36 O           6.3832    0.9360   -1.4017 O.3     1  UNL1       -0.3911
     37 C           6.7794   -0.4066    0.5669 C.3     1  UNL1        0.0710
     38 C           5.9695   -1.1804    1.5428 C.2     1  UNL1        0.3098
     39 O           6.5030   -2.0938    2.2590 O.2     1  UNL1       -0.2507
     40 O           4.6203   -0.8876    1.6580 O.3     1  UNL1       -0.4611
     41 H          -0.0827   -3.1364   -0.7636 H       1  UNL1        0.0236
     42 H           1.5414   -3.3599   -0.0967 H       1  UNL1        0.0236
     43 H           0.1827   -4.2571    0.6871 H       1  UNL1        0.0236
     44 H           1.3069   -1.9229    1.6211 H       1  UNL1        0.0358
     45 H          -1.3969   -1.6682    2.4412 H       1  UNL1        0.0236
     46 H          -1.1379   -3.4317    2.2565 H       1  UNL1        0.0236
     47 H          -0.0508   -2.4128    3.2945 H       1  UNL1        0.0236
     48 H          -2.2770   -3.2038    0.2028 H       1  UNL1        0.1551
     49 H          -4.6873   -2.9520   -1.6252 H       1  UNL1        0.0636
     50 H          -7.0317   -3.7888   -1.4322 H       1  UNL1        0.0618
     51 H          -8.0143   -4.2634    0.7152 H       1  UNL1        0.0618
     52 H          -6.6401   -3.9040    2.7774 H       1  UNL1        0.0618
     53 H          -4.3289   -3.0784    2.5828 H       1  UNL1        0.0636
     54 H          -1.7629    1.3016   -2.9459 H       1  UNL1        0.0624
     55 H          -3.5646    2.7836   -3.8545 H       1  UNL1        0.0618
     56 H          -5.0853    3.9450   -2.3931 H       1  UNL1        0.0618
     57 H          -4.8644    3.6715    0.0315 H       1  UNL1        0.0618
     58 H          -3.1097    2.2325    0.9936 H       1  UNL1        0.0624
     59 H           1.7315    1.4239   -2.6017 H       1  UNL1        0.0625
     60 H           2.7496    3.5563   -3.3814 H       1  UNL1        0.0646
     61 H           0.8195    5.6105   -0.1974 H       1  UNL1        0.0646
     62 H          -0.1666    3.5387    0.5588 H       1  UNL1        0.0625
     63 H           2.4971   -1.1136    0.1841 H       1  UNL1        0.0493
     64 H           2.7007    0.4167   -0.6673 H       1  UNL1        0.0493
     65 H           2.2366    0.1163    2.3246 H       1  UNL1        0.0318
     66 H           2.4966    1.6768    1.4333 H       1  UNL1        0.0318
     67 H           4.4872    0.9511    2.5227 H       1  UNL1        0.0735
     68 H           5.6255    1.9205    0.8316 H       1  UNL1        0.0326
     69 H           4.2231    1.7141   -0.2385 H       1  UNL1        0.0326
     70 H           5.1933   -0.6287   -0.8225 H       1  UNL1        0.0600
     71 H           6.7194    0.3227   -2.1180 H       1  UNL1        0.2098
     72 H           7.4217   -1.0906   -0.0408 H       1  UNL1        0.0403
     73 H           7.3926    0.3651    1.0380 H       1  UNL1        0.0403
@<TRIPOS>BOND
     1     1     2    1
     2     2     3    1
     3     2     4    1
     4     4     5   ar
     5     5     6    1
     6     6     7    2
     7     6     8   am
     8     8     9    1
     9     9    10   ar
    10    10    11   ar
    11    11    12   ar
    12    12    13   ar
    13    13    14   ar
    14     5    15   ar
    15    15    16    1
    16    16    17   ar
    17    17    18   ar
    18    18    19   ar
    19    19    20   ar
    20    20    21   ar
    21    15    22   ar
    22    22    23    1
    23    23    24   ar
    24    24    25   ar
    25    25    26   ar
    26    26    27    1
    27    26    28   ar
    28    28    29   ar
    29    22    30   ar
    30    30    31    1
    31    31    32    1
    32    32    33    1
    33    33    34    1
    34    34    35    1
    35    35    36    1
    36    35    37    1
    37    37    38    1
    38    38    39    2
    39    38    40    1
    40    30     4   ar
    41    40    33    1
    42    14     9   ar
    43    21    16   ar
    44    29    23   ar
    45     1    41    1
    46     1    42    1
    47     1    43    1
    48     2    44    1
    49     3    45    1
    50     3    46    1
    51     3    47    1
    52     8    48    1
    53    10    49    1
    54    11    50    1
    55    12    51    1
    56    13    52    1
    57    14    53    1
    58    17    54    1
    59    18    55    1
    60    19    56    1
    61    20    57    1
    62    21    58    1
    63    24    59    1
    64    25    60    1
    65    28    61    1
    66    29    62    1
    67    31    63    1
    68    31    64    1
    69    32    65    1
    70    32    66    1
    71    33    67    1
    72    34    68    1
    73    34    69    1
    74    35    70    1
    75    36    71    1
    76    37    72    1
    77    37    73    1
