@<TRIPOS>MOLECULE
*****
 66 70 0 0 0
SMALL
GASTEIGER

@<TRIPOS>ATOM
      1 O          -4.1152   -1.4190   -1.9682 O.2     1  UNL1       -0.2753
      2 C          -3.1244   -1.1373   -1.2387 C.2     1  UNL1        0.2188
      3 C          -2.8816    0.2616   -0.8337 C.3     1  UNL1        0.0386
      4 C          -2.9346    0.3374    0.6693 C.3     1  UNL1       -0.0261
      5 C          -3.7202    1.5396    1.1507 C.3     1  UNL1        0.0129
      6 N          -5.0177    1.6553    0.5408 N.pl3   1  UNL1       -0.3298
      7 C          -6.0831    2.3479    1.1820 C.ar    1  UNL1        0.0326
      8 C          -5.8577    3.0478    2.3522 C.ar    1  UNL1       -0.0225
      9 C          -6.8960    3.7198    2.9831 C.ar    1  UNL1        0.0293
     10 N          -8.1260    3.6795    2.4380 N.ar    1  UNL1       -0.2631
     11 C          -8.3697    3.0049    1.2997 C.ar    1  UNL1        0.0293
     12 C          -7.3490    2.3145    0.6334 C.ar    1  UNL1       -0.0225
     13 C          -5.2240    1.0509   -0.7595 C.3     1  UNL1        0.0129
     14 C          -3.8829    1.1457   -1.4999 C.3     1  UNL1       -0.0261
     15 N          -2.2774   -2.2038   -0.8377 N.am    1  UNL1       -0.3009
     16 C          -2.3502   -3.6045   -1.1232 C.3     1  UNL1        0.0150
     17 C          -0.9454   -4.1624   -1.1159 C.3     1  UNL1       -0.0317
     18 C          -0.1478   -3.1271   -0.4158 C.3     1  UNL1       -0.0096
     19 C           1.0093   -2.5951   -1.2147 C.3     1  UNL1        0.0217
     20 N           1.9636   -3.5602   -1.5931 N.3     1  UNL1       -0.1902
     21 S           3.2772   -3.0163   -2.4884 S.O2    1  UNL1        0.0517
     22 O           4.1761   -4.2036   -2.7903 O.2     1  UNL1       -0.1536
     23 O           2.9321   -2.4015   -3.8005 O.2     1  UNL1       -0.1536
     24 C           4.2246   -1.8370   -1.5876 C.2     1  UNL1        0.0701
     25 C           5.4782   -2.0140   -1.2928 C.2     1  UNL1       -0.0289
     26 C           6.2512   -1.0033   -0.5330 C.ar    1  UNL1        0.0141
     27 C           7.5271   -1.0112   -0.1447 C.ar    1  UNL1       -0.0469
     28 C           8.0025    0.0480    0.5485 C.ar    1  UNL1       -0.0459
     29 C           7.1613    1.0651    0.8148 C.ar    1  UNL1        0.0265
     30 C           7.3132    2.3299    1.5140 C.ar    1  UNL1        0.0273
     31 C           8.3843    2.8414    2.1046 C.ar    1  UNL1       -0.0450
     32 C           8.3198    4.0411    2.7040 C.ar    1  UNL1       -0.0356
     33 C           7.1063    4.6965    2.6720 C.ar    1  UNL1        0.0786
     34 CL          6.5822    6.2633    3.3208 Cl      1  UNL1       -0.0758
     35 S           6.0683    3.5232    1.7499 S.2     1  UNL1       -0.0763
     36 S           5.6493    0.5227    0.0697 S.2     1  UNL1       -0.0883
     37 C          -1.1041   -2.0221   -0.0061 C.3     1  UNL1        0.0188
     38 H          -1.8656    0.5676   -1.2188 H       1  UNL1        0.0395
     39 H          -1.8960    0.4864    1.0346 H       1  UNL1        0.0288
     40 H          -3.2923   -0.6129    1.1364 H       1  UNL1        0.0288
     41 H          -3.8752    1.3651    2.2564 H       1  UNL1        0.0464
     42 H          -3.0820    2.4188    1.0320 H       1  UNL1        0.0464
     43 H          -4.8629    3.0550    2.7509 H       1  UNL1        0.0651
     44 H          -6.6814    4.2609    3.9046 H       1  UNL1        0.0830
     45 H          -9.3690    3.0132    0.9200 H       1  UNL1        0.0830
     46 H          -7.5893    1.7848   -0.2754 H       1  UNL1        0.0651
     47 H          -5.9268    1.6266   -1.4021 H       1  UNL1        0.0464
     48 H          -5.5041   -0.0234   -0.6837 H       1  UNL1        0.0464
     49 H          -3.6105    2.2221   -1.4798 H       1  UNL1        0.0288
     50 H          -4.0283    0.8513   -2.5578 H       1  UNL1        0.0288
     51 H          -2.9713   -4.0648   -0.3007 H       1  UNL1        0.0465
     52 H          -2.8407   -3.8054   -2.1182 H       1  UNL1        0.0465
     53 H          -0.6542   -4.3448   -2.1623 H       1  UNL1        0.0284
     54 H          -0.9508   -5.1505   -0.5979 H       1  UNL1        0.0284
     55 H           0.2603   -3.5578    0.5217 H       1  UNL1        0.0329
     56 H           1.5148   -1.7486   -0.7078 H       1  UNL1        0.0444
     57 H           0.5739   -2.1467   -2.1532 H       1  UNL1        0.0444
     58 H           2.0724   -4.3925   -1.0234 H       1  UNL1        0.1480
     59 H           3.7470   -0.9198   -1.2612 H       1  UNL1        0.0835
     60 H           5.9953   -2.8872   -1.5843 H       1  UNL1        0.0642
     61 H           8.1800   -1.8893   -0.3970 H       1  UNL1        0.0629
     62 H           9.0624    0.1120    0.9075 H       1  UNL1        0.0629
     63 H           9.3507    2.2584    2.0985 H       1  UNL1        0.0630
     64 H           9.1743    4.5368    3.2207 H       1  UNL1        0.0638
     65 H          -1.3736   -2.0667    1.0661 H       1  UNL1        0.0468
     66 H          -0.5766   -1.0659   -0.2245 H       1  UNL1        0.0468
@<TRIPOS>BOND
     1     1     2    2
     2     2     3    1
     3     3     4    1
     4     4     5    1
     5     5     6    1
     6     6     7    1
     7     7     8   ar
     8     8     9   ar
     9     9    10   ar
    10    10    11   ar
    11    11    12   ar
    12     6    13    1
    13    13    14    1
    14     2    15   am
    15    15    16    1
    16    16    17    1
    17    17    18    1
    18    18    19    1
    19    19    20    1
    20    20    21    1
    21    21    22    2
    22    21    23    2
    23    21    24    1
    24    24    25    2
    25    25    26    1
    26    26    27   ar
    27    27    28   ar
    28    28    29   ar
    29    29    30    1
    30    30    31   ar
    31    31    32   ar
    32    32    33   ar
    33    33    34    1
    34    33    35   ar
    35    29    36   ar
    36    18    37    1
    37    14     3    1
    38    37    15    1
    39    12     7   ar
    40    36    26   ar
    41    35    30   ar
    42     3    38    1
    43     4    39    1
    44     4    40    1
    45     5    41    1
    46     5    42    1
    47     8    43    1
    48     9    44    1
    49    11    45    1
    50    12    46    1
    51    13    47    1
    52    13    48    1
    53    14    49    1
    54    14    50    1
    55    16    51    1
    56    16    52    1
    57    17    53    1
    58    17    54    1
    59    18    55    1
    60    19    56    1
    61    19    57    1
    62    20    58    1
    63    24    59    1
    64    25    60    1
    65    27    61    1
    66    28    62    1
    67    31    63    1
    68    32    64    1
    69    37    65    1
    70    37    66    1
