
     RDKit          3D

 66 70  0  0  0  0  0  0  0  0999 V2000
   -4.1152   -1.4190   -1.9682 O   0  0  0  0  0  0  0  0  0  0  0  0
   -3.1244   -1.1373   -1.2387 C   0  0  0  0  0  0  0  0  0  0  0  0
   -2.8816    0.2616   -0.8337 C   0  0  0  0  0  0  0  0  0  0  0  0
   -2.9346    0.3374    0.6693 C   0  0  0  0  0  0  0  0  0  0  0  0
   -3.7202    1.5396    1.1507 C   0  0  0  0  0  0  0  0  0  0  0  0
   -5.0177    1.6553    0.5408 N   0  0  0  0  0  0  0  0  0  0  0  0
   -6.0831    2.3479    1.1820 C   0  0  0  0  0  0  0  0  0  0  0  0
   -5.8577    3.0478    2.3522 C   0  0  0  0  0  0  0  0  0  0  0  0
   -6.8960    3.7198    2.9831 C   0  0  0  0  0  0  0  0  0  0  0  0
   -8.1260    3.6795    2.4380 N   0  0  0  0  0  0  0  0  0  0  0  0
   -8.3697    3.0049    1.2997 C   0  0  0  0  0  0  0  0  0  0  0  0
   -7.3490    2.3145    0.6334 C   0  0  0  0  0  0  0  0  0  0  0  0
   -5.2240    1.0509   -0.7595 C   0  0  0  0  0  0  0  0  0  0  0  0
   -3.8829    1.1457   -1.4999 C   0  0  0  0  0  0  0  0  0  0  0  0
   -2.2774   -2.2038   -0.8377 N   0  0  0  0  0  0  0  0  0  0  0  0
   -2.3502   -3.6045   -1.1232 C   0  0  0  0  0  0  0  0  0  0  0  0
   -0.9454   -4.1624   -1.1159 C   0  0  0  0  0  0  0  0  0  0  0  0
   -0.1478   -3.1271   -0.4158 C   0  0  1  0  0  0  0  0  0  0  0  0
    1.0093   -2.5951   -1.2147 C   0  0  0  0  0  0  0  0  0  0  0  0
    1.9636   -3.5602   -1.5931 N   0  0  0  0  0  0  0  0  0  0  0  0
    3.2772   -3.0163   -2.4884 S   0  0  0  0  0  6  0  0  0  0  0  0
    4.1761   -4.2036   -2.7903 O   0  0  0  0  0  0  0  0  0  0  0  0
    2.9321   -2.4015   -3.8005 O   0  0  0  0  0  0  0  0  0  0  0  0
    4.2246   -1.8370   -1.5876 C   0  0  0  0  0  0  0  0  0  0  0  0
    5.4782   -2.0140   -1.2928 C   0  0  0  0  0  0  0  0  0  0  0  0
    6.2512   -1.0033   -0.5330 C   0  0  0  0  0  0  0  0  0  0  0  0
    7.5271   -1.0112   -0.1447 C   0  0  0  0  0  0  0  0  0  0  0  0
    8.0025    0.0480    0.5485 C   0  0  0  0  0  0  0  0  0  0  0  0
    7.1613    1.0651    0.8148 C   0  0  0  0  0  0  0  0  0  0  0  0
    7.3132    2.3299    1.5140 C   0  0  0  0  0  0  0  0  0  0  0  0
    8.3843    2.8414    2.1046 C   0  0  0  0  0  0  0  0  0  0  0  0
    8.3198    4.0411    2.7040 C   0  0  0  0  0  0  0  0  0  0  0  0
    7.1063    4.6965    2.6720 C   0  0  0  0  0  0  0  0  0  0  0  0
    6.5822    6.2633    3.3208 Cl  0  0  0  0  0  0  0  0  0  0  0  0
    6.0683    3.5232    1.7499 S   0  0  0  0  0  0  0  0  0  0  0  0
    5.6493    0.5227    0.0697 S   0  0  0  0  0  0  0  0  0  0  0  0
   -1.1041   -2.0221   -0.0061 C   0  0  0  0  0  0  0  0  0  0  0  0
   -1.8656    0.5676   -1.2188 H   0  0  0  0  0  0  0  0  0  0  0  0
   -1.8960    0.4864    1.0346 H   0  0  0  0  0  0  0  0  0  0  0  0
   -3.2923   -0.6129    1.1364 H   0  0  0  0  0  0  0  0  0  0  0  0
   -3.8752    1.3651    2.2564 H   0  0  0  0  0  0  0  0  0  0  0  0
   -3.0820    2.4188    1.0320 H   0  0  0  0  0  0  0  0  0  0  0  0
   -4.8629    3.0550    2.7509 H   0  0  0  0  0  0  0  0  0  0  0  0
   -6.6814    4.2609    3.9046 H   0  0  0  0  0  0  0  0  0  0  0  0
   -9.3690    3.0132    0.9200 H   0  0  0  0  0  0  0  0  0  0  0  0
   -7.5893    1.7848   -0.2754 H   0  0  0  0  0  0  0  0  0  0  0  0
   -5.9268    1.6266   -1.4021 H   0  0  0  0  0  0  0  0  0  0  0  0
   -5.5041   -0.0234   -0.6837 H   0  0  0  0  0  0  0  0  0  0  0  0
   -3.6105    2.2221   -1.4798 H   0  0  0  0  0  0  0  0  0  0  0  0
   -4.0283    0.8513   -2.5578 H   0  0  0  0  0  0  0  0  0  0  0  0
   -2.9713   -4.0648   -0.3007 H   0  0  0  0  0  0  0  0  0  0  0  0
   -2.8407   -3.8054   -2.1182 H   0  0  0  0  0  0  0  0  0  0  0  0
   -0.6542   -4.3448   -2.1623 H   0  0  0  0  0  0  0  0  0  0  0  0
   -0.9508   -5.1505   -0.5979 H   0  0  0  0  0  0  0  0  0  0  0  0
    0.2603   -3.5578    0.5217 H   0  0  0  0  0  0  0  0  0  0  0  0
    1.5148   -1.7486   -0.7078 H   0  0  0  0  0  0  0  0  0  0  0  0
    0.5739   -2.1467   -2.1532 H   0  0  0  0  0  0  0  0  0  0  0  0
    2.0724   -4.3925   -1.0234 H   0  0  0  0  0  0  0  0  0  0  0  0
    3.7470   -0.9198   -1.2612 H   0  0  0  0  0  0  0  0  0  0  0  0
    5.9953   -2.8872   -1.5843 H   0  0  0  0  0  0  0  0  0  0  0  0
    8.1800   -1.8893   -0.3970 H   0  0  0  0  0  0  0  0  0  0  0  0
    9.0624    0.1120    0.9075 H   0  0  0  0  0  0  0  0  0  0  0  0
    9.3507    2.2584    2.0985 H   0  0  0  0  0  0  0  0  0  0  0  0
    9.1743    4.5368    3.2207 H   0  0  0  0  0  0  0  0  0  0  0  0
   -1.3736   -2.0667    1.0661 H   0  0  0  0  0  0  0  0  0  0  0  0
   -0.5766   -1.0659   -0.2245 H   0  0  0  0  0  0  0  0  0  0  0  0
  1  2  2  0
  2  3  1  0
  3  4  1  0
  4  5  1  0
  5  6  1  0
  6  7  1  0
  7  8  2  0
  8  9  1  0
  9 10  2  0
 10 11  1  0
 11 12  2  0
  6 13  1  0
 13 14  1  0
  2 15  1  0
 15 16  1  0
 16 17  1  0
 17 18  1  0
 18 19  1  0
 19 20  1  0
 20 21  1  0
 21 22  2  0
 21 23  2  0
 21 24  1  0
 24 25  2  0
 25 26  1  0
 26 27  2  0
 27 28  1  0
 28 29  2  0
 29 30  1  0
 30 31  2  0
 31 32  1  0
 32 33  2  0
 33 34  1  0
 33 35  1  0
 29 36  1  0
 18 37  1  0
 14  3  1  0
 37 15  1  0
 12  7  1  0
 36 26  1  0
 35 30  1  0
  3 38  1  0
  4 39  1  0
  4 40  1  0
  5 41  1  0
  5 42  1  0
  8 43  1  0
  9 44  1  0
 11 45  1  0
 12 46  1  0
 13 47  1  0
 13 48  1  0
 14 49  1  0
 14 50  1  0
 16 51  1  0
 16 52  1  0
 17 53  1  0
 17 54  1  0
 18 55  1  1
 19 56  1  0
 19 57  1  0
 20 58  1  0
 24 59  1  0
 25 60  1  0
 27 61  1  0
 28 62  1  0
 31 63  1  0
 32 64  1  0
 37 65  1  0
 37 66  1  0
M  END
$$$$
