@<TRIPOS>MOLECULE
*****
 53 53 0 0 0
SMALL
GASTEIGER

@<TRIPOS>ATOM
      1 BR          0.0000    0.0000    0.0000 Br      1  UNL1        0.0000
      2 C           5.1441   -2.0272   -0.5786 C.3     2  UNL2       -0.0653
      3 C           3.8073   -2.1398   -1.2223 C.3     2  UNL2       -0.0552
      4 C           2.7248   -1.4916   -0.4675 C.3     2  UNL2       -0.0404
      5 C           2.6944   -0.0441   -0.2335 C.3     2  UNL2        0.0564
      6 C           3.8304    0.5257    0.5083 C.3     2  UNL2       -0.0404
      7 C           3.7043    2.0301    0.7349 C.3     2  UNL2       -0.0552
      8 C           3.6227    2.8317   -0.5134 C.3     2  UNL2       -0.0653
      9 C           1.3949    0.2334    0.5098 C.2     2  UNL2        0.3105
     10 O           1.1455    0.7360    1.6403 O.2     2  UNL2       -0.2505
     11 O           0.2361   -0.1425   -0.1975 O.3     2  UNL2       -0.4607
     12 C          -1.0547    0.0486    0.3552 C.3     2  UNL2        0.1133
     13 C          -1.7659   -1.2711    0.4572 C.3     2  UNL2        0.0278
     14 C          -3.2313   -1.0159    0.7067 C.3     2  UNL2       -0.0157
     15 C          -3.3135   -0.0665    1.9083 C.3     2  UNL2       -0.0044
     16 C          -3.2918    1.3080    1.3163 C.3     2  UNL2       -0.0044
     17 C          -3.2283    1.0736   -0.1802 C.3     2  UNL2       -0.0157
     18 C          -1.7673    1.0079   -0.5688 C.3     2  UNL2        0.0278
     19 N          -3.8479   -0.2119   -0.3237 N.4     2  UNL2        0.2435
     20 C          -3.7223   -0.7798   -1.6471 C.3     2  UNL2       -0.0410
     21 C          -5.2546   -0.1063   -0.0288 C.3     2  UNL2       -0.0410
     22 H           5.8373   -1.3425   -1.0966 H       2  UNL2        0.0230
     23 H           5.0965   -1.7809    0.4981 H       2  UNL2        0.0230
     24 H           5.6956   -3.0284   -0.6225 H       2  UNL2        0.0230
     25 H           3.5864   -3.2554   -1.2676 H       2  UNL2        0.0263
     26 H           3.8267   -1.8611   -2.3074 H       2  UNL2        0.0263
     27 H           1.7261   -1.7576   -0.9743 H       2  UNL2        0.0273
     28 H           2.5883   -2.0073    0.5305 H       2  UNL2        0.0273
     29 H           2.5877    0.4303   -1.2709 H       2  UNL2        0.0413
     30 H           4.7462    0.4180   -0.1204 H       2  UNL2        0.0273
     31 H           3.9431    0.0510    1.4805 H       2  UNL2        0.0273
     32 H           2.8900    2.2818    1.4487 H       2  UNL2        0.0263
     33 H           4.6442    2.3297    1.2536 H       2  UNL2        0.0263
     34 H           3.0902    3.7977   -0.2675 H       2  UNL2        0.0230
     35 H           4.6270    3.1481   -0.8876 H       2  UNL2        0.0230
     36 H           3.0601    2.4102   -1.3416 H       2  UNL2        0.0230
     37 H          -0.9782    0.5088    1.3589 H       2  UNL2        0.0738
     38 H          -1.3837   -1.7955    1.3594 H       2  UNL2        0.0356
     39 H          -1.5867   -1.9347   -0.4043 H       2  UNL2        0.0356
     40 H          -3.7749   -1.9516    0.8924 H       2  UNL2        0.0853
     41 H          -2.4606   -0.2167    2.5762 H       2  UNL2        0.0322
     42 H          -4.2413   -0.2877    2.4666 H       2  UNL2        0.0322
     43 H          -2.4265    1.9228    1.6363 H       2  UNL2        0.0322
     44 H          -4.2106    1.9002    1.5084 H       2  UNL2        0.0322
     45 H          -3.6843    1.8682   -0.7748 H       2  UNL2        0.0853
     46 H          -1.6349    0.6280   -1.5976 H       2  UNL2        0.0356
     47 H          -1.3012    1.9948   -0.4691 H       2  UNL2        0.0356
     48 H          -4.0616    0.0072   -2.3537 H       2  UNL2        0.0778
     49 H          -4.4563   -1.6289   -1.6727 H       2  UNL2        0.0778
     50 H          -2.7129   -1.0993   -1.9164 H       2  UNL2        0.0778
     51 H          -5.4533    0.3776    0.9586 H       2  UNL2        0.0778
     52 H          -5.6951   -1.1263    0.0469 H       2  UNL2        0.0778
     53 H          -5.7104    0.5015   -0.8458 H       2  UNL2        0.0778
@<TRIPOS>UNITY_ATOM_ATTR
1 1
charge -1
19 1
charge 1
@<TRIPOS>BOND
     1     2     3    1
     2     3     4    1
     3     4     5    1
     4     5     6    1
     5     6     7    1
     6     7     8    1
     7     5     9    1
     8     9    10    2
     9     9    11    1
    10    11    12    1
    11    12    13    1
    12    13    14    1
    13    14    15    1
    14    15    16    1
    15    16    17    1
    16    17    18    1
    17    17    19    1
    18    19    20    1
    19    19    21    1
    20    18    12    1
    21    19    14    1
    22     2    22    1
    23     2    23    1
    24     2    24    1
    25     3    25    1
    26     3    26    1
    27     4    27    1
    28     4    28    1
    29     5    29    1
    30     6    30    1
    31     6    31    1
    32     7    32    1
    33     7    33    1
    34     8    34    1
    35     8    35    1
    36     8    36    1
    37    12    37    1
    38    13    38    1
    39    13    39    1
    40    14    40    1
    41    15    41    1
    42    15    42    1
    43    16    43    1
    44    16    44    1
    45    17    45    1
    46    18    46    1
    47    18    47    1
    48    20    48    1
    49    20    49    1
    50    20    50    1
    51    21    51    1
    52    21    52    1
    53    21    53    1
