@<TRIPOS>MOLECULE
*****
 50 53 0 0 0
SMALL
GASTEIGER

@<TRIPOS>ATOM
      1 O          -3.8303    0.3068    1.5480 O.2     1  UNL1       -0.2702
      2 C          -3.4027   -0.4543    0.6725 C.2     1  UNL1        0.2441
      3 N          -4.2614   -1.3729    0.0352 N.am    1  UNL1       -0.3110
      4 C          -5.6608   -1.5111    0.2915 C.3     1  UNL1        0.0169
      5 C          -6.4776   -0.3694   -0.1159 C.3     1  UNL1        0.0001
      6 C          -6.2686    0.9827    0.4584 C.3     1  UNL1       -0.0231
      7 C          -7.6238    1.6206   -0.0119 C.3     1  UNL1        0.0480
      8 O          -8.5085    0.6688    0.4176 O.3     1  UNL1       -0.3794
      9 C          -7.9625   -0.5710    0.2267 C.3     1  UNL1        0.0520
     10 C          -1.9633   -0.3467    0.3387 C.ar    1  UNL1        0.0368
     11 C          -1.3575   -1.1225   -0.6147 C.ar    1  UNL1       -0.0479
     12 C           0.0103   -0.9821   -0.8935 C.ar    1  UNL1       -0.0397
     13 C           0.7896   -0.0678   -0.2259 C.ar    1  UNL1        0.0348
     14 N           2.1882    0.0821   -0.5046 N.am    1  UNL1       -0.2693
     15 C           3.1243   -0.6991    0.2228 C.2     1  UNL1        0.3070
     16 O           2.7126   -1.5060    1.0957 O.2     1  UNL1       -0.2523
     17 N           4.5000   -0.5696   -0.0327 N.am    1  UNL1       -0.2767
     18 C           5.1132    0.3017   -0.9903 C.3     1  UNL1        0.0418
     19 C           6.3807    0.7010   -0.3377 C.ar    1  UNL1       -0.0254
     20 C           7.2542    1.7656   -0.5119 C.ar    1  UNL1       -0.0568
     21 C           8.3678    1.8567    0.2601 C.ar    1  UNL1       -0.0614
     22 C           8.6511    0.9171    1.2125 C.ar    1  UNL1       -0.0614
     23 C           7.7876   -0.1508    1.3970 C.ar    1  UNL1       -0.0568
     24 C           6.6570   -0.2494    0.6181 C.ar    1  UNL1       -0.0254
     25 C           5.5699   -1.2847    0.6143 C.3     1  UNL1        0.0418
     26 C           0.1821    0.7134    0.7334 C.ar    1  UNL1       -0.0397
     27 C          -1.1653    0.5680    1.0010 C.ar    1  UNL1       -0.0479
     28 H          -3.8190   -2.0334   -0.7163 H       1  UNL1        0.1490
     29 H          -6.0625   -2.4174   -0.2385 H       1  UNL1        0.0465
     30 H          -5.8123   -1.6636    1.4002 H       1  UNL1        0.0465
     31 H          -6.4342   -0.2070   -1.2567 H       1  UNL1        0.0339
     32 H          -6.3416    1.0690    1.5457 H       1  UNL1        0.0291
     33 H          -5.4576    1.5842   -0.0132 H       1  UNL1        0.0291
     34 H          -7.5664    1.6131   -1.1064 H       1  UNL1        0.0560
     35 H          -7.7537    2.5987    0.4498 H       1  UNL1        0.0560
     36 H          -7.9736   -1.1081    1.1990 H       1  UNL1        0.0563
     37 H          -8.4512   -1.1857   -0.5402 H       1  UNL1        0.0563
     38 H          -1.9289   -1.8518   -1.1631 H       1  UNL1        0.0626
     39 H           0.4737   -1.5946   -1.6417 H       1  UNL1        0.0636
     40 H           2.4863    0.7659   -1.2399 H       1  UNL1        0.1564
     41 H           4.4842    1.1781   -1.2568 H       1  UNL1        0.0514
     42 H           5.3361   -0.2515   -1.9480 H       1  UNL1        0.0514
     43 H           6.9917    2.4976   -1.2856 H       1  UNL1        0.0621
     44 H           9.0530    2.6939    0.1217 H       1  UNL1        0.0618
     45 H           9.5474    1.0049    1.8224 H       1  UNL1        0.0618
     46 H           8.0327   -0.8908    2.1637 H       1  UNL1        0.0621
     47 H           5.3524   -1.4890    1.6999 H       1  UNL1        0.0514
     48 H           5.9053   -2.1743    0.0783 H       1  UNL1        0.0514
     49 H           0.7810    1.4459    1.2761 H       1  UNL1        0.0636
     50 H          -1.6492    1.1890    1.7639 H       1  UNL1        0.0626
@<TRIPOS>BOND
     1     1     2    2
     2     2     3   am
     3     3     4    1
     4     4     5    1
     5     5     6    1
     6     6     7    1
     7     7     8    1
     8     8     9    1
     9     2    10    1
    10    10    11   ar
    11    11    12   ar
    12    12    13   ar
    13    13    14    1
    14    14    15   am
    15    15    16    2
    16    15    17   am
    17    17    18    1
    18    18    19    1
    19    19    20   ar
    20    20    21   ar
    21    21    22   ar
    22    22    23   ar
    23    23    24   ar
    24    24    25    1
    25    13    26   ar
    26    26    27   ar
    27     9     5    1
    28    27    10   ar
    29    25    17    1
    30    24    19   ar
    31     3    28    1
    32     4    29    1
    33     4    30    1
    34     5    31    1
    35     6    32    1
    36     6    33    1
    37     7    34    1
    38     7    35    1
    39     9    36    1
    40     9    37    1
    41    11    38    1
    42    12    39    1
    43    14    40    1
    44    18    41    1
    45    18    42    1
    46    20    43    1
    47    21    44    1
    48    22    45    1
    49    23    46    1
    50    25    47    1
    51    25    48    1
    52    26    49    1
    53    27    50    1
