
     RDKit          3D

 52 56  0  0  0  0  0  0  0  0999 V2000
    6.9055   -2.3991   -0.0605 C   0  0  0  0  0  0  0  0  0  0  0  0
    5.5421   -1.8575    0.0768 N   0  0  0  0  0  0  0  0  0  0  0  0
    4.7677   -1.9282    1.1451 N   0  0  0  0  0  0  0  0  0  0  0  0
    3.5884   -1.3295    0.9303 C   0  0  0  0  0  0  0  0  0  0  0  0
    2.4428   -1.1647    1.8183 C   0  0  0  0  0  0  0  0  0  0  0  0
    2.4544   -1.6668    3.1077 C   0  0  0  0  0  0  0  0  0  0  0  0
    1.4378   -1.5539    3.9766 N   0  0  0  0  0  0  0  0  0  0  0  0
    0.3213   -0.9057    3.5701 C   0  0  0  0  0  0  0  0  0  0  0  0
   -0.8568   -0.6050    4.1385 N   0  0  0  0  0  0  0  0  0  0  0  0
   -1.6287    0.0717    3.2646 C   0  0  0  0  0  0  0  0  0  0  0  0
   -0.9311    0.2183    2.0859 C   0  0  0  0  0  0  0  0  0  0  0  0
   -1.4071    0.8923    0.8857 C   0  0  0  0  0  0  0  0  0  0  0  0
   -0.6338    1.3275    0.0089 O   0  0  0  0  0  0  0  0  0  0  0  0
   -2.8277    1.0617    0.7056 N   0  0  0  0  0  0  0  0  0  0  0  0
   -3.3757    1.7148   -0.4480 C   0  0  0  0  0  0  0  0  0  0  0  0
   -2.9049    3.1494   -0.5960 C   0  0  0  0  0  0  0  0  0  0  0  0
   -4.8890    1.7623   -0.2740 C   0  0  0  0  0  0  0  0  0  0  0  0
   -5.6080    0.8254   -1.2103 C   0  0  0  0  0  0  0  0  0  0  0  0
   -5.0213   -0.4720   -1.2997 N   0  0  0  0  0  0  0  0  0  0  0  0
   -3.5817   -0.4836   -1.4318 C   0  0  0  0  0  0  0  0  0  0  0  0
   -3.1340    0.9328   -1.7235 C   0  0  0  0  0  0  0  0  0  0  0  0
    0.2786   -0.3934    2.2896 C   0  0  0  0  0  0  0  0  0  0  0  0
    1.3247   -0.5239    1.4332 N   0  0  0  0  0  0  0  0  0  0  0  0
    3.6557   -0.8625   -0.3662 C   0  0  0  0  0  0  0  0  0  0  0  0
    2.7718   -0.1706   -1.1624 C   0  0  0  0  0  0  0  0  0  0  0  0
    3.1051    0.1782   -2.4543 C   0  0  0  0  0  0  0  0  0  0  0  0
    4.3432   -0.1585   -2.9895 C   0  0  0  0  0  0  0  0  0  0  0  0
    4.6430    0.1948   -4.2545 F   0  0  0  0  0  0  0  0  0  0  0  0
    5.2199   -0.8542   -2.1733 C   0  0  0  0  0  0  0  0  0  0  0  0
    4.8842   -1.2002   -0.8863 C   0  0  0  0  0  0  0  0  0  0  0  0
    7.4972   -1.7335   -0.7020 H   0  0  0  0  0  0  0  0  0  0  0  0
    7.3188   -2.4118    0.9790 H   0  0  0  0  0  0  0  0  0  0  0  0
    6.8196   -3.4354   -0.4294 H   0  0  0  0  0  0  0  0  0  0  0  0
    3.3607   -2.1868    3.4215 H   0  0  0  0  0  0  0  0  0  0  0  0
   -1.1523   -0.8497    5.1149 H   0  0  0  0  0  0  0  0  0  0  0  0
   -2.6378    0.4488    3.4406 H   0  0  0  0  0  0  0  0  0  0  0  0
   -3.4453    0.6736    1.4787 H   0  0  0  0  0  0  0  0  0  0  0  0
   -1.8430    3.2091   -0.8784 H   0  0  0  0  0  0  0  0  0  0  0  0
   -3.5474    3.6006   -1.4071 H   0  0  0  0  0  0  0  0  0  0  0  0
   -3.1071    3.6725    0.3597 H   0  0  0  0  0  0  0  0  0  0  0  0
   -5.1856    1.4847    0.7604 H   0  0  0  0  0  0  0  0  0  0  0  0
   -5.2888    2.7892   -0.4653 H   0  0  0  0  0  0  0  0  0  0  0  0
   -6.6347    0.6792   -0.7593 H   0  0  0  0  0  0  0  0  0  0  0  0
   -5.8231    1.2981   -2.1969 H   0  0  0  0  0  0  0  0  0  0  0  0
   -5.3960   -1.1780   -0.6548 H   0  0  0  0  0  0  0  0  0  0  0  0
   -3.2229   -1.1730   -2.2376 H   0  0  0  0  0  0  0  0  0  0  0  0
   -3.0957   -0.7729   -0.4538 H   0  0  0  0  0  0  0  0  0  0  0  0
   -2.1108    1.0075   -2.1029 H   0  0  0  0  0  0  0  0  0  0  0  0
   -3.8024    1.3505   -2.4937 H   0  0  0  0  0  0  0  0  0  0  0  0
    1.8035    0.1123   -0.7936 H   0  0  0  0  0  0  0  0  0  0  0  0
    2.4310    0.7226   -3.1061 H   0  0  0  0  0  0  0  0  0  0  0  0
    6.1757   -1.1073   -2.6069 H   0  0  0  0  0  0  0  0  0  0  0  0
  1  2  1  0
  2  3  1  0
  3  4  2  0
  4  5  1  0
  5  6  2  0
  6  7  1  0
  7  8  2  0
  8  9  1  0
  9 10  1  0
 10 11  2  0
 11 12  1  0
 12 13  2  0
 12 14  1  0
 14 15  1  0
 15 16  1  0
 15 17  1  0
 17 18  1  0
 18 19  1  0
 19 20  1  0
 20 21  1  0
 11 22  1  0
 22 23  2  0
  4 24  1  0
 24 25  2  0
 25 26  1  0
 26 27  2  0
 27 28  1  0
 27 29  1  0
 29 30  2  0
 30  2  1  0
 23  5  1  0
 30 24  1  0
 22  8  1  0
 21 15  1  0
  1 31  1  0
  1 32  1  0
  1 33  1  0
  6 34  1  0
  9 35  1  0
 10 36  1  0
 14 37  1  0
 16 38  1  0
 16 39  1  0
 16 40  1  0
 17 41  1  0
 17 42  1  0
 18 43  1  0
 18 44  1  0
 19 45  1  0
 20 46  1  0
 20 47  1  0
 21 48  1  0
 21 49  1  0
 25 50  1  0
 26 51  1  0
 29 52  1  0
M  END
$$$$
