@<TRIPOS>MOLECULE
*****
 52 56 0 0 0
SMALL
GASTEIGER

@<TRIPOS>ATOM
      1 C           6.9055   -2.3991   -0.0605 C.3     1  UNL1        0.0309
      2 N           5.5421   -1.8575    0.0768 N.ar    1  UNL1       -0.2660
      3 N           4.7677   -1.9282    1.1451 N.ar    1  UNL1       -0.1687
      4 C           3.5884   -1.3295    0.9303 C.ar    1  UNL1        0.1201
      5 C           2.4428   -1.1647    1.8183 C.ar    1  UNL1        0.1104
      6 C           2.4544   -1.6668    3.1077 C.ar    1  UNL1        0.0575
      7 N           1.4378   -1.5539    3.9766 N.ar    1  UNL1       -0.2338
      8 C           0.3213   -0.9057    3.5701 C.ar    1  UNL1        0.1574
      9 N          -0.8568   -0.6050    4.1385 N.ar    1  UNL1       -0.3438
     10 C          -1.6287    0.0717    3.2646 C.ar    1  UNL1        0.0178
     11 C          -0.9311    0.2183    2.0859 C.ar    1  UNL1        0.0815
     12 C          -1.4071    0.8923    0.8857 C.2     1  UNL1        0.2481
     13 O          -0.6338    1.3275    0.0089 O.2     1  UNL1       -0.2701
     14 N          -2.8277    1.0617    0.7056 N.am    1  UNL1       -0.3059
     15 C          -3.3757    1.7148   -0.4480 C.3     1  UNL1        0.0344
     16 C          -2.9049    3.1494   -0.5960 C.3     1  UNL1       -0.0436
     17 C          -4.8890    1.7623   -0.2740 C.3     1  UNL1       -0.0192
     18 C          -5.6080    0.8254   -1.2103 C.3     1  UNL1       -0.0022
     19 N          -5.0213   -0.4720   -1.2997 N.3     1  UNL1       -0.3158
     20 C          -3.5817   -0.4836   -1.4318 C.3     1  UNL1       -0.0022
     21 C          -3.1340    0.9328   -1.7235 C.3     1  UNL1       -0.0192
     22 C           0.2786   -0.3934    2.2896 C.ar    1  UNL1        0.1202
     23 N           1.3247   -0.5239    1.4332 N.ar    1  UNL1       -0.2397
     24 C           3.6557   -0.8625   -0.3662 C.ar    1  UNL1        0.0293
     25 C           2.7718   -0.1706   -1.1624 C.ar    1  UNL1       -0.0477
     26 C           3.1051    0.1782   -2.4543 C.ar    1  UNL1       -0.0257
     27 C           4.3432   -0.1585   -2.9895 C.ar    1  UNL1        0.1254
     28 F           4.6430    0.1948   -4.2545 F       1  UNL1       -0.2054
     29 C           5.2199   -0.8542   -2.1733 C.ar    1  UNL1       -0.0008
     30 C           4.8842   -1.2002   -0.8863 C.ar    1  UNL1        0.0720
     31 H           7.4972   -1.7335   -0.7020 H       1  UNL1        0.0473
     32 H           7.3188   -2.4118    0.9790 H       1  UNL1        0.0473
     33 H           6.8196   -3.4354   -0.4294 H       1  UNL1        0.0473
     34 H           3.3607   -2.1868    3.4215 H       1  UNL1        0.0853
     35 H          -1.1523   -0.8497    5.1149 H       1  UNL1        0.1668
     36 H          -2.6378    0.4488    3.4406 H       1  UNL1        0.0816
     37 H          -3.4453    0.6736    1.4787 H       1  UNL1        0.1495
     38 H          -1.8430    3.2091   -0.8784 H       1  UNL1        0.0250
     39 H          -3.5474    3.6006   -1.4071 H       1  UNL1        0.0250
     40 H          -3.1071    3.6725    0.3597 H       1  UNL1        0.0250
     41 H          -5.1856    1.4847    0.7604 H       1  UNL1        0.0298
     42 H          -5.2888    2.7892   -0.4653 H       1  UNL1        0.0298
     43 H          -6.6347    0.6792   -0.7593 H       1  UNL1        0.0425
     44 H          -5.8231    1.2981   -2.1969 H       1  UNL1        0.0425
     45 H          -5.3960   -1.1780   -0.6548 H       1  UNL1        0.1219
     46 H          -3.2229   -1.1730   -2.2376 H       1  UNL1        0.0425
     47 H          -3.0957   -0.7729   -0.4538 H       1  UNL1        0.0425
     48 H          -2.1108    1.0075   -2.1029 H       1  UNL1        0.0298
     49 H          -3.8024    1.3505   -2.4937 H       1  UNL1        0.0298
     50 H           1.8035    0.1123   -0.7936 H       1  UNL1        0.0626
     51 H           2.4310    0.7226   -3.1061 H       1  UNL1        0.0646
     52 H           6.1757   -1.1073   -2.6069 H       1  UNL1        0.0667
@<TRIPOS>BOND
     1     1     2    1
     2     2     3   ar
     3     3     4   ar
     4     4     5    1
     5     5     6   ar
     6     6     7   ar
     7     7     8   ar
     8     8     9   ar
     9     9    10   ar
    10    10    11   ar
    11    11    12    1
    12    12    13    2
    13    12    14   am
    14    14    15    1
    15    15    16    1
    16    15    17    1
    17    17    18    1
    18    18    19    1
    19    19    20    1
    20    20    21    1
    21    11    22   ar
    22    22    23   ar
    23     4    24   ar
    24    24    25   ar
    25    25    26   ar
    26    26    27   ar
    27    27    28    1
    28    27    29   ar
    29    29    30   ar
    30    30     2   ar
    31    23     5   ar
    32    30    24   ar
    33    22     8   ar
    34    21    15    1
    35     1    31    1
    36     1    32    1
    37     1    33    1
    38     6    34    1
    39     9    35    1
    40    10    36    1
    41    14    37    1
    42    16    38    1
    43    16    39    1
    44    16    40    1
    45    17    41    1
    46    17    42    1
    47    18    43    1
    48    18    44    1
    49    19    45    1
    50    20    46    1
    51    20    47    1
    52    21    48    1
    53    21    49    1
    54    25    50    1
    55    26    51    1
    56    29    52    1
