@<TRIPOS>MOLECULE
*****
 12 12 0 0 0
SMALL
GASTEIGER

@<TRIPOS>ATOM
      1 F           2.6650    0.5238    0.1209 F       1  UNL1       -0.1983
      2 C           1.3142    0.3216    0.0651 C.ar    1  UNL1        0.2033
      3 C           0.3670    1.3047    0.1232 C.ar    1  UNL1        0.0470
      4 N          -0.9549    1.0078    0.0601 N.ar    1  UNL1       -0.3115
      5 C          -1.3650   -0.2507   -0.0604 C.ar    1  UNL1        0.3269
      6 O          -2.5778   -0.5789   -0.1232 O.2     1  UNL1       -0.2467
      7 N          -0.4170   -1.2007   -0.1157 N.ar    1  UNL1       -0.2727
      8 C           0.9310   -1.0159   -0.0614 C.ar    1  UNL1        0.2894
      9 O           1.6807   -2.0234   -0.1273 O.2     1  UNL1       -0.2646
     10 H           0.7558    2.3200    0.2221 H       1  UNL1        0.0839
     11 H          -1.6439    1.7951    0.1086 H       1  UNL1        0.1699
     12 H          -0.7551   -2.2033   -0.2119 H       1  UNL1        0.1735
@<TRIPOS>BOND
     1     1     2    1
     2     2     3   ar
     3     3     4   ar
     4     4     5   ar
     5     5     6    2
     6     5     7   ar
     7     7     8   ar
     8     8     9    2
     9     8     2   ar
    10     3    10    1
    11     4    11    1
    12     7    12    1
