
     RDKit          3D

 12 12  0  0  0  0  0  0  0  0999 V2000
    2.6650    0.5238    0.1209 F   0  0  0  0  0  0  0  0  0  0  0  0
    1.3142    0.3216    0.0651 C   0  0  0  0  0  0  0  0  0  0  0  0
    0.3670    1.3047    0.1232 C   0  0  0  0  0  0  0  0  0  0  0  0
   -0.9549    1.0078    0.0601 N   0  0  0  0  0  0  0  0  0  0  0  0
   -1.3650   -0.2507   -0.0604 C   0  0  0  0  0  0  0  0  0  0  0  0
   -2.5778   -0.5789   -0.1232 O   0  0  0  0  0  0  0  0  0  0  0  0
   -0.4170   -1.2007   -0.1157 N   0  0  0  0  0  0  0  0  0  0  0  0
    0.9310   -1.0159   -0.0614 C   0  0  0  0  0  0  0  0  0  0  0  0
    1.6807   -2.0234   -0.1273 O   0  0  0  0  0  0  0  0  0  0  0  0
    0.7558    2.3200    0.2221 H   0  0  0  0  0  0  0  0  0  0  0  0
   -1.6439    1.7951    0.1086 H   0  0  0  0  0  0  0  0  0  0  0  0
   -0.7551   -2.2033   -0.2119 H   0  0  0  0  0  0  0  0  0  0  0  0
  1  2  1  0
  2  3  2  0
  3  4  1  0
  4  5  1  0
  5  6  2  0
  5  7  1  0
  7  8  1  0
  8  9  2  0
  8  2  1  0
  3 10  1  0
  4 11  1  0
  7 12  1  0
M  END
$$$$
