@<TRIPOS>MOLECULE
*****
 52 57 0 0 0
SMALL
GASTEIGER

@<TRIPOS>ATOM
      1 C           4.1302   -1.6561   -3.1140 C.3     1  UNL1       -0.0361
      2 C           3.4813   -1.1121   -1.8888 C.ar    1  UNL1       -0.0041
      3 C           2.1273   -1.0559   -1.7205 C.ar    1  UNL1       -0.0324
      4 C           1.5422   -0.5487   -0.5789 C.ar    1  UNL1        0.0545
      5 N           0.1324   -0.4980   -0.4136 N.am    1  UNL1       -0.2529
      6 C          -0.5752   -1.5744    0.1908 C.2     1  UNL1        0.2553
      7 O          -0.1359   -2.6557    0.6554 O.2     1  UNL1       -0.2695
      8 C          -1.9944   -1.2347    0.2038 C.ar    1  UNL1        0.0834
      9 C          -3.2589   -1.6502    0.5570 C.ar    1  UNL1        0.0785
     10 C          -3.5604   -2.9396    1.2120 C.3     1  UNL1        0.0039
     11 C          -3.8564   -4.1614    0.4577 C.3     1  UNL1       -0.0441
     12 C          -5.0470   -3.3747    1.0475 C.3     1  UNL1       -0.0441
     13 N          -4.0953   -0.6773    0.1924 N.ar    1  UNL1       -0.1751
     14 N          -3.4538    0.3309   -0.3690 N.ar    1  UNL1       -0.2682
     15 C          -4.0304    1.5766   -0.8961 C.3     1  UNL1        0.0306
     16 C          -2.1453    0.0044   -0.3718 C.ar    1  UNL1        0.0765
     17 C          -0.8092    0.5035   -0.7703 C.3     1  UNL1        0.0988
     18 C          -0.6101    1.8276   -0.1779 C.ar    1  UNL1       -0.0207
     19 C          -0.3217    2.0416    1.1533 C.ar    1  UNL1       -0.0550
     20 C          -0.1370    3.2868    1.7095 C.ar    1  UNL1       -0.0431
     21 C          -0.2472    4.3811    0.8853 C.ar    1  UNL1        0.0410
     22 CL         -0.0166    5.9811    1.5672 Cl      1  UNL1       -0.0835
     23 C          -0.5351    4.1920   -0.4503 C.ar    1  UNL1       -0.0431
     24 C          -0.7163    2.9375   -0.9870 C.ar    1  UNL1       -0.0550
     25 C           2.3710   -0.0893    0.4112 C.ar    1  UNL1        0.0345
     26 N           3.7127   -0.1269    0.2844 N.ar    1  UNL1       -0.2798
     27 C           4.7141    0.2719    1.1346 C.ar    1  UNL1        0.2041
     28 C           4.5256    0.8759    2.4779 C.3     1  UNL1        0.2980
     29 F           5.1777    2.0908    2.5094 F       1  UNL1       -0.2005
     30 F           5.0612   -0.0148    3.4008 F       1  UNL1       -0.2005
     31 N           5.8553   -0.0023    0.4906 N.ar    1  UNL1       -0.1278
     32 N           5.5966   -0.5380   -0.6869 N.ar    1  UNL1       -0.1290
     33 C           4.2555   -0.6250   -0.8357 C.ar    1  UNL1        0.1642
     34 H           3.4527   -1.5297   -3.9818 H       1  UNL1        0.0279
     35 H           4.2361   -2.7635   -2.9262 H       1  UNL1        0.0279
     36 H           5.1185   -1.1909   -3.2995 H       1  UNL1        0.0279
     37 H           1.4999   -1.4267   -2.5208 H       1  UNL1        0.0640
     38 H          -3.1835   -3.0239    2.2491 H       1  UNL1        0.0365
     39 H          -3.8363   -4.1983   -0.6415 H       1  UNL1        0.0272
     40 H          -3.6082   -5.1259    0.9903 H       1  UNL1        0.0272
     41 H          -5.5172   -3.8307    1.9547 H       1  UNL1        0.0272
     42 H          -5.6646   -2.7994    0.3585 H       1  UNL1        0.0272
     43 H          -5.1346    1.5202   -0.8056 H       1  UNL1        0.0473
     44 H          -3.8144    1.6708   -1.9869 H       1  UNL1        0.0473
     45 H          -3.6994    2.4462   -0.3143 H       1  UNL1        0.0473
     46 H          -0.7390    0.6160   -1.8920 H       1  UNL1        0.0620
     47 H          -0.2384    1.1823    1.7849 H       1  UNL1        0.0621
     48 H           0.0915    3.4163    2.7750 H       1  UNL1        0.0632
     49 H          -0.6097    5.1002   -1.0533 H       1  UNL1        0.0632
     50 H          -0.9379    2.8754   -2.0377 H       1  UNL1        0.0621
     51 H           1.9911    0.3284    1.3528 H       1  UNL1        0.0833
     52 H           3.4567    0.9666    2.7144 H       1  UNL1        0.1105
@<TRIPOS>BOND
     1     1     2    1
     2     2     3   ar
     3     3     4   ar
     4     4     5    1
     5     5     6   am
     6     6     7    2
     7     6     8    1
     8     8     9   ar
     9     9    10    1
    10    10    11    1
    11    11    12    1
    12     9    13   ar
    13    13    14   ar
    14    14    15    1
    15    14    16   ar
    16    16    17    1
    17    17    18    1
    18    18    19   ar
    19    19    20   ar
    20    20    21   ar
    21    21    22    1
    22    21    23   ar
    23    23    24   ar
    24     4    25   ar
    25    25    26   ar
    26    26    27   ar
    27    27    28    1
    28    28    29    1
    29    28    30    1
    30    27    31   ar
    31    31    32   ar
    32    32    33   ar
    33    33     2   ar
    34    17     5    1
    35    24    18   ar
    36    33    26   ar
    37    16     8   ar
    38    12    10    1
    39     1    34    1
    40     1    35    1
    41     1    36    1
    42     3    37    1
    43    10    38    1
    44    11    39    1
    45    11    40    1
    46    12    41    1
    47    12    42    1
    48    15    43    1
    49    15    44    1
    50    15    45    1
    51    17    46    1
    52    19    47    1
    53    20    48    1
    54    23    49    1
    55    24    50    1
    56    25    51    1
    57    28    52    1
