
     RDKit          3D

 52 57  0  0  0  0  0  0  0  0999 V2000
    4.1302   -1.6561   -3.1140 C   0  0  0  0  0  0  0  0  0  0  0  0
    3.4813   -1.1121   -1.8888 C   0  0  0  0  0  0  0  0  0  0  0  0
    2.1273   -1.0559   -1.7205 C   0  0  0  0  0  0  0  0  0  0  0  0
    1.5422   -0.5487   -0.5789 C   0  0  0  0  0  0  0  0  0  0  0  0
    0.1324   -0.4980   -0.4136 N   0  0  0  0  0  0  0  0  0  0  0  0
   -0.5752   -1.5744    0.1908 C   0  0  0  0  0  0  0  0  0  0  0  0
   -0.1359   -2.6557    0.6554 O   0  0  0  0  0  0  0  0  0  0  0  0
   -1.9944   -1.2347    0.2038 C   0  0  0  0  0  0  0  0  0  0  0  0
   -3.2589   -1.6502    0.5570 C   0  0  0  0  0  0  0  0  0  0  0  0
   -3.5604   -2.9396    1.2120 C   0  0  0  0  0  0  0  0  0  0  0  0
   -3.8564   -4.1614    0.4577 C   0  0  0  0  0  0  0  0  0  0  0  0
   -5.0470   -3.3747    1.0475 C   0  0  0  0  0  0  0  0  0  0  0  0
   -4.0953   -0.6773    0.1924 N   0  0  0  0  0  0  0  0  0  0  0  0
   -3.4538    0.3309   -0.3690 N   0  0  0  0  0  0  0  0  0  0  0  0
   -4.0304    1.5766   -0.8961 C   0  0  0  0  0  0  0  0  0  0  0  0
   -2.1453    0.0044   -0.3718 C   0  0  0  0  0  0  0  0  0  0  0  0
   -0.8092    0.5035   -0.7703 C   0  0  1  0  0  0  0  0  0  0  0  0
   -0.6101    1.8276   -0.1779 C   0  0  0  0  0  0  0  0  0  0  0  0
   -0.3217    2.0416    1.1533 C   0  0  0  0  0  0  0  0  0  0  0  0
   -0.1370    3.2868    1.7095 C   0  0  0  0  0  0  0  0  0  0  0  0
   -0.2472    4.3811    0.8853 C   0  0  0  0  0  0  0  0  0  0  0  0
   -0.0166    5.9811    1.5672 Cl  0  0  0  0  0  0  0  0  0  0  0  0
   -0.5351    4.1920   -0.4503 C   0  0  0  0  0  0  0  0  0  0  0  0
   -0.7163    2.9375   -0.9870 C   0  0  0  0  0  0  0  0  0  0  0  0
    2.3710   -0.0893    0.4112 C   0  0  0  0  0  0  0  0  0  0  0  0
    3.7127   -0.1269    0.2844 N   0  0  0  0  0  0  0  0  0  0  0  0
    4.7141    0.2719    1.1346 C   0  0  0  0  0  0  0  0  0  0  0  0
    4.5256    0.8759    2.4779 C   0  0  0  0  0  0  0  0  0  0  0  0
    5.1777    2.0908    2.5094 F   0  0  0  0  0  0  0  0  0  0  0  0
    5.0612   -0.0148    3.4008 F   0  0  0  0  0  0  0  0  0  0  0  0
    5.8553   -0.0023    0.4906 N   0  0  0  0  0  0  0  0  0  0  0  0
    5.5966   -0.5380   -0.6869 N   0  0  0  0  0  0  0  0  0  0  0  0
    4.2555   -0.6250   -0.8357 C   0  0  0  0  0  0  0  0  0  0  0  0
    3.4527   -1.5297   -3.9818 H   0  0  0  0  0  0  0  0  0  0  0  0
    4.2361   -2.7635   -2.9262 H   0  0  0  0  0  0  0  0  0  0  0  0
    5.1185   -1.1909   -3.2995 H   0  0  0  0  0  0  0  0  0  0  0  0
    1.4999   -1.4267   -2.5208 H   0  0  0  0  0  0  0  0  0  0  0  0
   -3.1835   -3.0239    2.2491 H   0  0  0  0  0  0  0  0  0  0  0  0
   -3.8363   -4.1983   -0.6415 H   0  0  0  0  0  0  0  0  0  0  0  0
   -3.6082   -5.1259    0.9903 H   0  0  0  0  0  0  0  0  0  0  0  0
   -5.5172   -3.8307    1.9547 H   0  0  0  0  0  0  0  0  0  0  0  0
   -5.6646   -2.7994    0.3585 H   0  0  0  0  0  0  0  0  0  0  0  0
   -5.1346    1.5202   -0.8056 H   0  0  0  0  0  0  0  0  0  0  0  0
   -3.8144    1.6708   -1.9869 H   0  0  0  0  0  0  0  0  0  0  0  0
   -3.6994    2.4462   -0.3143 H   0  0  0  0  0  0  0  0  0  0  0  0
   -0.7390    0.6160   -1.8920 H   0  0  0  0  0  0  0  0  0  0  0  0
   -0.2384    1.1823    1.7849 H   0  0  0  0  0  0  0  0  0  0  0  0
    0.0915    3.4163    2.7750 H   0  0  0  0  0  0  0  0  0  0  0  0
   -0.6097    5.1002   -1.0533 H   0  0  0  0  0  0  0  0  0  0  0  0
   -0.9379    2.8754   -2.0377 H   0  0  0  0  0  0  0  0  0  0  0  0
    1.9911    0.3284    1.3528 H   0  0  0  0  0  0  0  0  0  0  0  0
    3.4567    0.9666    2.7144 H   0  0  0  0  0  0  0  0  0  0  0  0
  1  2  1  0
  2  3  2  0
  3  4  1  0
  4  5  1  0
  5  6  1  0
  6  7  2  0
  6  8  1  0
  8  9  1  0
  9 10  1  0
 10 11  1  0
 11 12  1  0
  9 13  2  0
 13 14  1  0
 14 15  1  0
 14 16  1  0
 16 17  1  0
 17 18  1  0
 18 19  2  0
 19 20  1  0
 20 21  2  0
 21 22  1  0
 21 23  1  0
 23 24  2  0
  4 25  2  0
 25 26  1  0
 26 27  1  0
 27 28  1  0
 28 29  1  0
 28 30  1  0
 27 31  2  0
 31 32  1  0
 32 33  2  0
 33  2  1  0
 17  5  1  0
 24 18  1  0
 33 26  1  0
 16  8  2  0
 12 10  1  0
  1 34  1  0
  1 35  1  0
  1 36  1  0
  3 37  1  0
 10 38  1  0
 11 39  1  0
 11 40  1  0
 12 41  1  0
 12 42  1  0
 15 43  1  0
 15 44  1  0
 15 45  1  0
 17 46  1  6
 19 47  1  0
 20 48  1  0
 23 49  1  0
 24 50  1  0
 25 51  1  0
 28 52  1  0
M  END
$$$$
