@<TRIPOS>MOLECULE
*****
 54 57 0 0 0
SMALL
GASTEIGER

@<TRIPOS>ATOM
      1 C          -5.8020    1.7336    1.5165 C.3     1  UNL1        0.0124
      2 C          -5.0596    1.9586    0.2578 C.2     1  UNL1        0.2133
      3 O          -5.1752    3.0610   -0.3262 O.2     1  UNL1       -0.2759
      4 N          -4.2221    0.9575   -0.3020 N.am    1  UNL1       -0.2865
      5 C          -4.1145   -0.2982    0.3936 C.3     1  UNL1        0.0319
      6 C          -2.6478   -0.5534    0.7249 C.3     1  UNL1        0.0357
      7 N          -1.8453   -0.5075   -0.4862 N.am    1  UNL1       -0.2669
      8 C          -0.5903   -1.1473   -0.4936 C.ar    1  UNL1        0.0543
      9 C           0.5977   -0.5021   -0.1329 C.ar    1  UNL1       -0.0298
     10 C           1.8052   -1.1684   -0.1540 C.ar    1  UNL1        0.0023
     11 C           3.0573   -0.5017    0.2207 C.ar    1  UNL1        0.0740
     12 C           3.4883    0.7493   -0.1679 C.ar    1  UNL1       -0.0219
     13 C           4.7249    1.0353    0.3894 C.ar    1  UNL1        0.0855
     14 C           5.5392    2.2847    0.2189 C.3     1  UNL1        0.4195
     15 F           6.7633    2.0187   -0.3379 F       1  UNL1       -0.1658
     16 F           5.6163    2.9498    1.4217 F       1  UNL1       -0.1658
     17 F           4.8577    3.0934   -0.6821 F       1  UNL1       -0.1658
     18 C           5.0346   -0.0855    1.1328 C.ar    1  UNL1        0.1171
     19 C           6.1521   -0.3744    1.9139 C.ar    1  UNL1        0.1442
     20 N           7.2240    0.5220    2.0687 N.pl3   1  UNL1       -0.3414
     21 N           6.1772   -1.5731    2.5353 N.ar    1  UNL1       -0.2173
     22 C           5.1901   -2.4638    2.4258 C.ar    1  UNL1        0.1388
     23 N           4.1256   -2.1436    1.6589 N.ar    1  UNL1       -0.1543
     24 N           4.0366   -0.9846    1.0213 N.ar    1  UNL1       -0.2269
     25 C           1.7891   -2.4929   -0.5445 C.ar    1  UNL1       -0.0512
     26 C           0.6512   -3.1712   -0.9076 C.ar    1  UNL1       -0.0419
     27 C          -0.5594   -2.4770   -0.8788 C.ar    1  UNL1        0.0731
     28 C          -1.7722   -3.1488   -1.2502 C.1     1  UNL1        0.1010
     29 N          -2.7700   -3.6910   -1.5535 N.1     1  UNL1       -0.1908
     30 C          -2.3541    0.1767   -1.6171 C.2     1  UNL1        0.2430
     31 O          -1.8362   -0.0343   -2.7364 O.2     1  UNL1       -0.2729
     32 C          -3.4821    1.1388   -1.5294 C.3     1  UNL1        0.1082
     33 C          -4.4387    0.9595   -2.6877 C.3     1  UNL1       -0.0352
     34 C          -2.9811    2.5724   -1.5795 C.3     1  UNL1       -0.0352
     35 H          -5.1009    1.5307    2.3700 H       1  UNL1        0.0323
     36 H          -6.4756    2.5797    1.7513 H       1  UNL1        0.0323
     37 H          -6.3967    0.7783    1.4268 H       1  UNL1        0.0323
     38 H          -4.6571   -0.2903    1.3601 H       1  UNL1        0.0480
     39 H          -4.4590   -1.1146   -0.2770 H       1  UNL1        0.0480
     40 H          -2.6071   -1.5529    1.2077 H       1  UNL1        0.0484
     41 H          -2.3004    0.1889    1.4761 H       1  UNL1        0.0484
     42 H           0.5364    0.5249    0.1592 H       1  UNL1        0.0643
     43 H           2.9273    1.4248   -0.8285 H       1  UNL1        0.0645
     44 H           8.0888    0.5428    1.4916 H       1  UNL1        0.1438
     45 H           7.1508    1.2333    2.8308 H       1  UNL1        0.1438
     46 H           5.2725   -3.4132    2.9535 H       1  UNL1        0.1066
     47 H           2.7559   -2.9916   -0.5512 H       1  UNL1        0.0624
     48 H           0.6603   -4.2195   -1.2135 H       1  UNL1        0.0631
     49 H          -5.3792    1.4834   -2.4893 H       1  UNL1        0.0255
     50 H          -3.9829    1.3822   -3.6045 H       1  UNL1        0.0255
     51 H          -4.6864   -0.1108   -2.8441 H       1  UNL1        0.0255
     52 H          -2.8643    2.9249   -0.5550 H       1  UNL1        0.0255
     53 H          -3.6875    3.2082   -2.1093 H       1  UNL1        0.0255
     54 H          -1.9746    2.6178   -2.0876 H       1  UNL1        0.0255
@<TRIPOS>BOND
     1     1     2    1
     2     2     3    2
     3     2     4   am
     4     4     5    1
     5     5     6    1
     6     6     7    1
     7     7     8    1
     8     8     9   ar
     9     9    10   ar
    10    10    11    1
    11    11    12   ar
    12    12    13   ar
    13    13    14    1
    14    14    15    1
    15    14    16    1
    16    14    17    1
    17    13    18   ar
    18    18    19   ar
    19    19    20    1
    20    19    21   ar
    21    21    22   ar
    22    22    23   ar
    23    23    24   ar
    24    10    25   ar
    25    25    26   ar
    26    26    27   ar
    27    27    28    1
    28    28    29    3
    29     7    30   am
    30    30    31    2
    31    30    32    1
    32    32    33    1
    33    32    34    1
    34    32     4    1
    35    27     8   ar
    36    24    11   ar
    37    24    18   ar
    38     1    35    1
    39     1    36    1
    40     1    37    1
    41     5    38    1
    42     5    39    1
    43     6    40    1
    44     6    41    1
    45     9    42    1
    46    12    43    1
    47    20    44    1
    48    20    45    1
    49    22    46    1
    50    25    47    1
    51    26    48    1
    52    33    49    1
    53    33    50    1
    54    33    51    1
    55    34    52    1
    56    34    53    1
    57    34    54    1
