@<TRIPOS>MOLECULE
*****
 71 75 0 0 0
SMALL
GASTEIGER

@<TRIPOS>ATOM
      1 C          -1.4451    0.2035   -1.3657 C.3     1  UNL1        0.2102
      2 N          -0.0804   -0.2685   -1.3647 N.2     1  UNL1       -0.0694
      3 C           0.3761   -0.1034   -0.1686 C.2     1  UNL1        0.3280
      4 N          -0.6057    0.4635    0.6819 N.am    1  UNL1       -0.1280
      5 C          -0.3411    1.2799    1.8186 C.2     1  UNL1        0.3974
      6 O           0.9056    1.4713    2.0611 O.2     1  UNL1       -0.2234
      7 N          -1.3215    1.8730    2.6631 N.am    1  UNL1       -0.2630
      8 C          -2.7737    1.8432    2.6566 C.3     1  UNL1        0.0307
      9 C          -3.2826    2.5982    3.8626 C.3     1  UNL1        0.0119
     10 N          -2.9064    3.9871    3.7314 N.3     1  UNL1       -0.3130
     11 C          -1.4720    4.0892    3.6951 C.3     1  UNL1        0.0119
     12 C          -0.8239    2.6980    3.7657 C.3     1  UNL1        0.0307
     13 C          -1.8472   -0.0301    0.0563 C.3     1  UNL1        0.1745
     14 C          -2.0872   -1.4383    0.4294 C.ar    1  UNL1        0.0001
     15 C          -3.3005   -1.7711    1.0548 C.ar    1  UNL1       -0.0532
     16 C          -3.7233   -3.0222    1.4731 C.ar    1  UNL1       -0.0430
     17 C          -2.8198   -4.0182    1.2270 C.ar    1  UNL1        0.0410
     18 CL         -3.2561   -5.6500    1.7187 Cl      1  UNL1       -0.0835
     19 C          -1.6016   -3.8308    0.6247 C.ar    1  UNL1       -0.0430
     20 C          -1.2936   -2.5407    0.2535 C.ar    1  UNL1       -0.0532
     21 C           1.7697   -0.4537    0.2119 C.ar    1  UNL1        0.1074
     22 C           2.9015   -0.2062   -0.5834 C.ar    1  UNL1        0.1392
     23 O           2.6896    0.4032   -1.7788 O.3     1  UNL1       -0.4884
     24 C           3.6182    0.7810   -2.7477 C.3     1  UNL1        0.0947
     25 C           3.7601    2.3030   -2.8314 C.3     1  UNL1       -0.0281
     26 C           3.3201    0.2970   -4.1430 C.3     1  UNL1       -0.0281
     27 C           4.1354   -0.5893   -0.1123 C.ar    1  UNL1        0.0226
     28 C           4.3424   -1.2063    1.1023 C.ar    1  UNL1        0.1236
     29 O           5.5565   -1.6141    1.6230 O.3     1  UNL1       -0.4950
     30 C           6.7836   -1.4583    0.9810 C.3     1  UNL1        0.0788
     31 C           3.2530   -1.4675    1.9212 C.ar    1  UNL1       -0.0189
     32 C           2.0277   -1.0818    1.4407 C.ar    1  UNL1       -0.0398
     33 C          -2.2972   -0.4136   -2.3901 C.ar    1  UNL1        0.0052
     34 C          -3.5989   -0.8674   -2.4121 C.ar    1  UNL1       -0.0529
     35 C          -4.1646   -1.4300   -3.5367 C.ar    1  UNL1       -0.0430
     36 C          -3.4363   -1.5657   -4.7125 C.ar    1  UNL1        0.0410
     37 CL         -4.3341   -2.2993   -6.0212 Cl      1  UNL1       -0.0835
     38 C          -2.1342   -1.1240   -4.7276 C.ar    1  UNL1       -0.0430
     39 C          -1.5799   -0.5602   -3.5864 C.ar    1  UNL1       -0.0529
     40 H          -1.4677    1.3214   -1.4985 H       1  UNL1        0.0925
     41 H          -3.1620    2.4414    1.7755 H       1  UNL1        0.0478
     42 H          -3.1935    0.8167    2.6675 H       1  UNL1        0.0478
     43 H          -2.9494    2.1726    4.8168 H       1  UNL1        0.0439
     44 H          -4.4165    2.5794    3.8544 H       1  UNL1        0.0439
     45 H          -3.3383    4.5797    4.4927 H       1  UNL1        0.1220
     46 H          -1.1160    4.6451    4.5721 H       1  UNL1        0.0439
     47 H          -1.1478    4.6202    2.7919 H       1  UNL1        0.0439
     48 H           0.2769    2.9211    3.6518 H       1  UNL1        0.0478
     49 H          -0.9344    2.2449    4.7496 H       1  UNL1        0.0478
     50 H          -2.7004    0.6190    0.3388 H       1  UNL1        0.0869
     51 H          -4.0015   -0.9365    1.2372 H       1  UNL1        0.0622
     52 H          -4.6892   -3.1273    1.9435 H       1  UNL1        0.0632
     53 H          -0.8960   -4.6238    0.4369 H       1  UNL1        0.0632
     54 H          -0.3424   -2.3847   -0.2279 H       1  UNL1        0.0622
     55 H           4.6312    0.4017   -2.4458 H       1  UNL1        0.0727
     56 H           4.2698    2.5152   -3.7930 H       1  UNL1        0.0265
     57 H           2.7517    2.7674   -2.8991 H       1  UNL1        0.0265
     58 H           4.3847    2.7139   -2.0335 H       1  UNL1        0.0265
     59 H           2.7497   -0.6597   -4.0442 H       1  UNL1        0.0265
     60 H           2.6593    0.9793   -4.7196 H       1  UNL1        0.0265
     61 H           4.2557    0.0633   -4.7005 H       1  UNL1        0.0265
     62 H           5.0340   -0.4292   -0.6736 H       1  UNL1        0.0691
     63 H           6.7405   -1.4713   -0.1207 H       1  UNL1        0.0660
     64 H           7.4553   -2.3239    1.2491 H       1  UNL1        0.0660
     65 H           7.3062   -0.5526    1.3811 H       1  UNL1        0.0660
     66 H           3.2436   -1.9431    2.9020 H       1  UNL1        0.0654
     67 H           1.1226   -1.2574    2.0302 H       1  UNL1        0.0628
     68 H          -4.0777   -0.7110   -1.4562 H       1  UNL1        0.0622
     69 H          -5.1983   -1.7404   -3.4089 H       1  UNL1        0.0632
     70 H          -1.6275   -1.2544   -5.6638 H       1  UNL1        0.0632
     71 H          -0.5348   -0.2676   -3.7772 H       1  UNL1        0.0622
@<TRIPOS>BOND
     1     1     2    1
     2     2     3    2
     3     3     4    1
     4     4     5   am
     5     5     6    2
     6     5     7   am
     7     7     8    1
     8     8     9    1
     9     9    10    1
    10    10    11    1
    11    11    12    1
    12     4    13    1
    13    13    14    1
    14    14    15   ar
    15    15    16   ar
    16    16    17   ar
    17    17    18    1
    18    17    19   ar
    19    19    20   ar
    20     3    21    1
    21    21    22   ar
    22    22    23    1
    23    23    24    1
    24    24    25    1
    25    24    26    1
    26    22    27   ar
    27    27    28   ar
    28    28    29    1
    29    29    30    1
    30    28    31   ar
    31    31    32   ar
    32     1    33    1
    33    33    34   ar
    34    34    35   ar
    35    35    36   ar
    36    36    37    1
    37    36    38   ar
    38    38    39   ar
    39    13     1    1
    40    20    14   ar
    41    32    21   ar
    42    39    33   ar
    43    12     7    1
    44     1    40    1
    45     8    41    1
    46     8    42    1
    47     9    43    1
    48     9    44    1
    49    10    45    1
    50    11    46    1
    51    11    47    1
    52    12    48    1
    53    12    49    1
    54    13    50    1
    55    15    51    1
    56    16    52    1
    57    19    53    1
    58    20    54    1
    59    24    55    1
    60    25    56    1
    61    25    57    1
    62    25    58    1
    63    26    59    1
    64    26    60    1
    65    26    61    1
    66    27    62    1
    67    30    63    1
    68    30    64    1
    69    30    65    1
    70    31    66    1
    71    32    67    1
    72    34    68    1
    73    35    69    1
    74    38    70    1
    75    39    71    1
