@<TRIPOS>MOLECULE
*****
 78 83 0 0 0
SMALL
GASTEIGER

@<TRIPOS>ATOM
      1 O          -2.9913   -1.9646    1.3923 O.2     1  UNL1       -0.2753
      2 C          -2.9149   -1.2255    0.3740 C.2     1  UNL1        0.2188
      3 C          -4.0386   -1.2701   -0.6266 C.3     1  UNL1        0.0386
      4 C          -4.6780    0.0754   -0.7082 C.3     1  UNL1       -0.0260
      5 C          -6.1673    0.0915   -0.6464 C.3     1  UNL1        0.0142
      6 N          -6.7687   -0.9119    0.1684 N.pl3   1  UNL1       -0.3150
      7 C          -8.1628   -0.8637    0.4296 C.ar    1  UNL1        0.1250
      8 C          -8.9357    0.1613   -0.0483 C.ar    1  UNL1        0.0084
      9 C         -10.2946    0.2195    0.1971 C.ar    1  UNL1        0.1485
     10 C         -11.1128    1.3408   -0.3305 C.3     1  UNL1        0.4344
     11 F         -10.8017    2.5414    0.2825 F       1  UNL1       -0.1644
     12 F         -10.9345    1.4872   -1.6911 F       1  UNL1       -0.1644
     13 F         -12.4560    1.0782   -0.0862 F       1  UNL1       -0.1644
     14 N         -10.8399   -0.7739    0.9280 N.ar    1  UNL1       -0.2313
     15 C         -10.1009   -1.8059    1.4176 C.ar    1  UNL1        0.1186
     16 N          -8.7882   -1.8249    1.1574 N.ar    1  UNL1       -0.2207
     17 C          -5.9981   -1.9875    0.7433 C.3     1  UNL1        0.0142
     18 C          -4.9714   -2.3936   -0.2676 C.3     1  UNL1       -0.0260
     19 N          -1.7954   -0.3768    0.1812 N.am    1  UNL1       -0.2997
     20 C          -0.6723   -0.2791    1.1166 C.3     1  UNL1        0.0162
     21 C           0.4620   -0.3168    0.0971 C.3     1  UNL1       -0.0202
     22 C           0.0562    0.5782   -1.0110 C.3     1  UNL1        0.0250
     23 N           0.3838    1.9223   -1.0151 N.3     1  UNL1       -0.3090
     24 C           1.6791    2.4507   -0.9577 C.3     1  UNL1        0.0081
     25 C           2.2109    2.3891    0.4246 C.3     1  UNL1       -0.0346
     26 C           3.5510    1.8173    0.6580 C.3     1  UNL1       -0.0170
     27 C           4.4256    1.6076   -0.5200 C.3     1  UNL1        0.1077
     28 O           4.7249    2.8645   -1.0997 O.3     1  UNL1       -0.3824
     29 C           5.6639    0.8709   -0.2118 C.ar    1  UNL1        0.0727
     30 C           5.9800    0.4403    1.0534 C.ar    1  UNL1       -0.0369
     31 C           7.1526   -0.2565    1.3196 C.ar    1  UNL1       -0.0478
     32 C           8.0281   -0.5274    0.2929 C.ar    1  UNL1        0.0372
     33 C           9.2709   -1.2520    0.4923 C.ar    1  UNL1        0.1611
     34 N          10.0937   -1.4941   -0.5421 N.ar    1  UNL1       -0.2356
     35 C          11.2585   -2.1646   -0.3886 C.ar    1  UNL1        0.0314
     36 C          11.6222   -2.6180    0.8628 C.ar    1  UNL1       -0.0254
     37 C          10.7697   -2.3640    1.9189 C.ar    1  UNL1        0.0314
     38 N           9.6206   -1.6915    1.7136 N.ar    1  UNL1       -0.2356
     39 C           7.6775   -0.0810   -0.9564 C.ar    1  UNL1        0.0387
     40 N           6.5366    0.5920   -1.1907 N.ar    1  UNL1       -0.2563
     41 C           3.5639    0.8936   -1.5715 C.3     1  UNL1       -0.0170
     42 C           2.6056    1.9636   -2.0454 C.3     1  UNL1       -0.0346
     43 C          -1.4870    0.5212   -0.8866 C.3     1  UNL1        0.0301
     44 H          -3.5701   -1.5536   -1.6085 H       1  UNL1        0.0395
     45 H          -4.2435    0.7531    0.0582 H       1  UNL1        0.0288
     46 H          -4.3865    0.5385   -1.6950 H       1  UNL1        0.0288
     47 H          -6.4562    1.0827   -0.1823 H       1  UNL1        0.0464
     48 H          -6.6277    0.1237   -1.6632 H       1  UNL1        0.0464
     49 H          -8.5150    0.9790   -0.6429 H       1  UNL1        0.0673
     50 H         -10.5762   -2.5883    2.0041 H       1  UNL1        0.1047
     51 H          -6.6286   -2.8819    0.9605 H       1  UNL1        0.0464
     52 H          -5.5699   -1.6661    1.7107 H       1  UNL1        0.0464
     53 H          -4.3384   -3.2285    0.1374 H       1  UNL1        0.0288
     54 H          -5.5221   -2.7913   -1.1536 H       1  UNL1        0.0288
     55 H          -0.6223   -1.1446    1.7697 H       1  UNL1        0.0465
     56 H          -0.6395    0.6770    1.6322 H       1  UNL1        0.0465
     57 H           1.4161   -0.2025    0.5601 H       1  UNL1        0.0296
     58 H           0.4295   -1.3992   -0.2731 H       1  UNL1        0.0296
     59 H           0.2246    0.0715   -2.0302 H       1  UNL1        0.0476
     60 H          -0.3214    2.4948   -1.5246 H       1  UNL1        0.1225
     61 H           1.5559    3.5644   -1.2104 H       1  UNL1        0.0460
     62 H           1.4370    2.0145    1.1712 H       1  UNL1        0.0281
     63 H           2.2971    3.4799    0.7885 H       1  UNL1        0.0281
     64 H           3.4335    0.8111    1.1546 H       1  UNL1        0.0297
     65 H           4.1363    2.3989    1.4342 H       1  UNL1        0.0297
     66 H           5.2450    2.7366   -1.9371 H       1  UNL1        0.2107
     67 H           5.3143    0.6404    1.8721 H       1  UNL1        0.0637
     68 H           7.3849   -0.5843    2.3116 H       1  UNL1        0.0626
     69 H          11.9343   -2.3693   -1.2084 H       1  UNL1        0.0831
     70 H          12.5514   -3.1578    1.0055 H       1  UNL1        0.0648
     71 H          11.0744   -2.7294    2.8915 H       1  UNL1        0.0831
     72 H           8.3421   -0.2756   -1.7889 H       1  UNL1        0.0837
     73 H           3.0898    0.0203   -1.1329 H       1  UNL1        0.0297
     74 H           4.2630    0.6390   -2.3889 H       1  UNL1        0.0297
     75 H           2.0706    1.5440   -2.9109 H       1  UNL1        0.0281
     76 H           3.2460    2.7816   -2.4536 H       1  UNL1        0.0281
     77 H          -1.9726    0.2298   -1.8189 H       1  UNL1        0.0480
     78 H          -1.8830    1.5282   -0.5608 H       1  UNL1        0.0480
@<TRIPOS>BOND
     1     1     2    2
     2     2     3    1
     3     3     4    1
     4     4     5    1
     5     5     6    1
     6     6     7    1
     7     7     8   ar
     8     8     9   ar
     9     9    10    1
    10    10    11    1
    11    10    12    1
    12    10    13    1
    13     9    14   ar
    14    14    15   ar
    15    15    16   ar
    16     6    17    1
    17    17    18    1
    18     2    19   am
    19    19    20    1
    20    20    21    1
    21    21    22    1
    22    22    23    1
    23    23    24    1
    24    24    25    1
    25    25    26    1
    26    26    27    1
    27    27    28    1
    28    27    29    1
    29    29    30   ar
    30    30    31   ar
    31    31    32   ar
    32    32    33    1
    33    33    34   ar
    34    34    35   ar
    35    35    36   ar
    36    36    37   ar
    37    37    38   ar
    38    32    39   ar
    39    39    40   ar
    40    27    41    1
    41    41    42    1
    42    22    43    1
    43    18     3    1
    44    43    19    1
    45    16     7   ar
    46    42    24    1
    47    40    29   ar
    48    38    33   ar
    49     3    44    1
    50     4    45    1
    51     4    46    1
    52     5    47    1
    53     5    48    1
    54     8    49    1
    55    15    50    1
    56    17    51    1
    57    17    52    1
    58    18    53    1
    59    18    54    1
    60    20    55    1
    61    20    56    1
    62    21    57    1
    63    21    58    1
    64    22    59    1
    65    23    60    1
    66    24    61    1
    67    25    62    1
    68    25    63    1
    69    26    64    1
    70    26    65    1
    71    28    66    1
    72    30    67    1
    73    31    68    1
    74    35    69    1
    75    36    70    1
    76    37    71    1
    77    39    72    1
    78    41    73    1
    79    41    74    1
    80    42    75    1
    81    42    76    1
    82    43    77    1
    83    43    78    1
