
     RDKit          3D

 14 13  0  0  0  0  0  0  0  0999 V2000
    0.2780    1.6856    0.0443 N   0  0  0  0  0  0  0  0  0  0  0  0
   -0.0620    0.3269    0.3734 C   0  0  1  0  0  0  0  0  0  0  0  0
   -1.2099   -0.1744   -0.4977 C   0  0  0  0  0  0  0  0  0  0  0  0
   -1.6391   -1.8805   -0.0866 S   0  0  0  0  0  0  0  0  0  0  0  0
    1.1513   -0.5101    0.1407 C   0  0  0  0  0  0  0  0  0  0  0  0
    2.3996   -0.0817   -0.3125 O   0  0  0  0  0  0  0  0  0  0  0  0
    1.2117   -1.7676    0.3307 O   0  0  0  0  0  0  0  0  0  0  0  0
    0.3276    2.3329    0.8612 H   0  0  0  0  0  0  0  0  0  0  0  0
   -0.2653    2.0718   -0.7493 H   0  0  0  0  0  0  0  0  0  0  0  0
   -0.3579    0.1662    1.4241 H   0  0  0  0  0  0  0  0  0  0  0  0
   -0.9382   -0.0815   -1.5664 H   0  0  0  0  0  0  0  0  0  0  0  0
   -2.0659    0.5009   -0.2798 H   0  0  0  0  0  0  0  0  0  0  0  0
   -1.7738   -1.9919    1.3153 H   0  0  0  0  0  0  0  0  0  0  0  0
    2.9439   -0.5968   -0.9973 H   0  0  0  0  0  0  0  0  0  0  0  0
  1  2  1  0
  2  3  1  0
  3  4  1  0
  2  5  1  0
  5  6  1  0
  5  7  2  0
  1  8  1  0
  1  9  1  0
  2 10  1  1
  3 11  1  0
  3 12  1  0
  4 13  1  0
  6 14  1  0
M  END
$$$$
