
     RDKit          3D

 49 51  0  0  0  0  0  0  0  0999 V2000
    1.6846    2.4355    0.3430 C   0  0  0  0  0  0  0  0  0  0  0  0
    1.8141    1.0221   -0.1810 C   0  0  2  0  0  0  0  0  0  0  0  0
    0.9369    0.1423    0.6551 C   0  0  0  0  0  0  0  0  0  0  0  0
   -0.3984    0.3125    0.2647 O   0  0  0  0  0  0  0  0  0  0  0  0
   -1.4090    0.7736    1.0888 C   0  0  0  0  0  0  0  0  0  0  0  0
   -1.0479    1.0435    2.2587 O   0  0  0  0  0  0  0  0  0  0  0  0
   -2.8097    0.9600    0.7050 C   0  0  0  0  0  0  0  0  0  0  0  0
   -3.5572    1.4990    1.9062 C   0  0  0  0  0  0  0  0  0  0  0  0
   -2.9796    1.9616   -0.4217 C   0  0  0  0  0  0  0  0  0  0  0  0
   -3.4674   -0.2810    0.2608 C   0  0  0  0  0  0  0  0  0  0  0  0
   -4.7296   -0.5561    0.7368 C   0  0  0  0  0  0  0  0  0  0  0  0
   -5.4184   -1.7115    0.3615 C   0  0  0  0  0  0  0  0  0  0  0  0
   -4.7899   -2.5830   -0.5126 C   0  0  0  0  0  0  0  0  0  0  0  0
   -3.5746   -2.2827   -0.9485 N   0  0  0  0  0  0  0  0  0  0  0  0
   -2.8842   -1.1809   -0.6079 C   0  0  0  0  0  0  0  0  0  0  0  0
    1.4345   -1.2649    0.5695 C   0  0  0  0  0  0  0  0  0  0  0  0
    2.9251   -1.3001    0.7115 C   0  0  0  0  0  0  0  0  0  0  0  0
    3.5017   -0.0511    1.3242 C   0  0  0  0  0  0  0  0  0  0  0  0
    3.2533    0.5991   -0.0459 C   0  0  0  0  0  0  0  0  0  0  0  0
    3.5288   -0.7632   -0.5936 C   0  0  0  0  0  0  0  0  0  0  0  0
    2.8898   -1.1920   -1.8340 C   0  0  0  0  0  0  0  0  0  0  0  0
    5.0301   -1.0213   -0.6122 C   0  0  0  0  0  0  0  0  0  0  0  0
    2.6219    3.0287    0.1553 H   0  0  0  0  0  0  0  0  0  0  0  0
    1.3783    2.4593    1.4016 H   0  0  0  0  0  0  0  0  0  0  0  0
    0.8857    2.9752   -0.2273 H   0  0  0  0  0  0  0  0  0  0  0  0
    1.4387    1.0185   -1.2077 H   0  0  0  0  0  0  0  0  0  0  0  0
    0.9921    0.4488    1.7275 H   0  0  0  0  0  0  0  0  0  0  0  0
   -2.8552    2.1939    2.4204 H   0  0  0  0  0  0  0  0  0  0  0  0
   -3.6962    0.6337    2.5978 H   0  0  0  0  0  0  0  0  0  0  0  0
   -4.5152    1.9689    1.6505 H   0  0  0  0  0  0  0  0  0  0  0  0
   -3.9907    1.9208   -0.8274 H   0  0  0  0  0  0  0  0  0  0  0  0
   -2.7212    2.9774   -0.0155 H   0  0  0  0  0  0  0  0  0  0  0  0
   -2.2519    1.7289   -1.2176 H   0  0  0  0  0  0  0  0  0  0  0  0
   -5.2704    0.0896    1.4229 H   0  0  0  0  0  0  0  0  0  0  0  0
   -6.3990   -1.9126    0.7394 H   0  0  0  0  0  0  0  0  0  0  0  0
   -5.3476   -3.4674   -0.7841 H   0  0  0  0  0  0  0  0  0  0  0  0
   -1.9009   -0.9617   -0.9766 H   0  0  0  0  0  0  0  0  0  0  0  0
    0.9960   -1.8307    1.4327 H   0  0  0  0  0  0  0  0  0  0  0  0
    1.1983   -1.7590   -0.4012 H   0  0  0  0  0  0  0  0  0  0  0  0
    3.3625   -2.2455    1.0277 H   0  0  0  0  0  0  0  0  0  0  0  0
    4.5845   -0.1744    1.4783 H   0  0  0  0  0  0  0  0  0  0  0  0
    2.9877    0.3919    2.1552 H   0  0  0  0  0  0  0  0  0  0  0  0
    4.0094    1.3758   -0.2226 H   0  0  0  0  0  0  0  0  0  0  0  0
    2.6925   -2.3029   -1.7781 H   0  0  0  0  0  0  0  0  0  0  0  0
    1.9560   -0.7288   -2.1246 H   0  0  0  0  0  0  0  0  0  0  0  0
    3.6210   -1.0906   -2.6770 H   0  0  0  0  0  0  0  0  0  0  0  0
    5.6157   -0.0851   -0.5375 H   0  0  0  0  0  0  0  0  0  0  0  0
    5.3386   -1.5251   -1.5654 H   0  0  0  0  0  0  0  0  0  0  0  0
    5.3363   -1.6893    0.2372 H   0  0  0  0  0  0  0  0  0  0  0  0
  1  2  1  0
  2  3  1  0
  3  4  1  0
  4  5  1  0
  5  6  2  0
  5  7  1  0
  7  8  1  0
  7  9  1  0
  7 10  1  0
 10 11  2  0
 11 12  1  0
 12 13  2  0
 13 14  1  0
 14 15  2  0
  3 16  1  0
 16 17  1  0
 17 18  1  0
 18 19  1  0
 19 20  1  0
 20 21  1  0
 20 22  1  0
 19  2  1  0
 15 10  1  0
 20 17  1  0
  1 23  1  0
  1 24  1  0
  1 25  1  0
  2 26  1  6
  3 27  1  0
  8 28  1  0
  8 29  1  0
  8 30  1  0
  9 31  1  0
  9 32  1  0
  9 33  1  0
 11 34  1  0
 12 35  1  0
 13 36  1  0
 15 37  1  0
 16 38  1  0
 16 39  1  0
 17 40  1  0
 18 41  1  0
 18 42  1  0
 19 43  1  0
 21 44  1  0
 21 45  1  0
 21 46  1  0
 22 47  1  0
 22 48  1  0
 22 49  1  0
M  END
$$$$
