@<TRIPOS>MOLECULE
*****
 49 51 0 0 0
SMALL
GASTEIGER

@<TRIPOS>ATOM
      1 C           1.6846    2.4355    0.3430 C.3     1  UNL1       -0.0588
      2 C           1.8141    1.0221   -0.1810 C.3     1  UNL1       -0.0033
      3 C           0.9369    0.1423    0.6551 C.3     1  UNL1        0.1062
      4 O          -0.3984    0.3125    0.2647 O.3     1  UNL1       -0.4605
      5 C          -1.4090    0.7736    1.0888 C.2     1  UNL1        0.3175
      6 O          -1.0479    1.0435    2.2587 O.2     1  UNL1       -0.2499
      7 C          -2.8097    0.9600    0.7050 C.3     1  UNL1        0.0884
      8 C          -3.5572    1.4990    1.9062 C.3     1  UNL1       -0.0455
      9 C          -2.9796    1.9616   -0.4217 C.3     1  UNL1       -0.0455
     10 C          -3.4674   -0.2810    0.2608 C.ar    1  UNL1       -0.0130
     11 C          -4.7296   -0.5561    0.7368 C.ar    1  UNL1       -0.0547
     12 C          -5.4184   -1.7115    0.3615 C.ar    1  UNL1       -0.0433
     13 C          -4.7899   -2.5830   -0.5126 C.ar    1  UNL1        0.0276
     14 N          -3.5746   -2.2827   -0.9485 N.ar    1  UNL1       -0.2630
     15 C          -2.8842   -1.1809   -0.6079 C.ar    1  UNL1        0.0318
     16 C           1.4345   -1.2649    0.5695 C.3     1  UNL1       -0.0121
     17 C           2.9251   -1.3001    0.7115 C.3     1  UNL1       -0.0320
     18 C           3.5017   -0.0511    1.3242 C.3     1  UNL1       -0.0459
     19 C           3.2533    0.5991   -0.0459 C.3     1  UNL1       -0.0294
     20 C           3.5288   -0.7632   -0.5936 C.3     1  UNL1       -0.0287
     21 C           2.8898   -1.1920   -1.8340 C.3     1  UNL1       -0.0593
     22 C           5.0301   -1.0213   -0.6122 C.3     1  UNL1       -0.0593
     23 H           2.6219    3.0287    0.1553 H       1  UNL1        0.0234
     24 H           1.3783    2.4593    1.4016 H       1  UNL1        0.0234
     25 H           0.8857    2.9752   -0.2273 H       1  UNL1        0.0234
     26 H           1.4387    1.0185   -1.2077 H       1  UNL1        0.0337
     27 H           0.9921    0.4488    1.7275 H       1  UNL1        0.0736
     28 H          -2.8552    2.1939    2.4204 H       1  UNL1        0.0243
     29 H          -3.6962    0.6337    2.5978 H       1  UNL1        0.0243
     30 H          -4.5152    1.9689    1.6505 H       1  UNL1        0.0243
     31 H          -3.9907    1.9208   -0.8274 H       1  UNL1        0.0243
     32 H          -2.7212    2.9774   -0.0155 H       1  UNL1        0.0243
     33 H          -2.2519    1.7289   -1.2176 H       1  UNL1        0.0243
     34 H          -5.2704    0.0896    1.4229 H       1  UNL1        0.0622
     35 H          -6.3990   -1.9126    0.7394 H       1  UNL1        0.0633
     36 H          -5.3476   -3.4674   -0.7841 H       1  UNL1        0.0829
     37 H          -1.9009   -0.9617   -0.9766 H       1  UNL1        0.0832
     38 H           0.9960   -1.8307    1.4327 H       1  UNL1        0.0304
     39 H           1.1983   -1.7590   -0.4012 H       1  UNL1        0.0304
     40 H           3.3625   -2.2455    1.0277 H       1  UNL1        0.0307
     41 H           4.5845   -0.1744    1.4783 H       1  UNL1        0.0271
     42 H           2.9877    0.3919    2.1552 H       1  UNL1        0.0271
     43 H           4.0094    1.3758   -0.2226 H       1  UNL1        0.0310
     44 H           2.6925   -2.3029   -1.7781 H       1  UNL1        0.0235
     45 H           1.9560   -0.7288   -2.1246 H       1  UNL1        0.0235
     46 H           3.6210   -1.0906   -2.6770 H       1  UNL1        0.0235
     47 H           5.6157   -0.0851   -0.5375 H       1  UNL1        0.0235
     48 H           5.3386   -1.5251   -1.5654 H       1  UNL1        0.0235
     49 H           5.3363   -1.6893    0.2372 H       1  UNL1        0.0235
@<TRIPOS>BOND
     1     1     2    1
     2     2     3    1
     3     3     4    1
     4     4     5    1
     5     5     6    2
     6     5     7    1
     7     7     8    1
     8     7     9    1
     9     7    10    1
    10    10    11   ar
    11    11    12   ar
    12    12    13   ar
    13    13    14   ar
    14    14    15   ar
    15     3    16    1
    16    16    17    1
    17    17    18    1
    18    18    19    1
    19    19    20    1
    20    20    21    1
    21    20    22    1
    22    19     2    1
    23    15    10   ar
    24    20    17    1
    25     1    23    1
    26     1    24    1
    27     1    25    1
    28     2    26    1
    29     3    27    1
    30     8    28    1
    31     8    29    1
    32     8    30    1
    33     9    31    1
    34     9    32    1
    35     9    33    1
    36    11    34    1
    37    12    35    1
    38    13    36    1
    39    15    37    1
    40    16    38    1
    41    16    39    1
    42    17    40    1
    43    18    41    1
    44    18    42    1
    45    19    43    1
    46    21    44    1
    47    21    45    1
    48    21    46    1
    49    22    47    1
    50    22    48    1
    51    22    49    1
