@<TRIPOS>MOLECULE
*****
 48 51 0 0 0
SMALL
GASTEIGER

@<TRIPOS>ATOM
      1 C          -1.7135   -3.8876    1.6948 C.3     1  UNL1       -0.0122
      2 N          -1.2761   -2.5253    1.6426 N.3     1  UNL1       -0.2987
      3 C          -0.7307   -2.2754    0.3233 C.3     1  UNL1        0.0221
      4 C          -1.8744   -2.1552   -0.5996 C.3     1  UNL1       -0.0352
      5 C          -3.1051   -2.2199    0.3248 C.3     1  UNL1       -0.0359
      6 C          -2.4375   -1.6546    1.5889 C.3     1  UNL1        0.0110
      7 C          -2.0952   -0.2224    1.4386 C.3     1  UNL1       -0.0297
      8 C          -0.6460    0.0898    1.1113 C.3     1  UNL1       -0.0019
      9 C          -0.5238    1.4317    0.4850 C.ar    1  UNL1       -0.0434
     10 C          -0.7380    1.7003   -0.8260 C.ar    1  UNL1       -0.0569
     11 C          -0.6396    2.9619   -1.3632 C.ar    1  UNL1       -0.0431
     12 C          -0.3132    4.0386   -0.5854 C.ar    1  UNL1        0.0410
     13 CL         -0.1854    5.6592   -1.2676 Cl      1  UNL1       -0.0835
     14 C          -0.0853    3.8157    0.7598 C.ar    1  UNL1       -0.0431
     15 C          -0.1889    2.5448    1.2769 C.ar    1  UNL1       -0.0569
     16 C           0.1169   -1.0084    0.4830 C.3     1  UNL1        0.0581
     17 C           0.8046   -0.7146   -0.7973 C.2     1  UNL1        0.2207
     18 O           0.4005   -1.3508   -1.8543 O.2     1  UNL1       -0.2752
     19 N           1.8621    0.1783   -1.0096 N.am    1  UNL1       -0.3012
     20 C           2.5113    0.9926    0.0035 C.3     1  UNL1        0.0147
     21 C           3.9850    1.0025   -0.5062 C.3     1  UNL1       -0.0357
     22 C           3.6981    1.2922   -1.9626 C.3     1  UNL1       -0.0357
     23 C           2.5136    0.4288   -2.2758 C.3     1  UNL1        0.0147
     24 H          -1.7512   -4.3794    0.6851 H       1  UNL1        0.0391
     25 H          -0.9191   -4.4606    2.2555 H       1  UNL1        0.0391
     26 H          -2.6788   -3.9921    2.2405 H       1  UNL1        0.0391
     27 H          -0.0363   -3.0629   -0.0155 H       1  UNL1        0.0470
     28 H          -1.9397   -3.0849   -1.2305 H       1  UNL1        0.0281
     29 H          -1.8982   -1.2955   -1.2600 H       1  UNL1        0.0281
     30 H          -3.8608   -1.4918    0.0191 H       1  UNL1        0.0281
     31 H          -3.4460   -3.2381    0.4900 H       1  UNL1        0.0281
     32 H          -3.0442   -1.8613    2.4895 H       1  UNL1        0.0463
     33 H          -2.4242    0.3007    2.3636 H       1  UNL1        0.0286
     34 H          -2.7748    0.1984    0.6371 H       1  UNL1        0.0286
     35 H          -0.1907    0.2353    2.1504 H       1  UNL1        0.0357
     36 H          -1.0044    0.9169   -1.4967 H       1  UNL1        0.0621
     37 H          -0.8168    3.1558   -2.4258 H       1  UNL1        0.0632
     38 H           0.1702    4.6749    1.3557 H       1  UNL1        0.0632
     39 H          -0.0025    2.4188    2.3306 H       1  UNL1        0.0621
     40 H           0.9513   -1.3726    1.1620 H       1  UNL1        0.0416
     41 H           2.4483    0.6060    1.0163 H       1  UNL1        0.0464
     42 H           2.2165    2.0611   -0.1272 H       1  UNL1        0.0464
     43 H           4.5576    1.7834   -0.0048 H       1  UNL1        0.0281
     44 H           4.3963   -0.0180   -0.3684 H       1  UNL1        0.0281
     45 H           4.5721    1.0735   -2.6096 H       1  UNL1        0.0281
     46 H           3.3714    2.3497   -2.0413 H       1  UNL1        0.0281
     47 H           2.9391   -0.5328   -2.6862 H       1  UNL1        0.0464
     48 H           1.8254    0.8937   -3.0141 H       1  UNL1        0.0464
@<TRIPOS>BOND
     1     1     2    1
     2     2     3    1
     3     3     4    1
     4     4     5    1
     5     5     6    1
     6     6     7    1
     7     7     8    1
     8     8     9    1
     9     9    10   ar
    10    10    11   ar
    11    11    12   ar
    12    12    13    1
    13    12    14   ar
    14    14    15   ar
    15     8    16    1
    16    16    17    1
    17    17    18    2
    18    17    19   am
    19    19    20    1
    20    20    21    1
    21    21    22    1
    22    22    23    1
    23     6     2    1
    24    15     9   ar
    25    23    19    1
    26    16     3    1
    27     1    24    1
    28     1    25    1
    29     1    26    1
    30     3    27    1
    31     4    28    1
    32     4    29    1
    33     5    30    1
    34     5    31    1
    35     6    32    1
    36     7    33    1
    37     7    34    1
    38     8    35    1
    39    10    36    1
    40    11    37    1
    41    14    38    1
    42    15    39    1
    43    16    40    1
    44    20    41    1
    45    20    42    1
    46    21    43    1
    47    21    44    1
    48    22    45    1
    49    22    46    1
    50    23    47    1
    51    23    48    1
