
     RDKit          3D

 48 51  0  0  0  0  0  0  0  0999 V2000
   -1.7135   -3.8876    1.6948 C   0  0  0  0  0  0  0  0  0  0  0  0
   -1.2761   -2.5253    1.6426 N   0  0  0  0  0  0  0  0  0  0  0  0
   -0.7307   -2.2754    0.3233 C   0  0  0  0  0  0  0  0  0  0  0  0
   -1.8744   -2.1552   -0.5996 C   0  0  0  0  0  0  0  0  0  0  0  0
   -3.1051   -2.2199    0.3248 C   0  0  0  0  0  0  0  0  0  0  0  0
   -2.4375   -1.6546    1.5889 C   0  0  2  0  0  0  0  0  0  0  0  0
   -2.0952   -0.2224    1.4386 C   0  0  0  0  0  0  0  0  0  0  0  0
   -0.6460    0.0898    1.1113 C   0  0  2  0  0  0  0  0  0  0  0  0
   -0.5238    1.4317    0.4850 C   0  0  0  0  0  0  0  0  0  0  0  0
   -0.7380    1.7003   -0.8260 C   0  0  0  0  0  0  0  0  0  0  0  0
   -0.6396    2.9619   -1.3632 C   0  0  0  0  0  0  0  0  0  0  0  0
   -0.3132    4.0386   -0.5854 C   0  0  0  0  0  0  0  0  0  0  0  0
   -0.1854    5.6592   -1.2676 Cl  0  0  0  0  0  0  0  0  0  0  0  0
   -0.0853    3.8157    0.7598 C   0  0  0  0  0  0  0  0  0  0  0  0
   -0.1889    2.5448    1.2769 C   0  0  0  0  0  0  0  0  0  0  0  0
    0.1169   -1.0084    0.4830 C   0  0  0  0  0  0  0  0  0  0  0  0
    0.8046   -0.7146   -0.7973 C   0  0  0  0  0  0  0  0  0  0  0  0
    0.4005   -1.3508   -1.8543 O   0  0  0  0  0  0  0  0  0  0  0  0
    1.8621    0.1783   -1.0096 N   0  0  0  0  0  0  0  0  0  0  0  0
    2.5113    0.9926    0.0035 C   0  0  0  0  0  0  0  0  0  0  0  0
    3.9850    1.0025   -0.5062 C   0  0  0  0  0  0  0  0  0  0  0  0
    3.6981    1.2922   -1.9626 C   0  0  0  0  0  0  0  0  0  0  0  0
    2.5136    0.4288   -2.2758 C   0  0  0  0  0  0  0  0  0  0  0  0
   -1.7512   -4.3794    0.6851 H   0  0  0  0  0  0  0  0  0  0  0  0
   -0.9191   -4.4606    2.2555 H   0  0  0  0  0  0  0  0  0  0  0  0
   -2.6788   -3.9921    2.2405 H   0  0  0  0  0  0  0  0  0  0  0  0
   -0.0363   -3.0629   -0.0155 H   0  0  0  0  0  0  0  0  0  0  0  0
   -1.9397   -3.0849   -1.2305 H   0  0  0  0  0  0  0  0  0  0  0  0
   -1.8982   -1.2955   -1.2600 H   0  0  0  0  0  0  0  0  0  0  0  0
   -3.8608   -1.4918    0.0191 H   0  0  0  0  0  0  0  0  0  0  0  0
   -3.4460   -3.2381    0.4900 H   0  0  0  0  0  0  0  0  0  0  0  0
   -3.0442   -1.8613    2.4895 H   0  0  0  0  0  0  0  0  0  0  0  0
   -2.4242    0.3007    2.3636 H   0  0  0  0  0  0  0  0  0  0  0  0
   -2.7748    0.1984    0.6371 H   0  0  0  0  0  0  0  0  0  0  0  0
   -0.1907    0.2353    2.1504 H   0  0  0  0  0  0  0  0  0  0  0  0
   -1.0044    0.9169   -1.4967 H   0  0  0  0  0  0  0  0  0  0  0  0
   -0.8168    3.1558   -2.4258 H   0  0  0  0  0  0  0  0  0  0  0  0
    0.1702    4.6749    1.3557 H   0  0  0  0  0  0  0  0  0  0  0  0
   -0.0025    2.4188    2.3306 H   0  0  0  0  0  0  0  0  0  0  0  0
    0.9513   -1.3726    1.1620 H   0  0  0  0  0  0  0  0  0  0  0  0
    2.4483    0.6060    1.0163 H   0  0  0  0  0  0  0  0  0  0  0  0
    2.2165    2.0611   -0.1272 H   0  0  0  0  0  0  0  0  0  0  0  0
    4.5576    1.7834   -0.0048 H   0  0  0  0  0  0  0  0  0  0  0  0
    4.3963   -0.0180   -0.3684 H   0  0  0  0  0  0  0  0  0  0  0  0
    4.5721    1.0735   -2.6096 H   0  0  0  0  0  0  0  0  0  0  0  0
    3.3714    2.3497   -2.0413 H   0  0  0  0  0  0  0  0  0  0  0  0
    2.9391   -0.5328   -2.6862 H   0  0  0  0  0  0  0  0  0  0  0  0
    1.8254    0.8937   -3.0141 H   0  0  0  0  0  0  0  0  0  0  0  0
  1  2  1  0
  2  3  1  0
  3  4  1  0
  4  5  1  0
  5  6  1  0
  6  7  1  0
  7  8  1  0
  8  9  1  0
  9 10  2  0
 10 11  1  0
 11 12  2  0
 12 13  1  0
 12 14  1  0
 14 15  2  0
  8 16  1  0
 16 17  1  0
 17 18  2  0
 17 19  1  0
 19 20  1  0
 20 21  1  0
 21 22  1  0
 22 23  1  0
  6  2  1  0
 15  9  1  0
 23 19  1  0
 16  3  1  0
  1 24  1  0
  1 25  1  0
  1 26  1  0
  3 27  1  0
  4 28  1  0
  4 29  1  0
  5 30  1  0
  5 31  1  0
  6 32  1  1
  7 33  1  0
  7 34  1  0
  8 35  1  1
 10 36  1  0
 11 37  1  0
 14 38  1  0
 15 39  1  0
 16 40  1  0
 20 41  1  0
 20 42  1  0
 21 43  1  0
 21 44  1  0
 22 45  1  0
 22 46  1  0
 23 47  1  0
 23 48  1  0
M  END
$$$$
