@<TRIPOS>MOLECULE
*****
 47 49 0 0 0
SMALL
GASTEIGER

@<TRIPOS>ATOM
      1 C          -5.7884    3.1806   -0.6859 C.3     1  UNL1        0.0788
      2 O          -5.5504    1.9028   -1.2089 O.3     1  UNL1       -0.4951
      3 C          -4.3171    1.3264   -1.0790 C.ar    1  UNL1        0.1202
      4 C          -4.0775    0.0823   -1.5855 C.ar    1  UNL1       -0.0182
      5 C          -2.8402   -0.4950   -1.4548 C.ar    1  UNL1       -0.0370
      6 C          -1.7889    0.1580   -0.8065 C.ar    1  UNL1        0.0350
      7 N          -0.5070   -0.4307   -0.6666 N.am    1  UNL1       -0.2693
      8 C          -0.2400   -1.2195    0.4773 C.2     1  UNL1        0.3069
      9 O          -1.2167   -1.3305    1.3062 O.2     1  UNL1       -0.2523
     10 N           0.9769   -1.8630    0.7521 N.am    1  UNL1       -0.2767
     11 C           1.1095   -2.6406    1.9617 C.3     1  UNL1        0.0291
     12 C           1.5921   -4.0230    1.5265 C.3     1  UNL1        0.0118
     13 N           2.7784   -3.8495    0.7445 N.3     1  UNL1       -0.3126
     14 C           2.4790   -3.2107   -0.5231 C.3     1  UNL1        0.0178
     15 C           2.0897   -1.7575   -0.1542 C.3     1  UNL1        0.0739
     16 C           3.2703   -1.0656    0.4712 C.3     1  UNL1        0.1094
     17 O           2.9708    0.2000    0.8782 O.3     1  UNL1       -0.4886
     18 C           2.5890    1.3474    0.2648 C.ar    1  UNL1        0.1386
     19 C           2.3518    2.4601    1.0960 C.ar    1  UNL1       -0.0170
     20 C           1.9669    3.6374    0.5148 C.ar    1  UNL1       -0.0401
     21 C           1.8005    3.7855   -0.8455 C.ar    1  UNL1        0.0278
     22 N           2.0313    2.7157   -1.6172 N.ar    1  UNL1       -0.2596
     23 C           2.4092    1.5511   -1.0766 C.ar    1  UNL1        0.0692
     24 C          -2.0399    1.4167   -0.2968 C.ar    1  UNL1       -0.0370
     25 C          -3.3048    1.9930   -0.4370 C.ar    1  UNL1       -0.0182
     26 H          -6.8235    3.4697   -0.8916 H       1  UNL1        0.0660
     27 H          -5.1240    3.9563   -1.1094 H       1  UNL1        0.0660
     28 H          -5.5634    3.1325    0.4065 H       1  UNL1        0.0660
     29 H          -4.8589   -0.4500   -2.0895 H       1  UNL1        0.0655
     30 H          -2.5935   -1.4830   -1.8388 H       1  UNL1        0.0637
     31 H           0.1867   -0.2702   -1.3930 H       1  UNL1        0.1564
     32 H           0.1081   -2.8167    2.4329 H       1  UNL1        0.0478
     33 H           1.7790   -2.2002    2.7053 H       1  UNL1        0.0478
     34 H           0.7712   -4.5059    0.9699 H       1  UNL1        0.0439
     35 H           1.7889   -4.6259    2.4221 H       1  UNL1        0.0439
     36 H           3.3701   -4.6831    0.6538 H       1  UNL1        0.1221
     37 H           1.5984   -3.6303   -1.0287 H       1  UNL1        0.0443
     38 H           3.3692   -3.1293   -1.1556 H       1  UNL1        0.0443
     39 H           1.8520   -1.2989   -1.1117 H       1  UNL1        0.0547
     40 H           4.0297   -0.9842   -0.3631 H       1  UNL1        0.0716
     41 H           3.7121   -1.7001    1.2967 H       1  UNL1        0.0716
     42 H           2.4757    2.3732    2.1797 H       1  UNL1        0.0655
     43 H           1.7734    4.5260    1.1338 H       1  UNL1        0.0634
     44 H           1.4934    4.7331   -1.2816 H       1  UNL1        0.0829
     45 H           2.5879    0.7492   -1.7749 H       1  UNL1        0.0867
     46 H          -1.2511    1.9739    0.2212 H       1  UNL1        0.0637
     47 H          -3.4257    2.9923   -0.0068 H       1  UNL1        0.0655
@<TRIPOS>BOND
     1     1     2    1
     2     2     3    1
     3     3     4   ar
     4     4     5   ar
     5     5     6   ar
     6     6     7    1
     7     7     8   am
     8     8     9    2
     9     8    10   am
    10    10    11    1
    11    11    12    1
    12    12    13    1
    13    13    14    1
    14    14    15    1
    15    15    16    1
    16    16    17    1
    17    17    18    1
    18    18    19   ar
    19    19    20   ar
    20    20    21   ar
    21    21    22   ar
    22    22    23   ar
    23     6    24   ar
    24    24    25   ar
    25    25     3   ar
    26    15    10    1
    27    23    18   ar
    28     1    26    1
    29     1    27    1
    30     1    28    1
    31     4    29    1
    32     5    30    1
    33     7    31    1
    34    11    32    1
    35    11    33    1
    36    12    34    1
    37    12    35    1
    38    13    36    1
    39    14    37    1
    40    14    38    1
    41    15    39    1
    42    16    40    1
    43    16    41    1
    44    19    42    1
    45    20    43    1
    46    21    44    1
    47    23    45    1
    48    24    46    1
    49    25    47    1
