@<TRIPOS>MOLECULE
*****
 52 56 0 0 0
SMALL
GASTEIGER

@<TRIPOS>ATOM
      1 C          -5.0257   -1.7996    1.5978 C.3     1  UNL1        0.0387
      2 O          -4.1814   -0.8137    2.0989 O.3     1  UNL1       -0.3625
      3 C          -3.8955    0.1281    1.1394 C.3     1  UNL1        0.1235
      4 N          -3.2339   -0.4170   -0.0396 N.ar    1  UNL1       -0.3242
      5 C          -3.8918   -0.8790   -1.1456 C.ar    1  UNL1        0.0108
      6 C          -2.9356   -1.3067   -2.0360 C.ar    1  UNL1       -0.0204
      7 C          -3.2267   -1.8814   -3.3672 C.3     1  UNL1       -0.0376
      8 C          -1.6869   -1.1138   -1.4908 C.ar    1  UNL1        0.0631
      9 C          -1.8918   -0.5595   -0.2488 C.ar    1  UNL1        0.0585
     10 C          -0.6030   -0.3066    0.4343 C.3     1  UNL1        0.0986
     11 C          -0.4948    1.1446    0.7218 C.ar    1  UNL1       -0.0207
     12 C          -0.5709    1.5595    2.0313 C.ar    1  UNL1       -0.0550
     13 C          -0.4758    2.9012    2.3547 C.ar    1  UNL1       -0.0431
     14 C          -0.3031    3.8588    1.3833 C.ar    1  UNL1        0.0410
     15 CL         -0.1834    5.5622    1.8054 Cl      1  UNL1       -0.0835
     16 C          -0.2269    3.4388    0.0670 C.ar    1  UNL1       -0.0431
     17 C          -0.3233    2.0973   -0.2403 C.ar    1  UNL1       -0.0550
     18 N           0.4170   -0.7550   -0.4820 N.am    1  UNL1       -0.2388
     19 C           1.8349   -0.7120   -0.2451 C.ar    1  UNL1        0.1313
     20 C           2.4940   -1.7668    0.3478 C.ar    1  UNL1       -0.0161
     21 C           3.8443   -1.7464    0.5826 C.ar    1  UNL1       -0.0164
     22 C           4.4925   -2.9144    1.2244 C.3     1  UNL1       -0.0374
     23 C           4.5395   -0.6198    0.2023 C.ar    1  UNL1        0.1345
     24 N           5.8232   -0.2587    0.2721 N.ar    1  UNL1       -0.1276
     25 N           5.9701    0.9476   -0.2432 N.ar    1  UNL1       -0.0635
     26 N           4.7970    1.3886   -0.6532 N.ar    1  UNL1       -0.2297
     27 C           4.4697    2.6656   -1.2860 C.3     1  UNL1        0.0341
     28 C           3.8738    0.4325   -0.3906 C.ar    1  UNL1        0.1803
     29 N           2.5427    0.3695   -0.6030 N.ar    1  UNL1       -0.2108
     30 C          -0.2430   -1.2368   -1.6387 C.2     1  UNL1        0.2548
     31 O           0.3515   -1.7057   -2.6517 O.2     1  UNL1       -0.2695
     32 H          -4.5313   -2.3002    0.7488 H       1  UNL1        0.0524
     33 H          -5.9602   -1.3116    1.1923 H       1  UNL1        0.0524
     34 H          -5.3712   -2.4883    2.3780 H       1  UNL1        0.0524
     35 H          -3.3432    0.9970    1.5080 H       1  UNL1        0.0800
     36 H          -4.8893    0.5288    0.7746 H       1  UNL1        0.0800
     37 H          -4.9701   -0.8717   -1.2212 H       1  UNL1        0.0812
     38 H          -3.2854   -2.9934   -3.3443 H       1  UNL1        0.0278
     39 H          -2.4415   -1.6340   -4.1191 H       1  UNL1        0.0278
     40 H          -4.2198   -1.5275   -3.7129 H       1  UNL1        0.0278
     41 H          -0.5081   -0.8829    1.3790 H       1  UNL1        0.0620
     42 H          -0.7061    0.8736    2.8584 H       1  UNL1        0.0621
     43 H          -0.5360    3.2217    3.3825 H       1  UNL1        0.0632
     44 H          -0.0928    4.1854   -0.6828 H       1  UNL1        0.0632
     45 H          -0.2626    1.7873   -1.2628 H       1  UNL1        0.0621
     46 H           1.9195   -2.6305    0.6319 H       1  UNL1        0.0655
     47 H           3.8145   -3.4178    1.9497 H       1  UNL1        0.0278
     48 H           4.7587   -3.6837    0.4682 H       1  UNL1        0.0278
     49 H           5.3925   -2.6129    1.7973 H       1  UNL1        0.0278
     50 H           5.4140    3.1742   -1.5458 H       1  UNL1        0.0474
     51 H           3.7981    2.5411   -2.1399 H       1  UNL1        0.0474
     52 H           3.9632    3.3441   -0.5413 H       1  UNL1        0.0474
@<TRIPOS>BOND
     1     1     2    1
     2     2     3    1
     3     3     4    1
     4     4     5   ar
     5     5     6   ar
     6     6     7    1
     7     6     8   ar
     8     8     9   ar
     9     9    10    1
    10    10    11    1
    11    11    12   ar
    12    12    13   ar
    13    13    14   ar
    14    14    15    1
    15    14    16   ar
    16    16    17   ar
    17    10    18    1
    18    18    19    1
    19    19    20   ar
    20    20    21   ar
    21    21    22    1
    22    21    23   ar
    23    23    24   ar
    24    24    25   ar
    25    25    26   ar
    26    26    27    1
    27    26    28   ar
    28    28    29   ar
    29    18    30   am
    30    30    31    2
    31     9     4   ar
    32    17    11   ar
    33    29    19   ar
    34    30     8    1
    35    28    23   ar
    36     1    32    1
    37     1    33    1
    38     1    34    1
    39     3    35    1
    40     3    36    1
    41     5    37    1
    42     7    38    1
    43     7    39    1
    44     7    40    1
    45    10    41    1
    46    12    42    1
    47    13    43    1
    48    16    44    1
    49    17    45    1
    50    20    46    1
    51    22    47    1
    52    22    48    1
    53    22    49    1
    54    27    50    1
    55    27    51    1
    56    27    52    1
