@<TRIPOS>MOLECULE
*****
 36 36 0 0 0
SMALL
GASTEIGER

@<TRIPOS>ATOM
      1 N           6.1595    2.4350    0.3944 N.pl3   1  UNL1       -0.3382
      2 C           5.2865    1.2961    0.2868 C.2     1  UNL1        0.1439
      3 N           5.9654    0.3643   -0.2972 N.2     1  UNL1       -0.2801
      4 S           3.7874    1.9336    1.0528 S.3     1  UNL1       -0.0910
      5 C           2.5316    0.6265    1.0201 C.3     1  UNL1        0.0048
      6 C           2.1061    0.3061   -0.4029 C.3     1  UNL1       -0.0182
      7 C           1.0846   -0.7632   -0.3377 C.ar    1  UNL1       -0.0463
      8 C          -0.2530   -0.4202   -0.2460 C.ar    1  UNL1       -0.0553
      9 C          -1.2888   -1.3207   -0.1823 C.ar    1  UNL1       -0.0463
     10 C          -2.7104   -0.9729   -0.0853 C.3     1  UNL1       -0.0182
     11 C          -3.2231   -0.8325    1.3291 C.3     1  UNL1        0.0048
     12 S          -4.9854   -0.4083    1.1784 S.3     1  UNL1       -0.0910
     13 C          -5.2099    1.1993    0.4412 C.2     1  UNL1        0.1439
     14 N          -4.5108    2.3113   -0.0953 N.pl3   1  UNL1       -0.3382
     15 N          -6.4843    0.9496    0.6033 N.2     1  UNL1       -0.2801
     16 C          -0.8938   -2.6639   -0.2165 C.ar    1  UNL1       -0.0585
     17 C           0.4253   -3.0592   -0.3074 C.ar    1  UNL1       -0.0612
     18 C           1.4421   -2.1095   -0.3704 C.ar    1  UNL1       -0.0585
     19 H           6.9160    2.5173    1.1201 H       1  UNL1        0.1442
     20 H           6.2257    3.3349   -0.1674 H       1  UNL1        0.1442
     21 H           5.5060   -0.5404   -0.4665 H       1  UNL1        0.1886
     22 H           2.9357   -0.3276    1.4315 H       1  UNL1        0.0384
     23 H           1.6439    1.0058    1.5525 H       1  UNL1        0.0384
     24 H           1.6146    1.2229   -0.8504 H       1  UNL1        0.0321
     25 H           2.9599    0.0788   -1.0624 H       1  UNL1        0.0321
     26 H          -0.5633    0.6306   -0.2185 H       1  UNL1        0.0623
     27 H          -2.9703   -0.0326   -0.6072 H       1  UNL1        0.0321
     28 H          -3.3534   -1.7692   -0.5533 H       1  UNL1        0.0321
     29 H          -3.1316   -1.7980    1.8665 H       1  UNL1        0.0384
     30 H          -2.6645   -0.0825    1.9305 H       1  UNL1        0.0384
     31 H          -5.1850    2.7711   -0.7610 H       1  UNL1        0.1442
     32 H          -3.5419    2.3566    0.3187 H       1  UNL1        0.1442
     33 H          -7.1654    1.6980    0.2813 H       1  UNL1        0.1886
     34 H          -1.6246   -3.4763   -0.1705 H       1  UNL1        0.0620
     35 H           0.6893   -4.1126   -0.3340 H       1  UNL1        0.0618
     36 H           2.4800   -2.3479   -0.4433 H       1  UNL1        0.0620
@<TRIPOS>BOND
     1     1     2    1
     2     2     3    2
     3     2     4    1
     4     4     5    1
     5     5     6    1
     6     6     7    1
     7     7     8   ar
     8     8     9   ar
     9     9    10    1
    10    10    11    1
    11    11    12    1
    12    12    13    1
    13    13    14    1
    14    13    15    2
    15     9    16   ar
    16    16    17   ar
    17    17    18   ar
    18    18     7   ar
    19     1    19    1
    20     1    20    1
    21     3    21    1
    22     5    22    1
    23     5    23    1
    24     6    24    1
    25     6    25    1
    26     8    26    1
    27    10    27    1
    28    10    28    1
    29    11    29    1
    30    11    30    1
    31    14    31    1
    32    14    32    1
    33    15    33    1
    34    16    34    1
    35    17    35    1
    36    18    36    1
