
     RDKit          3D

 36 36  0  0  0  0  0  0  0  0999 V2000
    6.1595    2.4350    0.3944 N   0  0  0  0  0  0  0  0  0  0  0  0
    5.2865    1.2961    0.2868 C   0  0  0  0  0  0  0  0  0  0  0  0
    5.9654    0.3643   -0.2972 N   0  0  0  0  0  0  0  0  0  0  0  0
    3.7874    1.9336    1.0528 S   0  0  0  0  0  0  0  0  0  0  0  0
    2.5316    0.6265    1.0201 C   0  0  0  0  0  0  0  0  0  0  0  0
    2.1061    0.3061   -0.4029 C   0  0  0  0  0  0  0  0  0  0  0  0
    1.0846   -0.7632   -0.3377 C   0  0  0  0  0  0  0  0  0  0  0  0
   -0.2530   -0.4202   -0.2460 C   0  0  0  0  0  0  0  0  0  0  0  0
   -1.2888   -1.3207   -0.1823 C   0  0  0  0  0  0  0  0  0  0  0  0
   -2.7104   -0.9729   -0.0853 C   0  0  0  0  0  0  0  0  0  0  0  0
   -3.2231   -0.8325    1.3291 C   0  0  0  0  0  0  0  0  0  0  0  0
   -4.9854   -0.4083    1.1784 S   0  0  0  0  0  0  0  0  0  0  0  0
   -5.2099    1.1993    0.4412 C   0  0  0  0  0  0  0  0  0  0  0  0
   -4.5108    2.3113   -0.0953 N   0  0  0  0  0  0  0  0  0  0  0  0
   -6.4843    0.9496    0.6033 N   0  0  0  0  0  0  0  0  0  0  0  0
   -0.8938   -2.6639   -0.2165 C   0  0  0  0  0  0  0  0  0  0  0  0
    0.4253   -3.0592   -0.3074 C   0  0  0  0  0  0  0  0  0  0  0  0
    1.4421   -2.1095   -0.3704 C   0  0  0  0  0  0  0  0  0  0  0  0
    6.9160    2.5173    1.1201 H   0  0  0  0  0  0  0  0  0  0  0  0
    6.2257    3.3349   -0.1674 H   0  0  0  0  0  0  0  0  0  0  0  0
    5.5060   -0.5404   -0.4665 H   0  0  0  0  0  0  0  0  0  0  0  0
    2.9357   -0.3276    1.4315 H   0  0  0  0  0  0  0  0  0  0  0  0
    1.6439    1.0058    1.5525 H   0  0  0  0  0  0  0  0  0  0  0  0
    1.6146    1.2229   -0.8504 H   0  0  0  0  0  0  0  0  0  0  0  0
    2.9599    0.0788   -1.0624 H   0  0  0  0  0  0  0  0  0  0  0  0
   -0.5633    0.6306   -0.2185 H   0  0  0  0  0  0  0  0  0  0  0  0
   -2.9703   -0.0326   -0.6072 H   0  0  0  0  0  0  0  0  0  0  0  0
   -3.3534   -1.7692   -0.5533 H   0  0  0  0  0  0  0  0  0  0  0  0
   -3.1316   -1.7980    1.8665 H   0  0  0  0  0  0  0  0  0  0  0  0
   -2.6645   -0.0825    1.9305 H   0  0  0  0  0  0  0  0  0  0  0  0
   -5.1850    2.7711   -0.7610 H   0  0  0  0  0  0  0  0  0  0  0  0
   -3.5419    2.3566    0.3187 H   0  0  0  0  0  0  0  0  0  0  0  0
   -7.1654    1.6980    0.2813 H   0  0  0  0  0  0  0  0  0  0  0  0
   -1.6246   -3.4763   -0.1705 H   0  0  0  0  0  0  0  0  0  0  0  0
    0.6893   -4.1126   -0.3340 H   0  0  0  0  0  0  0  0  0  0  0  0
    2.4800   -2.3479   -0.4433 H   0  0  0  0  0  0  0  0  0  0  0  0
  1  2  1  0
  2  3  2  3
  2  4  1  0
  4  5  1  0
  5  6  1  0
  6  7  1  0
  7  8  2  0
  8  9  1  0
  9 10  1  0
 10 11  1  0
 11 12  1  0
 12 13  1  0
 13 14  1  0
 13 15  2  3
  9 16  2  0
 16 17  1  0
 17 18  2  0
 18  7  1  0
  1 19  1  0
  1 20  1  0
  3 21  1  0
  5 22  1  0
  5 23  1  0
  6 24  1  0
  6 25  1  0
  8 26  1  0
 10 27  1  0
 10 28  1  0
 11 29  1  0
 11 30  1  0
 14 31  1  0
 14 32  1  0
 15 33  1  0
 16 34  1  0
 17 35  1  0
 18 36  1  0
M  END
$$$$
