@<TRIPOS>MOLECULE
*****
 51 55 0 0 0
SMALL
GASTEIGER

@<TRIPOS>ATOM
      1 N          -5.7211   -2.5672    1.1142 N.pl3   1  UNL1       -0.3134
      2 C          -5.0232   -1.4037    0.7289 C.2     1  UNL1        0.2764
      3 N          -5.2938   -0.7255   -0.3096 N.2     1  UNL1       -0.2194
      4 C          -4.6031    0.4697   -0.7406 C.3     1  UNL1        0.1603
      5 C          -3.4373   -0.0101   -1.5258 C.ar    1  UNL1        0.0228
      6 C          -2.1618    0.3993   -1.1138 C.ar    1  UNL1       -0.0321
      7 C          -1.0486    0.0117   -1.8167 C.ar    1  UNL1        0.0342
      8 N           0.2217    0.4327   -1.3879 N.am    1  UNL1       -0.2802
      9 C           1.0191   -0.3051   -0.4681 C.2     1  UNL1        0.2681
     10 O           0.6026   -1.3893    0.0055 O.2     1  UNL1       -0.2681
     11 C           2.3260    0.2003   -0.0738 C.ar    1  UNL1        0.1439
     12 C           3.1104   -0.5025    0.8160 C.ar    1  UNL1        0.0619
     13 N           4.3146   -0.0516    1.1889 N.ar    1  UNL1       -0.2177
     14 C           4.8098    1.0900    0.7216 C.ar    1  UNL1        0.2339
     15 O           6.0509    1.5933    1.0811 O.3     1  UNL1       -0.4674
     16 C           6.9550    1.0119    1.9574 C.3     1  UNL1        0.1501
     17 C           7.4341   -0.3300    1.5681 C.ar    1  UNL1        0.1621
     18 C           6.8851   -1.5130    1.9538 C.ar    1  UNL1        0.0723
     19 N           7.6153   -2.4868    1.3832 N.ar    1  UNL1       -0.2242
     20 C           8.5919   -1.9212    0.6625 C.ar    1  UNL1        0.1822
     21 O           8.4681   -0.6286    0.7849 O.2     1  UNL1       -0.4439
     22 C           4.0319    1.8188   -0.1815 C.ar    1  UNL1        0.0899
     23 N           2.8338    1.3478   -0.5380 N.ar    1  UNL1       -0.2435
     24 C          -1.2157   -0.7851   -2.9300 C.ar    1  UNL1       -0.0377
     25 C          -2.4657   -1.1925   -3.3410 C.ar    1  UNL1       -0.0243
     26 C          -3.5993   -0.8052   -2.6348 C.ar    1  UNL1        0.1292
     27 F          -4.8291   -1.2521   -3.0391 F       1  UNL1       -0.2051
     28 C          -5.4921    1.3270   -1.5555 C.3     1  UNL1        0.2686
     29 F          -5.9982    0.7781   -2.6949 F       1  UNL1       -0.2062
     30 F          -4.8287    2.5412   -1.8457 F       1  UNL1       -0.2062
     31 C          -4.0843    1.2428    0.4782 C.3     1  UNL1        0.0344
     32 C          -4.9046    1.3521    1.7114 C.3     1  UNL1       -0.0064
     33 C          -3.7074    0.4321    1.6240 C.3     1  UNL1        0.1091
     34 O          -3.9770   -0.9560    1.5163 O.2     1  UNL1       -0.4622
     35 H          -5.6049   -3.4530    0.5945 H       1  UNL1        0.1466
     36 H          -6.3568   -2.5280    1.9288 H       1  UNL1        0.1466
     37 H          -1.9961    1.0198   -0.2395 H       1  UNL1        0.0640
     38 H           0.6469    1.3394   -1.7413 H       1  UNL1        0.1552
     39 H           2.6896   -1.4380    1.1907 H       1  UNL1        0.0854
     40 H           7.8542    1.6407    2.1244 H       1  UNL1        0.0780
     41 H           6.4457    0.9187    2.9474 H       1  UNL1        0.0780
     42 H           6.0371   -1.7049    2.5912 H       1  UNL1        0.0866
     43 H           9.3560   -2.3954    0.0780 H       1  UNL1        0.1255
     44 H           4.4345    2.7455   -0.5605 H       1  UNL1        0.0884
     45 H          -0.3351   -1.0952   -3.4919 H       1  UNL1        0.0637
     46 H          -2.6298   -1.8168   -4.2086 H       1  UNL1        0.0647
     47 H          -6.3936    1.6848   -0.9717 H       1  UNL1        0.1047
     48 H          -3.5045    2.1568    0.2580 H       1  UNL1        0.0366
     49 H          -5.8652    0.8362    1.8224 H       1  UNL1        0.0306
     50 H          -4.8384    2.2672    2.3345 H       1  UNL1        0.0306
     51 H          -2.8187    0.6555    2.2445 H       1  UNL1        0.0737
@<TRIPOS>BOND
     1     1     2    1
     2     2     3    2
     3     3     4    1
     4     4     5    1
     5     5     6   ar
     6     6     7   ar
     7     7     8    1
     8     8     9   am
     9     9    10    2
    10     9    11    1
    11    11    12   ar
    12    12    13   ar
    13    13    14   ar
    14    14    15    1
    15    15    16    1
    16    16    17    1
    17    17    18   ar
    18    18    19   ar
    19    19    20   ar
    20    20    21   ar
    21    14    22   ar
    22    22    23   ar
    23     7    24   ar
    24    24    25   ar
    25    25    26   ar
    26    26    27    1
    27     4    28    1
    28    28    29    1
    29    28    30    1
    30     4    31    1
    31    31    32    1
    32    32    33    1
    33    33    34    1
    34    34     2    1
    35    26     5   ar
    36    33    31    1
    37    23    11   ar
    38    21    17   ar
    39     1    35    1
    40     1    36    1
    41     6    37    1
    42     8    38    1
    43    12    39    1
    44    16    40    1
    45    16    41    1
    46    18    42    1
    47    20    43    1
    48    22    44    1
    49    24    45    1
    50    25    46    1
    51    28    47    1
    52    31    48    1
    53    32    49    1
    54    32    50    1
    55    33    51    1
