@<TRIPOS>MOLECULE
*****
 67 71 0 0 0
SMALL
GASTEIGER

@<TRIPOS>ATOM
      1 C          -2.5476    0.0025   -0.7481 C.3     1  UNL1       -0.0254
      2 C          -3.7822    0.1358   -1.5251 C.3     1  UNL1       -0.0455
      3 C          -4.3241    1.4669   -1.0447 C.3     1  UNL1       -0.0118
      4 C          -3.0932    2.2672   -0.6264 C.3     1  UNL1        0.1320
      5 O          -3.0951    3.4225   -1.4164 O.3     1  UNL1       -0.3760
      6 C          -3.1889    2.5799    0.7906 C.1     1  UNL1       -0.0673
      7 C          -3.2903    2.8444    1.9760 C.1     1  UNL1       -0.1027
      8 C          -3.4005    3.1819    3.4052 C.3     1  UNL1       -0.0025
      9 C          -1.9107    1.3902   -0.9014 C.3     1  UNL1        0.0122
     10 C          -1.4708    1.6361   -2.3301 C.3     1  UNL1       -0.0557
     11 C          -0.7970    1.4688    0.0700 C.3     1  UNL1       -0.0332
     12 C          -0.0716    0.2408    0.4452 C.3     1  UNL1        0.0066
     13 C           1.3812    0.4274    0.1916 C.ar    1  UNL1       -0.0401
     14 C           2.2434    0.6708    1.2713 C.ar    1  UNL1       -0.0563
     15 C           3.6243    0.8612    1.1440 C.ar    1  UNL1       -0.0404
     16 C           4.1769    0.8085   -0.1088 C.ar    1  UNL1        0.0292
     17 C           3.3648    0.5731   -1.1836 C.ar    1  UNL1       -0.0404
     18 C           2.0233    0.3943   -1.0014 C.ar    1  UNL1       -0.0563
     19 N           5.5796    1.0035   -0.2256 N.pl3   1  UNL1       -0.3360
     20 C           6.3646    1.2473    0.9601 C.3     1  UNL1        0.0004
     21 C           6.1664    0.9462   -1.5652 C.3     1  UNL1        0.0004
     22 C          -0.6111   -1.0526    0.0099 C.2     1  UNL1       -0.0553
     23 C          -0.3413   -2.2061    0.6287 C.2     1  UNL1       -0.0436
     24 C           0.5378   -2.2383    1.8077 C.3     1  UNL1       -0.0204
     25 C           0.4304   -3.5891    2.4929 C.3     1  UNL1        0.0139
     26 C           0.4803   -4.6410    1.4310 C.2     1  UNL1        0.1567
     27 O           1.3740   -5.5353    1.3390 O.2     1  UNL1       -0.2927
     28 C          -0.6089   -4.6056    0.4318 C.2     1  UNL1       -0.0158
     29 C          -1.0029   -3.3979    0.0483 C.2     1  UNL1       -0.0409
     30 C          -2.1121   -3.3572   -0.9363 C.3     1  UNL1       -0.0268
     31 C          -1.9000   -2.1883   -1.8288 C.3     1  UNL1       -0.0422
     32 C          -1.4856   -0.9209   -1.2032 C.3     1  UNL1       -0.0150
     33 H          -2.8005   -0.1142    0.3228 H       1  UNL1        0.0313
     34 H          -4.5098   -0.6493   -1.1552 H       1  UNL1        0.0269
     35 H          -3.6922    0.0945   -2.6257 H       1  UNL1        0.0269
     36 H          -4.9089    1.9733   -1.8432 H       1  UNL1        0.0303
     37 H          -4.9695    1.2981   -0.1416 H       1  UNL1        0.0303
     38 H          -4.0464    3.7250   -1.5486 H       1  UNL1        0.2114
     39 H          -2.4833    3.7121    3.7732 H       1  UNL1        0.0362
     40 H          -3.4847    2.2697    4.0251 H       1  UNL1        0.0362
     41 H          -4.2474    3.8850    3.5005 H       1  UNL1        0.0362
     42 H          -1.9005    0.9301   -3.0477 H       1  UNL1        0.0236
     43 H          -1.8086    2.6526   -2.6132 H       1  UNL1        0.0236
     44 H          -0.3644    1.6723   -2.4191 H       1  UNL1        0.0236
     45 H          -0.0778    2.2412   -0.3540 H       1  UNL1        0.0281
     46 H          -1.2120    2.0307    0.9627 H       1  UNL1        0.0281
     47 H          -0.1240    0.2097    1.5891 H       1  UNL1        0.0394
     48 H           1.8831    0.7289    2.3086 H       1  UNL1        0.0621
     49 H           4.2382    1.0452    2.0128 H       1  UNL1        0.0636
     50 H           3.8294    0.5376   -2.1537 H       1  UNL1        0.0636
     51 H           1.4619    0.2169   -1.8844 H       1  UNL1        0.0621
     52 H           6.1910    0.4941    1.7635 H       1  UNL1        0.0428
     53 H           6.1764    2.2776    1.3287 H       1  UNL1        0.0428
     54 H           7.4332    1.1669    0.6430 H       1  UNL1        0.0428
     55 H           6.0299   -0.0848   -1.9178 H       1  UNL1        0.0428
     56 H           7.2465    1.1294   -1.4407 H       1  UNL1        0.0428
     57 H           5.6953    1.6763   -2.2365 H       1  UNL1        0.0428
     58 H           1.6063   -2.1191    1.4542 H       1  UNL1        0.0317
     59 H           0.3497   -1.4885    2.5755 H       1  UNL1        0.0317
     60 H          -0.5376   -3.6304    3.0207 H       1  UNL1        0.0348
     61 H           1.2667   -3.7285    3.2167 H       1  UNL1        0.0348
     62 H          -1.0240   -5.5457    0.0611 H       1  UNL1        0.0655
     63 H          -3.1011   -3.2955   -0.4081 H       1  UNL1        0.0313
     64 H          -2.0605   -4.2732   -1.5697 H       1  UNL1        0.0313
     65 H          -1.1347   -2.5082   -2.5988 H       1  UNL1        0.0274
     66 H          -2.8206   -1.9641   -2.4409 H       1  UNL1        0.0274
     67 H          -0.8123   -0.4025   -1.9573 H       1  UNL1        0.0349
@<TRIPOS>BOND
     1     1     2    1
     2     2     3    1
     3     3     4    1
     4     4     5    1
     5     4     6    1
     6     6     7    3
     7     7     8    1
     8     4     9    1
     9     9    10    1
    10     9    11    1
    11    11    12    1
    12    12    13    1
    13    13    14   ar
    14    14    15   ar
    15    15    16   ar
    16    16    17   ar
    17    17    18   ar
    18    16    19    1
    19    19    20    1
    20    19    21    1
    21    12    22    1
    22    22    23    2
    23    23    24    1
    24    24    25    1
    25    25    26    1
    26    26    27    2
    27    26    28    1
    28    28    29    2
    29    29    30    1
    30    30    31    1
    31    31    32    1
    32     9     1    1
    33    18    13   ar
    34    32    22    1
    35    32     1    1
    36    29    23    1
    37     1    33    1
    38     2    34    1
    39     2    35    1
    40     3    36    1
    41     3    37    1
    42     5    38    1
    43     8    39    1
    44     8    40    1
    45     8    41    1
    46    10    42    1
    47    10    43    1
    48    10    44    1
    49    11    45    1
    50    11    46    1
    51    12    47    1
    52    14    48    1
    53    15    49    1
    54    17    50    1
    55    18    51    1
    56    20    52    1
    57    20    53    1
    58    20    54    1
    59    21    55    1
    60    21    56    1
    61    21    57    1
    62    24    58    1
    63    24    59    1
    64    25    60    1
    65    25    61    1
    66    28    62    1
    67    30    63    1
    68    30    64    1
    69    31    65    1
    70    31    66    1
    71    32    67    1
