
     RDKit          3D

 67 71  0  0  0  0  0  0  0  0999 V2000
   -2.5476    0.0025   -0.7481 C   0  0  2  0  0  0  0  0  0  0  0  0
   -3.7822    0.1358   -1.5251 C   0  0  0  0  0  0  0  0  0  0  0  0
   -4.3241    1.4669   -1.0447 C   0  0  0  0  0  0  0  0  0  0  0  0
   -3.0932    2.2672   -0.6264 C   0  0  1  0  0  0  0  0  0  0  0  0
   -3.0951    3.4225   -1.4164 O   0  0  0  0  0  0  0  0  0  0  0  0
   -3.1889    2.5799    0.7906 C   0  0  0  0  0  0  0  0  0  0  0  0
   -3.2903    2.8444    1.9760 C   0  0  0  0  0  0  0  0  0  0  0  0
   -3.4005    3.1819    3.4052 C   0  0  0  0  0  0  0  0  0  0  0  0
   -1.9107    1.3902   -0.9014 C   0  0  2  0  0  0  0  0  0  0  0  0
   -1.4708    1.6361   -2.3301 C   0  0  0  0  0  0  0  0  0  0  0  0
   -0.7970    1.4688    0.0700 C   0  0  0  0  0  0  0  0  0  0  0  0
   -0.0716    0.2408    0.4452 C   0  0  2  0  0  0  0  0  0  0  0  0
    1.3812    0.4274    0.1916 C   0  0  0  0  0  0  0  0  0  0  0  0
    2.2434    0.6708    1.2713 C   0  0  0  0  0  0  0  0  0  0  0  0
    3.6243    0.8612    1.1440 C   0  0  0  0  0  0  0  0  0  0  0  0
    4.1769    0.8085   -0.1088 C   0  0  0  0  0  0  0  0  0  0  0  0
    3.3648    0.5731   -1.1836 C   0  0  0  0  0  0  0  0  0  0  0  0
    2.0233    0.3943   -1.0014 C   0  0  0  0  0  0  0  0  0  0  0  0
    5.5796    1.0035   -0.2256 N   0  0  0  0  0  0  0  0  0  0  0  0
    6.3646    1.2473    0.9601 C   0  0  0  0  0  0  0  0  0  0  0  0
    6.1664    0.9462   -1.5652 C   0  0  0  0  0  0  0  0  0  0  0  0
   -0.6111   -1.0526    0.0099 C   0  0  0  0  0  0  0  0  0  0  0  0
   -0.3413   -2.2061    0.6287 C   0  0  0  0  0  0  0  0  0  0  0  0
    0.5378   -2.2383    1.8077 C   0  0  0  0  0  0  0  0  0  0  0  0
    0.4304   -3.5891    2.4929 C   0  0  0  0  0  0  0  0  0  0  0  0
    0.4803   -4.6410    1.4310 C   0  0  0  0  0  0  0  0  0  0  0  0
    1.3740   -5.5353    1.3390 O   0  0  0  0  0  0  0  0  0  0  0  0
   -0.6089   -4.6056    0.4318 C   0  0  0  0  0  0  0  0  0  0  0  0
   -1.0029   -3.3979    0.0483 C   0  0  0  0  0  0  0  0  0  0  0  0
   -2.1121   -3.3572   -0.9363 C   0  0  0  0  0  0  0  0  0  0  0  0
   -1.9000   -2.1883   -1.8288 C   0  0  0  0  0  0  0  0  0  0  0  0
   -1.4856   -0.9209   -1.2032 C   0  0  1  0  0  0  0  0  0  0  0  0
   -2.8005   -0.1142    0.3228 H   0  0  0  0  0  0  0  0  0  0  0  0
   -4.5098   -0.6493   -1.1552 H   0  0  0  0  0  0  0  0  0  0  0  0
   -3.6922    0.0945   -2.6257 H   0  0  0  0  0  0  0  0  0  0  0  0
   -4.9089    1.9733   -1.8432 H   0  0  0  0  0  0  0  0  0  0  0  0
   -4.9695    1.2981   -0.1416 H   0  0  0  0  0  0  0  0  0  0  0  0
   -4.0464    3.7250   -1.5486 H   0  0  0  0  0  0  0  0  0  0  0  0
   -2.4833    3.7121    3.7732 H   0  0  0  0  0  0  0  0  0  0  0  0
   -3.4847    2.2697    4.0251 H   0  0  0  0  0  0  0  0  0  0  0  0
   -4.2474    3.8850    3.5005 H   0  0  0  0  0  0  0  0  0  0  0  0
   -1.9005    0.9301   -3.0477 H   0  0  0  0  0  0  0  0  0  0  0  0
   -1.8086    2.6526   -2.6132 H   0  0  0  0  0  0  0  0  0  0  0  0
   -0.3644    1.6723   -2.4191 H   0  0  0  0  0  0  0  0  0  0  0  0
   -0.0778    2.2412   -0.3540 H   0  0  0  0  0  0  0  0  0  0  0  0
   -1.2120    2.0307    0.9627 H   0  0  0  0  0  0  0  0  0  0  0  0
   -0.1240    0.2097    1.5891 H   0  0  0  0  0  0  0  0  0  0  0  0
    1.8831    0.7289    2.3086 H   0  0  0  0  0  0  0  0  0  0  0  0
    4.2382    1.0452    2.0128 H   0  0  0  0  0  0  0  0  0  0  0  0
    3.8294    0.5376   -2.1537 H   0  0  0  0  0  0  0  0  0  0  0  0
    1.4619    0.2169   -1.8844 H   0  0  0  0  0  0  0  0  0  0  0  0
    6.1910    0.4941    1.7635 H   0  0  0  0  0  0  0  0  0  0  0  0
    6.1764    2.2776    1.3287 H   0  0  0  0  0  0  0  0  0  0  0  0
    7.4332    1.1669    0.6430 H   0  0  0  0  0  0  0  0  0  0  0  0
    6.0299   -0.0848   -1.9178 H   0  0  0  0  0  0  0  0  0  0  0  0
    7.2465    1.1294   -1.4407 H   0  0  0  0  0  0  0  0  0  0  0  0
    5.6953    1.6763   -2.2365 H   0  0  0  0  0  0  0  0  0  0  0  0
    1.6063   -2.1191    1.4542 H   0  0  0  0  0  0  0  0  0  0  0  0
    0.3497   -1.4885    2.5755 H   0  0  0  0  0  0  0  0  0  0  0  0
   -0.5376   -3.6304    3.0207 H   0  0  0  0  0  0  0  0  0  0  0  0
    1.2667   -3.7285    3.2167 H   0  0  0  0  0  0  0  0  0  0  0  0
   -1.0240   -5.5457    0.0611 H   0  0  0  0  0  0  0  0  0  0  0  0
   -3.1011   -3.2955   -0.4081 H   0  0  0  0  0  0  0  0  0  0  0  0
   -2.0605   -4.2732   -1.5697 H   0  0  0  0  0  0  0  0  0  0  0  0
   -1.1347   -2.5082   -2.5988 H   0  0  0  0  0  0  0  0  0  0  0  0
   -2.8206   -1.9641   -2.4409 H   0  0  0  0  0  0  0  0  0  0  0  0
   -0.8123   -0.4025   -1.9573 H   0  0  0  0  0  0  0  0  0  0  0  0
  1  2  1  0
  2  3  1  0
  3  4  1  0
  4  5  1  0
  4  6  1  1
  6  7  3  0
  7  8  1  0
  4  9  1  0
  9 10  1  6
  9 11  1  0
 11 12  1  0
 12 13  1  0
 13 14  2  0
 14 15  1  0
 15 16  2  0
 16 17  1  0
 17 18  2  0
 16 19  1  0
 19 20  1  0
 19 21  1  0
 12 22  1  0
 22 23  2  0
 23 24  1  0
 24 25  1  0
 25 26  1  0
 26 27  2  0
 26 28  1  0
 28 29  2  0
 29 30  1  0
 30 31  1  0
 31 32  1  0
  9  1  1  0
 18 13  1  0
 32 22  1  0
 32  1  1  0
 29 23  1  0
  1 33  1  1
  2 34  1  0
  2 35  1  0
  3 36  1  0
  3 37  1  0
  5 38  1  0
  8 39  1  0
  8 40  1  0
  8 41  1  0
 10 42  1  0
 10 43  1  0
 10 44  1  0
 11 45  1  0
 11 46  1  0
 12 47  1  1
 14 48  1  0
 15 49  1  0
 17 50  1  0
 18 51  1  0
 20 52  1  0
 20 53  1  0
 20 54  1  0
 21 55  1  0
 21 56  1  0
 21 57  1  0
 24 58  1  0
 24 59  1  0
 25 60  1  0
 25 61  1  0
 28 62  1  0
 30 63  1  0
 30 64  1  0
 31 65  1  0
 31 66  1  0
 32 67  1  6
M  END
$$$$
