@<TRIPOS>MOLECULE
*****
 61 65 0 0 0
SMALL
GASTEIGER

@<TRIPOS>ATOM
      1 C           9.1153   -1.5581   -0.5051 C.3     1  UNL1       -0.0305
      2 C           7.9155   -2.5153   -0.5135 C.3     1  UNL1        0.0913
      3 O           6.7741   -1.6994   -0.2756 O.3     1  UNL1       -0.4505
      4 C           5.4889   -2.1872   -0.2080 C.2     1  UNL1        0.4030
      5 O           5.3163   -3.4226   -0.3656 O.2     1  UNL1       -0.2263
      6 N           4.3530   -1.3728    0.0292 N.am    1  UNL1       -0.2633
      7 C           2.9256   -1.5632    0.1543 C.3     1  UNL1        0.0418
      8 C           2.8554   -0.2930    0.9695 C.3     1  UNL1        0.0850
      9 N           1.8215    0.6402    0.5247 N.ar    1  UNL1       -0.2526
     10 N           2.0578    1.9230    0.3426 N.ar    1  UNL1       -0.1751
     11 C           0.9515    2.5710   -0.0666 C.ar    1  UNL1        0.0660
     12 C           0.8833    4.0310   -0.3612 C.3     1  UNL1       -0.0203
     13 C          -0.0178    1.6104   -0.1352 C.ar    1  UNL1        0.0304
     14 C           0.5495    0.4167    0.2377 C.ar    1  UNL1        0.1298
     15 C          -0.4586   -0.6144    0.1635 C.2     1  UNL1        0.2700
     16 O          -0.2756   -1.8326    0.4406 O.2     1  UNL1       -0.2679
     17 N          -1.6832    0.0105   -0.2787 N.am    1  UNL1       -0.2531
     18 C          -2.8549   -0.7524   -0.4798 C.ar    1  UNL1        0.0542
     19 C          -3.7360   -0.9788    0.5390 C.ar    1  UNL1       -0.0308
     20 C          -4.8928   -1.7343    0.3158 C.ar    1  UNL1        0.0158
     21 C          -5.8393   -1.9733    1.4237 C.3     1  UNL1       -0.0345
     22 C          -5.1065   -2.2310   -0.9417 C.ar    1  UNL1        0.2541
     23 O          -6.1585   -2.9136   -1.1298 O.2     1  UNL1       -0.2674
     24 N          -4.2443   -2.0110   -1.9434 N.ar    1  UNL1       -0.3163
     25 C          -4.5613   -2.5802   -3.2372 C.3     1  UNL1        0.0148
     26 C          -3.1239   -1.2778   -1.7221 C.ar    1  UNL1        0.0291
     27 C          -1.4582    1.4187   -0.4654 C.3     1  UNL1        0.0854
     28 C          -2.2303    2.2277    0.4964 C.ar    1  UNL1       -0.0221
     29 C          -2.9644    3.3276    0.0460 C.ar    1  UNL1       -0.0551
     30 C          -3.6960    4.1213    0.9032 C.ar    1  UNL1       -0.0431
     31 C          -3.7234    3.8451    2.2571 C.ar    1  UNL1        0.0410
     32 CL         -4.6365    4.8216    3.3888 Cl      1  UNL1       -0.0835
     33 C          -2.9870    2.7438    2.7001 C.ar    1  UNL1       -0.0431
     34 C          -2.2637    1.9610    1.8443 C.ar    1  UNL1       -0.0551
     35 C           4.1472    0.0397    0.2523 C.3     1  UNL1        0.0418
     36 H           8.8699   -0.6147   -1.0354 H       1  UNL1        0.0262
     37 H           9.9980   -2.0002   -0.9781 H       1  UNL1        0.0262
     38 H           9.2970   -1.2630    0.5654 H       1  UNL1        0.0262
     39 H           8.0285   -3.2323    0.3414 H       1  UNL1        0.0695
     40 H           7.8541   -3.0642   -1.4673 H       1  UNL1        0.0695
     41 H           2.4210   -1.4370   -0.8291 H       1  UNL1        0.0487
     42 H           2.6451   -2.4872    0.7017 H       1  UNL1        0.0487
     43 H           2.9578   -0.4019    2.0502 H       1  UNL1        0.0576
     44 H           1.8502    4.3902   -0.8203 H       1  UNL1        0.0293
     45 H           0.0931    4.2686   -1.1118 H       1  UNL1        0.0293
     46 H           0.7598    4.6299    0.5691 H       1  UNL1        0.0293
     47 H          -3.5543   -0.5813    1.5368 H       1  UNL1        0.0641
     48 H          -6.4578   -1.0654    1.5523 H       1  UNL1        0.0279
     49 H          -5.3139   -2.2737    2.3388 H       1  UNL1        0.0279
     50 H          -6.5245   -2.8016    1.1285 H       1  UNL1        0.0279
     51 H          -5.4349   -2.0308   -3.6605 H       1  UNL1        0.0457
     52 H          -3.6638   -2.4994   -3.8778 H       1  UNL1        0.0457
     53 H          -4.8812   -3.6474   -3.1542 H       1  UNL1        0.0457
     54 H          -2.4617   -1.1330   -2.5735 H       1  UNL1        0.0829
     55 H          -1.6540    1.7133   -1.5125 H       1  UNL1        0.0606
     56 H          -2.9571    3.5599   -1.0004 H       1  UNL1        0.0621
     57 H          -4.2635    4.9765    0.5342 H       1  UNL1        0.0632
     58 H          -3.0266    2.5515    3.7633 H       1  UNL1        0.0632
     59 H          -1.7060    1.1103    2.2517 H       1  UNL1        0.0621
     60 H           4.0126    0.6362   -0.6796 H       1  UNL1        0.0487
     61 H           4.8696    0.4982    0.9676 H       1  UNL1        0.0487
@<TRIPOS>BOND
     1     1     2    1
     2     2     3    1
     3     3     4    1
     4     4     5    2
     5     4     6   am
     6     6     7    1
     7     7     8    1
     8     8     9    1
     9     9    10   ar
    10    10    11   ar
    11    11    12    1
    12    11    13   ar
    13    13    14   ar
    14    14    15    1
    15    15    16    2
    16    15    17   am
    17    17    18    1
    18    18    19   ar
    19    19    20   ar
    20    20    21    1
    21    20    22   ar
    22    22    23    2
    23    22    24   ar
    24    24    25    1
    25    24    26   ar
    26    17    27    1
    27    27    28    1
    28    28    29   ar
    29    29    30   ar
    30    30    31   ar
    31    31    32    1
    32    31    33   ar
    33    33    34   ar
    34     8    35    1
    35    35     6    1
    36    14     9   ar
    37    26    18   ar
    38    34    28   ar
    39    27    13    1
    40     1    36    1
    41     1    37    1
    42     1    38    1
    43     2    39    1
    44     2    40    1
    45     7    41    1
    46     7    42    1
    47     8    43    1
    48    12    44    1
    49    12    45    1
    50    12    46    1
    51    19    47    1
    52    21    48    1
    53    21    49    1
    54    21    50    1
    55    25    51    1
    56    25    52    1
    57    25    53    1
    58    26    54    1
    59    27    55    1
    60    29    56    1
    61    30    57    1
    62    33    58    1
    63    34    59    1
    64    35    60    1
    65    35    61    1
