
     RDKit          3D

 55 59  0  0  0  0  0  0  0  0999 V2000
   -0.5268   -2.4124    1.9384 C   0  0  0  0  0  0  0  0  0  0  0  0
   -0.5335   -1.0427    2.5854 C   0  0  2  0  0  0  0  0  0  0  0  0
   -1.5441   -0.1523    1.9124 C   0  0  0  0  0  0  0  0  0  0  0  0
   -1.1365   -0.0368    0.5052 N   0  0  0  0  0  0  0  0  0  0  0  0
   -1.9988   -0.3216   -0.5647 C   0  0  0  0  0  0  0  0  0  0  0  0
   -1.6202   -0.2158   -1.7589 O   0  0  0  0  0  0  0  0  0  0  0  0
   -3.3890   -0.7584   -0.3474 C   0  0  0  0  0  0  0  0  0  0  0  0
   -3.6525   -2.1048   -0.2361 C   0  0  0  0  0  0  0  0  0  0  0  0
   -4.9560   -2.4992   -0.0332 C   0  0  0  0  0  0  0  0  0  0  0  0
   -5.9608   -1.5542    0.0540 C   0  0  0  0  0  0  0  0  0  0  0  0
   -5.6996   -0.2015   -0.0573 C   0  0  0  0  0  0  0  0  0  0  0  0
   -6.9625    0.9946    0.0517 Cl  0  0  0  0  0  0  0  0  0  0  0  0
   -4.3748    0.1934   -0.2632 C   0  0  0  0  0  0  0  0  0  0  0  0
   -4.1353    1.5812   -0.3735 N   0  0  0  0  0  0  0  0  0  0  0  0
   -3.8171    2.2265   -1.4802 N   0  0  0  0  0  0  0  0  0  0  0  0
   -3.6624    3.5344   -1.2213 C   0  0  0  0  0  0  0  0  0  0  0  0
   -3.8982    3.7011    0.1154 C   0  0  0  0  0  0  0  0  0  0  0  0
   -4.1900    2.4589    0.6089 N   0  0  0  0  0  0  0  0  0  0  0  0
    0.2152    0.3868    0.3031 C   0  0  2  0  0  0  0  0  0  0  0  0
    0.7252    0.3636   -1.0908 C   0  0  0  0  0  0  0  0  0  0  0  0
    2.1605    0.8383   -1.0885 C   0  0  0  0  0  0  0  0  0  0  0  0
    2.4428    2.1913   -1.2012 C   0  0  0  0  0  0  0  0  0  0  0  0
    3.7358    2.6348   -1.2069 C   0  0  0  0  0  0  0  0  0  0  0  0
    4.7795    1.7523   -1.1015 C   0  0  0  0  0  0  0  0  0  0  0  0
    4.5471    0.3985   -0.9875 C   0  0  0  0  0  0  0  0  0  0  0  0
    5.6052   -0.5491   -0.8760 N   0  0  0  0  0  0  0  0  0  0  0  0
    6.7063   -0.3258   -0.1797 N   0  0  0  0  0  0  0  0  0  0  0  0
    7.5291   -1.3742   -0.2425 C   0  0  0  0  0  0  0  0  0  0  0  0
    6.8995   -2.3084   -1.0275 C   0  0  0  0  0  0  0  0  0  0  0  0
    5.7262   -1.7456   -1.3853 N   0  0  0  0  0  0  0  0  0  0  0  0
    3.2254   -0.0231   -0.9846 C   0  0  0  0  0  0  0  0  0  0  0  0
    1.1810   -0.3633    1.2003 C   0  0  0  0  0  0  0  0  0  0  0  0
    0.7053   -0.4217    2.5110 O   0  0  0  0  0  0  0  0  0  0  0  0
    0.1565   -3.0952    2.4613 H   0  0  0  0  0  0  0  0  0  0  0  0
   -0.3830   -2.3889    0.8580 H   0  0  0  0  0  0  0  0  0  0  0  0
   -1.5653   -2.8243    2.1038 H   0  0  0  0  0  0  0  0  0  0  0  0
   -0.7523   -1.2008    3.6574 H   0  0  0  0  0  0  0  0  0  0  0  0
   -2.5769   -0.5390    1.9933 H   0  0  0  0  0  0  0  0  0  0  0  0
   -1.4741    0.8478    2.3792 H   0  0  0  0  0  0  0  0  0  0  0  0
   -2.8240   -2.7953   -0.3129 H   0  0  0  0  0  0  0  0  0  0  0  0
   -5.1644   -3.5632    0.0547 H   0  0  0  0  0  0  0  0  0  0  0  0
   -6.9934   -1.8619    0.2144 H   0  0  0  0  0  0  0  0  0  0  0  0
   -3.4044    4.2903   -1.9325 H   0  0  0  0  0  0  0  0  0  0  0  0
   -3.8755    4.6004    0.7199 H   0  0  0  0  0  0  0  0  0  0  0  0
    0.2386    1.4687    0.6602 H   0  0  0  0  0  0  0  0  0  0  0  0
    0.6557   -0.5979   -1.6024 H   0  0  0  0  0  0  0  0  0  0  0  0
    0.1849    1.1586   -1.6753 H   0  0  0  0  0  0  0  0  0  0  0  0
    1.5893    2.8727   -1.2838 H   0  0  0  0  0  0  0  0  0  0  0  0
    3.9553    3.6885   -1.2947 H   0  0  0  0  0  0  0  0  0  0  0  0
    5.8080    2.0848   -1.1041 H   0  0  0  0  0  0  0  0  0  0  0  0
    8.4949   -1.4608    0.2328 H   0  0  0  0  0  0  0  0  0  0  0  0
    7.2777   -3.2864   -1.2944 H   0  0  0  0  0  0  0  0  0  0  0  0
    3.0350   -1.1042   -0.8984 H   0  0  0  0  0  0  0  0  0  0  0  0
    1.3673   -1.3453    0.7686 H   0  0  0  0  0  0  0  0  0  0  0  0
    2.1240    0.2069    1.2167 H   0  0  0  0  0  0  0  0  0  0  0  0
  1  2  1  0
  2  3  1  0
  3  4  1  0
  4  5  1  0
  5  6  2  0
  5  7  1  0
  7  8  2  0
  8  9  1  0
  9 10  2  0
 10 11  1  0
 11 12  1  0
 11 13  2  0
 13 14  1  0
 14 15  1  0
 15 16  2  0
 16 17  1  0
 17 18  2  0
  4 19  1  0
 19 20  1  0
 20 21  1  0
 21 22  2  0
 22 23  1  0
 23 24  2  0
 24 25  1  0
 25 26  1  0
 26 27  1  0
 27 28  2  0
 28 29  1  0
 29 30  2  0
 25 31  2  0
 19 32  1  0
 32 33  1  0
 33  2  1  0
 13  7  1  0
 18 14  1  0
 31 21  1  0
 30 26  1  0
  1 34  1  0
  1 35  1  0
  1 36  1  0
  2 37  1  1
  3 38  1  0
  3 39  1  0
  8 40  1  0
  9 41  1  0
 10 42  1  0
 16 43  1  0
 17 44  1  0
 19 45  1  1
 20 46  1  0
 20 47  1  0
 22 48  1  0
 23 49  1  0
 24 50  1  0
 28 51  1  0
 29 52  1  0
 31 53  1  0
 32 54  1  0
 32 55  1  0
M  END
$$$$
