@<TRIPOS>MOLECULE
*****
 55 59 0 0 0
SMALL
GASTEIGER

@<TRIPOS>ATOM
      1 C          -0.5268   -2.4124    1.9384 C.3     1  UNL1       -0.0372
      2 C          -0.5335   -1.0427    2.5854 C.3     1  UNL1        0.0717
      3 C          -1.5441   -0.1523    1.9124 C.3     1  UNL1        0.0414
      4 N          -1.1365   -0.0368    0.5052 N.am    1  UNL1       -0.2895
      5 C          -1.9988   -0.3216   -0.5647 C.2     1  UNL1        0.2492
      6 O          -1.6202   -0.2158   -1.7589 O.2     1  UNL1       -0.2699
      7 C          -3.3890   -0.7584   -0.3474 C.ar    1  UNL1        0.0654
      8 C          -3.6525   -2.1048   -0.2361 C.ar    1  UNL1       -0.0474
      9 C          -4.9560   -2.4992   -0.0332 C.ar    1  UNL1       -0.0595
     10 C          -5.9608   -1.5542    0.0540 C.ar    1  UNL1       -0.0412
     11 C          -5.6996   -0.2015   -0.0573 C.ar    1  UNL1        0.0688
     12 CL         -6.9625    0.9946    0.0517 Cl      1  UNL1       -0.0813
     13 C          -4.3748    0.1934   -0.2632 C.ar    1  UNL1        0.1164
     14 N          -4.1353    1.5812   -0.3735 N.ar    1  UNL1       -0.1481
     15 N          -3.8171    2.2265   -1.4802 N.ar    1  UNL1       -0.1555
     16 C          -3.6624    3.5344   -1.2213 C.ar    1  UNL1        0.0697
     17 C          -3.8982    3.7011    0.1154 C.ar    1  UNL1        0.0697
     18 N          -4.1900    2.4589    0.6089 N.ar    1  UNL1       -0.1555
     19 C           0.2152    0.3868    0.3031 C.3     1  UNL1        0.0537
     20 C           0.7252    0.3636   -1.0908 C.3     1  UNL1       -0.0068
     21 C           2.1605    0.8383   -1.0885 C.ar    1  UNL1       -0.0435
     22 C           2.4428    2.1913   -1.2012 C.ar    1  UNL1       -0.0584
     23 C           3.7358    2.6348   -1.2069 C.ar    1  UNL1       -0.0594
     24 C           4.7795    1.7523   -1.1015 C.ar    1  UNL1       -0.0345
     25 C           4.5471    0.3985   -0.9875 C.ar    1  UNL1        0.0864
     26 N           5.6052   -0.5491   -0.8760 N.ar    1  UNL1       -0.1503
     27 N           6.7063   -0.3258   -0.1797 N.ar    1  UNL1       -0.1556
     28 C           7.5291   -1.3742   -0.2425 C.ar    1  UNL1        0.0697
     29 C           6.8995   -2.3084   -1.0275 C.ar    1  UNL1        0.0697
     30 N           5.7262   -1.7456   -1.3853 N.ar    1  UNL1       -0.1556
     31 C           3.2254   -0.0231   -0.9846 C.ar    1  UNL1       -0.0313
     32 C           1.1810   -0.3633    1.2003 C.3     1  UNL1        0.0669
     33 O           0.7053   -0.4217    2.5110 O.3     1  UNL1       -0.3734
     34 H           0.1565   -3.0952    2.4613 H       1  UNL1        0.0255
     35 H          -0.3830   -2.3889    0.8580 H       1  UNL1        0.0255
     36 H          -1.5653   -2.8243    2.1038 H       1  UNL1        0.0255
     37 H          -0.7523   -1.2008    3.6574 H       1  UNL1        0.0609
     38 H          -2.5769   -0.5390    1.9933 H       1  UNL1        0.0490
     39 H          -1.4741    0.8478    2.3792 H       1  UNL1        0.0490
     40 H          -2.8240   -2.7953   -0.3129 H       1  UNL1        0.0626
     41 H          -5.1644   -3.5632    0.0547 H       1  UNL1        0.0618
     42 H          -6.9934   -1.8619    0.2144 H       1  UNL1        0.0633
     43 H          -3.4044    4.2903   -1.9325 H       1  UNL1        0.0864
     44 H          -3.8755    4.6004    0.7199 H       1  UNL1        0.0864
     45 H           0.2386    1.4687    0.6602 H       1  UNL1        0.0526
     46 H           0.6557   -0.5979   -1.6024 H       1  UNL1        0.0332
     47 H           0.1849    1.1586   -1.6753 H       1  UNL1        0.0332
     48 H           1.5893    2.8727   -1.2838 H       1  UNL1        0.0620
     49 H           3.9553    3.6885   -1.2947 H       1  UNL1        0.0618
     50 H           5.8080    2.0848   -1.1041 H       1  UNL1        0.0639
     51 H           8.4949   -1.4608    0.2328 H       1  UNL1        0.0864
     52 H           7.2777   -3.2864   -1.2944 H       1  UNL1        0.0864
     53 H           3.0350   -1.1042   -0.8984 H       1  UNL1        0.0642
     54 H           1.3673   -1.3453    0.7686 H       1  UNL1        0.0578
     55 H           2.1240    0.2069    1.2167 H       1  UNL1        0.0578
@<TRIPOS>BOND
     1     1     2    1
     2     2     3    1
     3     3     4    1
     4     4     5   am
     5     5     6    2
     6     5     7    1
     7     7     8   ar
     8     8     9   ar
     9     9    10   ar
    10    10    11   ar
    11    11    12    1
    12    11    13   ar
    13    13    14    1
    14    14    15   ar
    15    15    16   ar
    16    16    17   ar
    17    17    18   ar
    18     4    19    1
    19    19    20    1
    20    20    21    1
    21    21    22   ar
    22    22    23   ar
    23    23    24   ar
    24    24    25   ar
    25    25    26    1
    26    26    27   ar
    27    27    28   ar
    28    28    29   ar
    29    29    30   ar
    30    25    31   ar
    31    19    32    1
    32    32    33    1
    33    33     2    1
    34    13     7   ar
    35    18    14   ar
    36    31    21   ar
    37    30    26   ar
    38     1    34    1
    39     1    35    1
    40     1    36    1
    41     2    37    1
    42     3    38    1
    43     3    39    1
    44     8    40    1
    45     9    41    1
    46    10    42    1
    47    16    43    1
    48    17    44    1
    49    19    45    1
    50    20    46    1
    51    20    47    1
    52    22    48    1
    53    23    49    1
    54    24    50    1
    55    28    51    1
    56    29    52    1
    57    31    53    1
    58    32    54    1
    59    32    55    1
