@<TRIPOS>MOLECULE
*****
 37 38 0 0 0
SMALL
GASTEIGER

@<TRIPOS>ATOM
      1 C          -2.6521   -2.9142   -0.7901 C.2     1  UNL1       -0.0981
      2 C          -2.4414   -1.6063   -0.7761 C.2     1  UNL1       -0.0590
      3 C          -3.0422   -0.6177    0.1637 C.3     1  UNL1       -0.0049
      4 C          -2.0297    0.5054    0.1044 C.3     1  UNL1        0.1137
      5 C          -2.7405    1.8107    0.3163 C.2     1  UNL1        0.2546
      6 O          -2.8157    2.6298   -0.6257 O.2     1  UNL1       -0.2719
      7 N          -3.3080    2.0754    1.5865 N.am    1  UNL1       -0.1961
      8 O          -3.9461    3.2544    1.7663 O.3     1  UNL1       -0.2951
      9 N          -1.5208    0.4299   -1.2132 N.3     1  UNL1       -0.1604
     10 S          -0.0928    1.3083   -1.4978 S.O2    1  UNL1        0.0618
     11 O          -0.2835    2.7859   -1.3100 O.2     1  UNL1       -0.1528
     12 O           0.2587    1.1223   -2.9698 O.2     1  UNL1       -0.1528
     13 C           1.2499    0.7557   -0.5129 C.ar    1  UNL1        0.1057
     14 C           2.1051   -0.2377   -0.9513 C.ar    1  UNL1       -0.0319
     15 C           3.1700   -0.6847   -0.1846 C.ar    1  UNL1       -0.0181
     16 C           3.4181   -0.1528    1.0508 C.ar    1  UNL1        0.1202
     17 O           4.4929   -0.6109    1.8130 O.3     1  UNL1       -0.4951
     18 C           5.3235   -1.6250    1.3051 C.3     1  UNL1        0.0788
     19 C           2.5758    0.8406    1.5075 C.ar    1  UNL1       -0.0181
     20 C           1.5127    1.2845    0.7384 C.ar    1  UNL1       -0.0319
     21 C          -1.5474   -0.8848   -1.7194 C.3     1  UNL1        0.0422
     22 H          -3.3175   -3.3985   -0.0770 H       1  UNL1        0.0535
     23 H          -2.1631   -3.5470   -1.5194 H       1  UNL1        0.0535
     24 H          -3.2018   -1.0114    1.1705 H       1  UNL1        0.0331
     25 H          -3.9728   -0.2436   -0.3139 H       1  UNL1        0.0331
     26 H          -1.2956    0.3418    0.9108 H       1  UNL1        0.0579
     27 H          -3.2220    1.3724    2.3329 H       1  UNL1        0.1822
     28 H          -3.9295    3.8025    0.9598 H       1  UNL1        0.2414
     29 H           1.9279   -0.6724   -1.9248 H       1  UNL1        0.0638
     30 H           3.8304   -1.4684   -0.5510 H       1  UNL1        0.0655
     31 H           5.9162   -1.2506    0.4448 H       1  UNL1        0.0660
     32 H           4.7336   -2.5104    1.0267 H       1  UNL1        0.0660
     33 H           6.0289   -1.9565    2.1138 H       1  UNL1        0.0660
     34 H           2.7855    1.2566    2.4961 H       1  UNL1        0.0655
     35 H           0.8522    2.0672    1.1026 H       1  UNL1        0.0638
     36 H          -2.0869   -0.8707   -2.7109 H       1  UNL1        0.0490
     37 H          -0.5720   -1.3797   -1.8473 H       1  UNL1        0.0490
@<TRIPOS>BOND
     1     1     2    2
     2     2     3    1
     3     3     4    1
     4     4     5    1
     5     5     6    2
     6     5     7   am
     7     7     8    1
     8     4     9    1
     9     9    10    1
    10    10    11    2
    11    10    12    2
    12    10    13    1
    13    13    14   ar
    14    14    15   ar
    15    15    16   ar
    16    16    17    1
    17    17    18    1
    18    16    19   ar
    19    19    20   ar
    20     9    21    1
    21    21     2    1
    22    20    13   ar
    23     1    22    1
    24     1    23    1
    25     3    24    1
    26     3    25    1
    27     4    26    1
    28     7    27    1
    29     8    28    1
    30    14    29    1
    31    15    30    1
    32    18    31    1
    33    18    32    1
    34    18    33    1
    35    19    34    1
    36    20    35    1
    37    21    36    1
    38    21    37    1
