
     RDKit          3D

 37 38  0  0  0  0  0  0  0  0999 V2000
   -2.6521   -2.9142   -0.7901 C   0  0  0  0  0  0  0  0  0  0  0  0
   -2.4414   -1.6063   -0.7761 C   0  0  0  0  0  0  0  0  0  0  0  0
   -3.0422   -0.6177    0.1637 C   0  0  0  0  0  0  0  0  0  0  0  0
   -2.0297    0.5054    0.1044 C   0  0  2  0  0  0  0  0  0  0  0  0
   -2.7405    1.8107    0.3163 C   0  0  0  0  0  0  0  0  0  0  0  0
   -2.8157    2.6298   -0.6257 O   0  0  0  0  0  0  0  0  0  0  0  0
   -3.3080    2.0754    1.5865 N   0  0  0  0  0  0  0  0  0  0  0  0
   -3.9461    3.2544    1.7663 O   0  0  0  0  0  0  0  0  0  0  0  0
   -1.5208    0.4299   -1.2132 N   0  0  0  0  0  0  0  0  0  0  0  0
   -0.0928    1.3083   -1.4978 S   0  0  0  0  0  6  0  0  0  0  0  0
   -0.2835    2.7859   -1.3100 O   0  0  0  0  0  0  0  0  0  0  0  0
    0.2587    1.1223   -2.9698 O   0  0  0  0  0  0  0  0  0  0  0  0
    1.2499    0.7557   -0.5129 C   0  0  0  0  0  0  0  0  0  0  0  0
    2.1051   -0.2377   -0.9513 C   0  0  0  0  0  0  0  0  0  0  0  0
    3.1700   -0.6847   -0.1846 C   0  0  0  0  0  0  0  0  0  0  0  0
    3.4181   -0.1528    1.0508 C   0  0  0  0  0  0  0  0  0  0  0  0
    4.4929   -0.6109    1.8130 O   0  0  0  0  0  0  0  0  0  0  0  0
    5.3235   -1.6250    1.3051 C   0  0  0  0  0  0  0  0  0  0  0  0
    2.5758    0.8406    1.5075 C   0  0  0  0  0  0  0  0  0  0  0  0
    1.5127    1.2845    0.7384 C   0  0  0  0  0  0  0  0  0  0  0  0
   -1.5474   -0.8848   -1.7194 C   0  0  0  0  0  0  0  0  0  0  0  0
   -3.3175   -3.3985   -0.0770 H   0  0  0  0  0  0  0  0  0  0  0  0
   -2.1631   -3.5470   -1.5194 H   0  0  0  0  0  0  0  0  0  0  0  0
   -3.2018   -1.0114    1.1705 H   0  0  0  0  0  0  0  0  0  0  0  0
   -3.9728   -0.2436   -0.3139 H   0  0  0  0  0  0  0  0  0  0  0  0
   -1.2956    0.3418    0.9108 H   0  0  0  0  0  0  0  0  0  0  0  0
   -3.2220    1.3724    2.3329 H   0  0  0  0  0  0  0  0  0  0  0  0
   -3.9295    3.8025    0.9598 H   0  0  0  0  0  0  0  0  0  0  0  0
    1.9279   -0.6724   -1.9248 H   0  0  0  0  0  0  0  0  0  0  0  0
    3.8304   -1.4684   -0.5510 H   0  0  0  0  0  0  0  0  0  0  0  0
    5.9162   -1.2506    0.4448 H   0  0  0  0  0  0  0  0  0  0  0  0
    4.7336   -2.5104    1.0267 H   0  0  0  0  0  0  0  0  0  0  0  0
    6.0289   -1.9565    2.1138 H   0  0  0  0  0  0  0  0  0  0  0  0
    2.7855    1.2566    2.4961 H   0  0  0  0  0  0  0  0  0  0  0  0
    0.8522    2.0672    1.1026 H   0  0  0  0  0  0  0  0  0  0  0  0
   -2.0869   -0.8707   -2.7109 H   0  0  0  0  0  0  0  0  0  0  0  0
   -0.5720   -1.3797   -1.8473 H   0  0  0  0  0  0  0  0  0  0  0  0
  1  2  2  3
  2  3  1  0
  3  4  1  0
  4  5  1  0
  5  6  2  0
  5  7  1  0
  7  8  1  0
  4  9  1  0
  9 10  1  0
 10 11  2  0
 10 12  2  0
 10 13  1  0
 13 14  2  0
 14 15  1  0
 15 16  2  0
 16 17  1  0
 17 18  1  0
 16 19  1  0
 19 20  2  0
  9 21  1  0
 21  2  1  0
 20 13  1  0
  1 22  1  0
  1 23  1  0
  3 24  1  0
  3 25  1  0
  4 26  1  1
  7 27  1  0
  8 28  1  0
 14 29  1  0
 15 30  1  0
 18 31  1  0
 18 32  1  0
 18 33  1  0
 19 34  1  0
 20 35  1  0
 21 36  1  0
 21 37  1  0
M  END
$$$$
