@<TRIPOS>MOLECULE
*****
 53 55 0 0 0
SMALL
GASTEIGER

@<TRIPOS>ATOM
      1 C          -1.3975   -2.8248    1.6350 C.3     1  UNL1       -0.0523
      2 C          -1.1062   -1.4414    1.0262 C.3     1  UNL1       -0.0036
      3 N          -1.7809   -1.2684   -0.2148 N.3     1  UNL1       -0.2983
      4 C          -1.2477   -2.0117   -1.2736 C.3     1  UNL1       -0.0007
      5 C          -0.1471   -1.5705   -2.1229 C.3     1  UNL1       -0.0388
      6 C           1.1277   -1.0832   -1.6044 C.3     1  UNL1       -0.0355
      7 C           1.1807    0.2496   -0.9430 C.3     1  UNL1        0.0230
      8 N           2.5721    0.4499   -0.5217 N.am    1  UNL1       -0.2341
      9 C           3.2098    0.1134    0.6946 C.2     1  UNL1        0.2538
     10 O           2.6251   -0.4445    1.6534 O.2     1  UNL1       -0.2695
     11 C           4.6227    0.5039    0.6702 C.ar    1  UNL1        0.0494
     12 C           5.6563    0.4072    1.5669 C.ar    1  UNL1       -0.0489
     13 C           6.9048    0.8706    1.2609 C.ar    1  UNL1       -0.0610
     14 C           7.1026    1.4413    0.0208 C.ar    1  UNL1       -0.0610
     15 C           6.0758    1.5457   -0.8901 C.ar    1  UNL1       -0.0489
     16 C           4.8252    1.0762   -0.5704 C.ar    1  UNL1        0.0494
     17 C           3.5625    1.0557   -1.3353 C.2     1  UNL1        0.2538
     18 O           3.4214    1.5029   -2.4967 O.2     1  UNL1       -0.2695
     19 C          -3.2242   -1.2528   -0.1163 C.3     1  UNL1        0.0275
     20 C          -3.7402   -0.1718    0.7354 C.ar    1  UNL1        0.0082
     21 C          -4.1971   -0.4591    1.9950 C.ar    1  UNL1       -0.0539
     22 C          -4.6758    0.5726    2.7686 C.ar    1  UNL1       -0.0612
     23 C          -4.6969    1.8800    2.2854 C.ar    1  UNL1       -0.0583
     24 C          -4.2264    2.1198    1.0109 C.ar    1  UNL1       -0.0196
     25 C          -3.7376    1.1179    0.2003 C.ar    1  UNL1        0.1245
     26 O          -3.2575    1.3515   -1.0946 O.3     1  UNL1       -0.4948
     27 C          -3.2981    2.7020   -1.5476 C.3     1  UNL1        0.0788
     28 H          -2.4621   -3.0079    1.7712 H       1  UNL1        0.0242
     29 H          -0.9410   -2.7806    2.6672 H       1  UNL1        0.0242
     30 H          -0.9077   -3.5863    1.0277 H       1  UNL1        0.0242
     31 H          -0.0070   -1.4970    0.8480 H       1  UNL1        0.0424
     32 H          -1.2973   -0.6372    1.7285 H       1  UNL1        0.0424
     33 H          -0.9387   -3.0734   -0.9089 H       1  UNL1        0.0427
     34 H          -2.1268   -2.3396   -1.9679 H       1  UNL1        0.0427
     35 H           0.1261   -2.4868   -2.7844 H       1  UNL1        0.0278
     36 H          -0.5104   -0.8473   -2.9420 H       1  UNL1        0.0278
     37 H           1.8715   -1.0117   -2.4702 H       1  UNL1        0.0281
     38 H           1.6304   -1.8339   -0.9162 H       1  UNL1        0.0281
     39 H           0.9794    1.0556   -1.7171 H       1  UNL1        0.0470
     40 H           0.5548    0.4613   -0.1053 H       1  UNL1        0.0470
     41 H           5.4758   -0.0415    2.5234 H       1  UNL1        0.0625
     42 H           7.7495    0.8144    1.9376 H       1  UNL1        0.0618
     43 H           8.0744    1.8273   -0.2796 H       1  UNL1        0.0618
     44 H           6.2022    1.9890   -1.8700 H       1  UNL1        0.0625
     45 H          -3.6076   -1.1538   -1.1709 H       1  UNL1        0.0477
     46 H          -3.5506   -2.2619    0.2206 H       1  UNL1        0.0477
     47 H          -4.2071   -1.4499    2.4256 H       1  UNL1        0.0622
     48 H          -5.0513    0.3959    3.7759 H       1  UNL1        0.0618
     49 H          -5.0676    2.7109    2.8695 H       1  UNL1        0.0619
     50 H          -4.2344    3.1283    0.6218 H       1  UNL1        0.0654
     51 H          -4.3213    3.0964   -1.6206 H       1  UNL1        0.0660
     52 H          -2.8207    2.7340   -2.5497 H       1  UNL1        0.0660
     53 H          -2.7662    3.3631   -0.8207 H       1  UNL1        0.0660
@<TRIPOS>BOND
     1     1     2    1
     2     2     3    1
     3     3     4    1
     4     4     5    1
     5     5     6    1
     6     6     7    1
     7     7     8    1
     8     8     9   am
     9     9    10    2
    10     9    11    1
    11    11    12   ar
    12    12    13   ar
    13    13    14   ar
    14    14    15   ar
    15    15    16   ar
    16    16    17    1
    17    17    18    2
    18     3    19    1
    19    19    20    1
    20    20    21   ar
    21    21    22   ar
    22    22    23   ar
    23    23    24   ar
    24    24    25   ar
    25    25    26    1
    26    26    27    1
    27    17     8   am
    28    25    20   ar
    29    16    11   ar
    30     1    28    1
    31     1    29    1
    32     1    30    1
    33     2    31    1
    34     2    32    1
    35     4    33    1
    36     4    34    1
    37     5    35    1
    38     5    36    1
    39     6    37    1
    40     6    38    1
    41     7    39    1
    42     7    40    1
    43    12    41    1
    44    13    42    1
    45    14    43    1
    46    15    44    1
    47    19    45    1
    48    19    46    1
    49    21    47    1
    50    22    48    1
    51    23    49    1
    52    24    50    1
    53    27    51    1
    54    27    52    1
    55    27    53    1
