@<TRIPOS>MOLECULE
*****
 49 51 0 0 0
SMALL
GASTEIGER

@<TRIPOS>ATOM
      1 O           1.7627   -1.1086   -2.6174 O.3     1  UNL1       -0.4783
      2 C           2.3335    0.1354   -2.4067 C.2     1  UNL1        0.3427
      3 O           3.3875    0.3420   -3.0620 O.2     1  UNL1       -0.2473
      4 C           1.7482    1.1490   -1.4799 C.3     1  UNL1        0.2006
      5 N           0.5814    0.7664   -0.7819 N.pl3   1  UNL1       -0.1016
      6 C           0.5161   -0.2742   -0.0468 C.cat   1  UNL1        0.3871
      7 N          -0.6626   -0.6792    0.6653 N.pl3   1  UNL1       -0.2647
      8 C          -1.7551    0.2721    0.8193 C.3     1  UNL1        0.1262
      9 C          -2.1949    0.6275   -0.5403 C.ar    1  UNL1       -0.0065
     10 C          -2.4666    1.9158   -0.9935 C.ar    1  UNL1       -0.0550
     11 C          -2.8664    2.0894   -2.2830 C.ar    1  UNL1       -0.0614
     12 C          -3.0103    1.0260   -3.1540 C.ar    1  UNL1       -0.0617
     13 C          -2.7498   -0.2632   -2.7390 C.ar    1  UNL1       -0.0614
     14 C          -2.3444   -0.4355   -1.4303 C.ar    1  UNL1       -0.0550
     15 C          -2.8137   -0.2609    1.6878 C.ar    1  UNL1       -0.0065
     16 C          -4.1269   -0.1039    1.2748 C.ar    1  UNL1       -0.0550
     17 C          -5.1492   -0.5950    2.0701 C.ar    1  UNL1       -0.0614
     18 C          -4.8045   -1.2246    3.2497 C.ar    1  UNL1       -0.0617
     19 C          -3.4868   -1.3763    3.6533 C.ar    1  UNL1       -0.0614
     20 C          -2.4526   -0.8822    2.8538 C.ar    1  UNL1       -0.0550
     21 N           1.7031   -1.0391    0.0499 N.pl3   1  UNL1       -0.2435
     22 C           2.9687   -0.4657    0.3401 C.ar    1  UNL1        0.1000
     23 C           3.3632    0.7011    0.9544 C.ar    1  UNL1       -0.0220
     24 C           4.6597    1.0794    1.1748 C.ar    1  UNL1       -0.0411
     25 C           5.6859    0.2822    0.7793 C.ar    1  UNL1        0.0520
     26 C           5.4174   -0.9141    0.1526 C.ar    1  UNL1       -0.0411
     27 C           4.0990   -1.2289   -0.0356 C.ar    1  UNL1       -0.0220
     28 C           7.0179    0.7166    1.0296 C.1     1  UNL1        0.0992
     29 N           8.0978    1.0846    1.2243 N.1     1  UNL1       -0.1909
     30 H           1.6101   -1.4790   -3.5693 H       1  UNL1        0.2952
     31 H           1.2174    1.7784   -2.3106 H       1  UNL1        0.0812
     32 H           2.3907    1.9440   -1.1517 H       1  UNL1        0.0812
     33 H          -0.7101   -1.6513    1.0522 H       1  UNL1        0.2588
     34 H          -1.3622    1.2023    1.3091 H       1  UNL1        0.0795
     35 H          -2.3306    2.6827   -0.2563 H       1  UNL1        0.0621
     36 H          -3.0758    3.1079   -2.6230 H       1  UNL1        0.0618
     37 H          -3.3305    1.1554   -4.1900 H       1  UNL1        0.0618
     38 H          -2.8658   -1.0868   -3.4289 H       1  UNL1        0.0618
     39 H          -2.1472   -1.4527   -1.1312 H       1  UNL1        0.0621
     40 H          -4.3460    0.4002    0.3359 H       1  UNL1        0.0621
     41 H          -6.1636   -0.4579    1.7224 H       1  UNL1        0.0618
     42 H          -5.6006   -1.6011    3.8581 H       1  UNL1        0.0618
     43 H          -3.2840   -1.8808    4.5914 H       1  UNL1        0.0618
     44 H          -1.4554   -1.0273    3.2144 H       1  UNL1        0.0621
     45 H           1.6052   -2.1006   -0.0720 H       1  UNL1        0.2648
     46 H           2.4912    1.3042    1.2634 H       1  UNL1        0.0652
     47 H           4.7601    2.0482    1.6802 H       1  UNL1        0.0631
     48 H           6.2055   -1.5493   -0.1630 H       1  UNL1        0.0631
     49 H           3.9331   -2.1931   -0.5397 H       1  UNL1        0.0652
@<TRIPOS>BOND
     1     1     2    1
     2     2     3    2
     3     2     4    1
     4     4     5    1
     5     5     6    2
     6     6     7    1
     7     7     8    1
     8     8     9    1
     9     9    10   ar
    10    10    11   ar
    11    11    12   ar
    12    12    13   ar
    13    13    14   ar
    14     8    15    1
    15    15    16   ar
    16    16    17   ar
    17    17    18   ar
    18    18    19   ar
    19    19    20   ar
    20     6    21    1
    21    21    22    1
    22    22    23   ar
    23    23    24   ar
    24    24    25   ar
    25    25    26   ar
    26    26    27   ar
    27    25    28    1
    28    28    29    3
    29    14     9   ar
    30    20    15   ar
    31    27    22   ar
    32     1    30    1
    33     4    31    1
    34     4    32    1
    35     7    33    1
    36     8    34    1
    37    10    35    1
    38    11    36    1
    39    12    37    1
    40    13    38    1
    41    14    39    1
    42    16    40    1
    43    17    41    1
    44    18    42    1
    45    19    43    1
    46    20    44    1
    47    21    45    1
    48    23    46    1
    49    24    47    1
    50    26    48    1
    51    27    49    1
