
     RDKit          3D

 57 61  0  0  0  0  0  0  0  0999 V2000
   -2.4171   -4.7915    0.4472 C   0  0  0  0  0  0  0  0  0  0  0  0
   -2.0217   -3.3637    0.5323 C   0  0  0  0  0  0  0  0  0  0  0  0
   -1.6517   -2.8494    1.7705 C   0  0  0  0  0  0  0  0  0  0  0  0
   -1.2718   -1.5446    1.9412 C   0  0  0  0  0  0  0  0  0  0  0  0
   -1.2565   -0.7031    0.8296 C   0  0  0  0  0  0  0  0  0  0  0  0
   -0.8988    0.6420    1.0243 N   0  0  0  0  0  0  0  0  0  0  0  0
    0.2363    1.3205    0.5564 C   0  0  0  0  0  0  0  0  0  0  0  0
    1.3896    0.8200    0.0165 C   0  0  0  0  0  0  0  0  0  0  0  0
    1.7665   -0.5824   -0.2093 C   0  0  0  0  0  0  0  0  0  0  0  0
    2.3398   -1.3667    0.7695 C   0  0  0  0  0  0  0  0  0  0  0  0
    2.7223   -2.6718    0.5499 C   0  0  0  0  0  0  0  0  0  0  0  0
    2.5232   -3.2099   -0.6952 C   0  0  0  0  0  0  0  0  0  0  0  0
    2.8903   -4.4949   -0.9417 N   0  0  0  0  0  0  0  0  0  0  0  0
    2.6999   -5.0349   -2.1608 C   0  0  0  0  0  0  0  0  0  0  0  0
    2.1311   -4.2951   -3.1758 C   0  0  0  0  0  0  0  0  0  0  0  0
    1.7763   -3.0158   -2.8951 N   0  0  0  0  0  0  0  0  0  0  0  0
    1.9499   -2.4510   -1.7027 C   0  0  0  0  0  0  0  0  0  0  0  0
    1.5706   -1.1263   -1.4510 C   0  0  0  0  0  0  0  0  0  0  0  0
    2.1889    1.9031   -0.2927 C   0  0  0  0  0  0  0  0  0  0  0  0
    3.5346    1.8034   -0.9016 C   0  0  0  0  0  0  0  0  0  0  0  0
    1.5366    3.0100    0.0507 N   0  0  0  0  0  0  0  0  0  0  0  0
    0.3732    2.6765    0.5572 N   0  0  0  0  0  0  0  0  0  0  0  0
   -0.5742    3.6306    1.0269 C   0  0  0  0  0  0  0  0  0  0  0  0
   -0.9887    3.6401    2.3613 C   0  0  0  0  0  0  0  0  0  0  0  0
   -1.8978    4.5419    2.8479 C   0  0  0  0  0  0  0  0  0  0  0  0
   -2.4469    5.4914    2.0211 C   0  0  0  0  0  0  0  0  0  0  0  0
   -2.0448    5.4899    0.7049 C   0  0  0  0  0  0  0  0  0  0  0  0
   -1.1309    4.5875    0.2043 C   0  0  0  0  0  0  0  0  0  0  0  0
   -0.7379    4.6425   -1.2419 C   0  0  0  0  0  0  0  0  0  0  0  0
   -1.6203   -1.1941   -0.4001 C   0  0  0  0  0  0  0  0  0  0  0  0
   -1.6712   -0.3568   -1.5818 C   0  0  0  0  0  0  0  0  0  0  0  0
   -1.4038    0.8709   -1.5895 O   0  0  0  0  0  0  0  0  0  0  0  0
   -2.0346   -0.8839   -2.8313 O   0  0  0  0  0  0  0  0  0  0  0  0
   -2.0068   -2.5313   -0.5635 C   0  0  0  0  0  0  0  0  0  0  0  0
   -2.7450   -5.1927    1.4210 H   0  0  0  0  0  0  0  0  0  0  0  0
   -1.5356   -5.4064    0.1269 H   0  0  0  0  0  0  0  0  0  0  0  0
   -3.2638   -4.8826   -0.2702 H   0  0  0  0  0  0  0  0  0  0  0  0
   -1.6705   -3.5197    2.6169 H   0  0  0  0  0  0  0  0  0  0  0  0
   -0.9976   -1.2167    2.9335 H   0  0  0  0  0  0  0  0  0  0  0  0
   -1.6002    1.1958    1.6115 H   0  0  0  0  0  0  0  0  0  0  0  0
    2.4807   -0.9028    1.7427 H   0  0  0  0  0  0  0  0  0  0  0  0
    3.1786   -3.2842    1.3420 H   0  0  0  0  0  0  0  0  0  0  0  0
    2.9909   -6.0734   -2.3794 H   0  0  0  0  0  0  0  0  0  0  0  0
    1.9861   -4.7454   -4.1484 H   0  0  0  0  0  0  0  0  0  0  0  0
    1.1286   -0.5726   -2.2682 H   0  0  0  0  0  0  0  0  0  0  0  0
    3.3976    1.3139   -1.8939 H   0  0  0  0  0  0  0  0  0  0  0  0
    4.1633    1.0748   -0.3116 H   0  0  0  0  0  0  0  0  0  0  0  0
    4.0322    2.7890   -0.9773 H   0  0  0  0  0  0  0  0  0  0  0  0
   -0.5736    2.9078    3.0269 H   0  0  0  0  0  0  0  0  0  0  0  0
   -2.2068    4.5341    3.8829 H   0  0  0  0  0  0  0  0  0  0  0  0
   -3.1613    6.1922    2.4276 H   0  0  0  0  0  0  0  0  0  0  0  0
   -2.4708    6.2319    0.0483 H   0  0  0  0  0  0  0  0  0  0  0  0
    0.0000    5.4824   -1.3841 H   0  0  0  0  0  0  0  0  0  0  0  0
   -0.3279    3.6723   -1.5482 H   0  0  0  0  0  0  0  0  0  0  0  0
   -1.6330    4.9512   -1.8244 H   0  0  0  0  0  0  0  0  0  0  0  0
   -2.4356   -0.2481   -3.5360 H   0  0  0  0  0  0  0  0  0  0  0  0
   -2.2895   -2.9041   -1.5361 H   0  0  0  0  0  0  0  0  0  0  0  0
  1  2  1  0
  2  3  2  0
  3  4  1  0
  4  5  2  0
  5  6  1  0
  6  7  1  0
  7  8  2  0
  8  9  1  0
  9 10  2  0
 10 11  1  0
 11 12  2  0
 12 13  1  0
 13 14  2  0
 14 15  1  0
 15 16  2  0
 16 17  1  0
 17 18  2  0
  8 19  1  0
 19 20  1  0
 19 21  2  0
 21 22  1  0
 22 23  1  0
 23 24  2  0
 24 25  1  0
 25 26  2  0
 26 27  1  0
 27 28  2  0
 28 29  1  0
  5 30  1  0
 30 31  1  0
 31 32  2  0
 31 33  1  0
 30 34  2  0
 34  2  1  0
 22  7  1  0
 28 23  1  0
 18  9  1  0
 17 12  1  0
  1 35  1  0
  1 36  1  0
  1 37  1  0
  3 38  1  0
  4 39  1  0
  6 40  1  0
 10 41  1  0
 11 42  1  0
 14 43  1  0
 15 44  1  0
 18 45  1  0
 20 46  1  0
 20 47  1  0
 20 48  1  0
 24 49  1  0
 25 50  1  0
 26 51  1  0
 27 52  1  0
 29 53  1  0
 29 54  1  0
 29 55  1  0
 33 56  1  0
 34 57  1  0
M  END
$$$$
