@<TRIPOS>MOLECULE
*****
 57 61 0 0 0
SMALL
GASTEIGER

@<TRIPOS>ATOM
      1 C          -2.4171   -4.7915    0.4472 C.3     1  UNL1       -0.0397
      2 C          -2.0217   -3.3637    0.5323 C.ar    1  UNL1       -0.0496
      3 C          -1.6517   -2.8494    1.7705 C.ar    1  UNL1       -0.0570
      4 C          -1.2718   -1.5446    1.9412 C.ar    1  UNL1       -0.0395
      5 C          -1.2565   -0.7031    0.8296 C.ar    1  UNL1        0.0465
      6 N          -0.8988    0.6420    1.0243 N.pl3   1  UNL1       -0.2982
      7 C           0.2363    1.3205    0.5564 C.ar    1  UNL1        0.1346
      8 C           1.3896    0.8200    0.0165 C.ar    1  UNL1        0.0449
      9 C           1.7665   -0.5824   -0.2093 C.ar    1  UNL1       -0.0107
     10 C           2.3398   -1.3667    0.7695 C.ar    1  UNL1       -0.0517
     11 C           2.7223   -2.6718    0.5499 C.ar    1  UNL1       -0.0337
     12 C           2.5232   -3.2099   -0.6952 C.ar    1  UNL1        0.0892
     13 N           2.8903   -4.4949   -0.9417 N.ar    1  UNL1       -0.2519
     14 C           2.6999   -5.0349   -2.1608 C.ar    1  UNL1        0.0464
     15 C           2.1311   -4.2951   -3.1758 C.ar    1  UNL1        0.0464
     16 N           1.7763   -3.0158   -2.8951 N.ar    1  UNL1       -0.2519
     17 C           1.9499   -2.4510   -1.7027 C.ar    1  UNL1        0.0897
     18 C           1.5706   -1.1263   -1.4510 C.ar    1  UNL1       -0.0264
     19 C           2.1889    1.9031   -0.2927 C.ar    1  UNL1        0.0699
     20 C           3.5346    1.8034   -0.9016 C.3     1  UNL1       -0.0199
     21 N           1.5366    3.0100    0.0507 N.ar    1  UNL1       -0.1693
     22 N           0.3732    2.6765    0.5572 N.ar    1  UNL1       -0.2173
     23 C          -0.5742    3.6306    1.0269 C.ar    1  UNL1        0.0703
     24 C          -0.9887    3.6401    2.3613 C.ar    1  UNL1       -0.0359
     25 C          -1.8978    4.5419    2.8479 C.ar    1  UNL1       -0.0597
     26 C          -2.4469    5.4914    2.0211 C.ar    1  UNL1       -0.0614
     27 C          -2.0448    5.4899    0.7049 C.ar    1  UNL1       -0.0568
     28 C          -1.1309    4.5875    0.2043 C.ar    1  UNL1       -0.0250
     29 C          -0.7379    4.6425   -1.2419 C.3     1  UNL1       -0.0377
     30 C          -1.6203   -1.1941   -0.4001 C.ar    1  UNL1        0.0802
     31 C          -1.6712   -0.3568   -1.5818 C.2     1  UNL1        0.3386
     32 O          -1.4038    0.8709   -1.5895 O.2     1  UNL1       -0.2451
     33 O          -2.0346   -0.8839   -2.8313 O.3     1  UNL1       -0.4771
     34 C          -2.0068   -2.5313   -0.5635 C.ar    1  UNL1       -0.0430
     35 H          -2.7450   -5.1927    1.4210 H       1  UNL1        0.0278
     36 H          -1.5356   -5.4064    0.1269 H       1  UNL1        0.0278
     37 H          -3.2638   -4.8826   -0.2702 H       1  UNL1        0.0278
     38 H          -1.6705   -3.5197    2.6169 H       1  UNL1        0.0621
     39 H          -0.9976   -1.2167    2.9335 H       1  UNL1        0.0636
     40 H          -1.6002    1.1958    1.6115 H       1  UNL1        0.1536
     41 H           2.4807   -0.9028    1.7427 H       1  UNL1        0.0624
     42 H           3.1786   -3.2842    1.3420 H       1  UNL1        0.0640
     43 H           2.9909   -6.0734   -2.3794 H       1  UNL1        0.0845
     44 H           1.9861   -4.7454   -4.1484 H       1  UNL1        0.0845
     45 H           1.1286   -0.5726   -2.2682 H       1  UNL1        0.0645
     46 H           3.3976    1.3139   -1.8939 H       1  UNL1        0.0293
     47 H           4.1633    1.0748   -0.3116 H       1  UNL1        0.0293
     48 H           4.0322    2.7890   -0.9773 H       1  UNL1        0.0293
     49 H          -0.5736    2.9078    3.0269 H       1  UNL1        0.0639
     50 H          -2.2068    4.5341    3.8829 H       1  UNL1        0.0618
     51 H          -3.1613    6.1922    2.4276 H       1  UNL1        0.0618
     52 H          -2.4708    6.2319    0.0483 H       1  UNL1        0.0621
     53 H           0.0000    5.4824   -1.3841 H       1  UNL1        0.0278
     54 H          -0.3279    3.6723   -1.5482 H       1  UNL1        0.0278
     55 H          -1.6330    4.9512   -1.8244 H       1  UNL1        0.0278
     56 H          -2.4356   -0.2481   -3.5360 H       1  UNL1        0.2954
     57 H          -2.2895   -2.9041   -1.5361 H       1  UNL1        0.0629
@<TRIPOS>BOND
     1     1     2    1
     2     2     3   ar
     3     3     4   ar
     4     4     5   ar
     5     5     6    1
     6     6     7    1
     7     7     8   ar
     8     8     9    1
     9     9    10   ar
    10    10    11   ar
    11    11    12   ar
    12    12    13   ar
    13    13    14   ar
    14    14    15   ar
    15    15    16   ar
    16    16    17   ar
    17    17    18   ar
    18     8    19   ar
    19    19    20    1
    20    19    21   ar
    21    21    22   ar
    22    22    23    1
    23    23    24   ar
    24    24    25   ar
    25    25    26   ar
    26    26    27   ar
    27    27    28   ar
    28    28    29    1
    29     5    30   ar
    30    30    31    1
    31    31    32    2
    32    31    33    1
    33    30    34   ar
    34    34     2   ar
    35    22     7   ar
    36    28    23   ar
    37    18     9   ar
    38    17    12   ar
    39     1    35    1
    40     1    36    1
    41     1    37    1
    42     3    38    1
    43     4    39    1
    44     6    40    1
    45    10    41    1
    46    11    42    1
    47    14    43    1
    48    15    44    1
    49    18    45    1
    50    20    46    1
    51    20    47    1
    52    20    48    1
    53    24    49    1
    54    25    50    1
    55    26    51    1
    56    27    52    1
    57    29    53    1
    58    29    54    1
    59    29    55    1
    60    33    56    1
    61    34    57    1
