@<TRIPOS>MOLECULE
*****
 68 72 0 0 0
SMALL
GASTEIGER

@<TRIPOS>ATOM
      1 C           5.3210   -4.9786   -1.0276 C.3     1  UNL1        0.0788
      2 O           4.6231   -3.7768   -0.8371 O.3     1  UNL1       -0.4944
      3 C           5.2652   -2.5793   -1.1175 C.ar    1  UNL1        0.1316
      4 C           6.5642   -2.5304   -1.5767 C.ar    1  UNL1       -0.0192
      5 C           7.1450   -1.3108   -1.8366 C.ar    1  UNL1       -0.0576
      6 C           6.4178   -0.1438   -1.6341 C.ar    1  UNL1       -0.0500
      7 C           5.1182   -0.2067   -1.1741 C.ar    1  UNL1        0.0367
      8 C           4.5302   -1.4219   -0.9119 C.ar    1  UNL1        0.0748
      9 C           3.1496   -1.4782   -0.4237 C.2     1  UNL1        0.2016
     10 O           2.6394   -2.6069   -0.1928 O.2     1  UNL1       -0.2864
     11 C           2.3584   -0.2719   -0.2006 C.ar    1  UNL1        0.0784
     12 C           1.0418   -0.3563    0.2659 C.ar    1  UNL1        0.1345
     13 O           0.4560   -1.5753    0.5291 O.3     1  UNL1       -0.5057
     14 C           0.3389    0.8114    0.4592 C.ar    1  UNL1        0.0302
     15 C           0.9286    2.0478    0.1965 C.ar    1  UNL1        0.0070
     16 C           2.2015    2.1197   -0.2543 C.ar    1  UNL1        0.1322
     17 O           2.8276    3.3167   -0.5286 O.3     1  UNL1       -0.5057
     18 C           2.9492    0.9457   -0.4639 C.ar    1  UNL1        0.0782
     19 C           4.3117    1.0040   -0.9457 C.2     1  UNL1        0.1982
     20 O           4.8507    2.0992   -1.1853 O.2     1  UNL1       -0.2865
     21 C           0.1135    3.2401    0.4500 C.3     1  UNL1        0.0123
     22 C          -0.3063    3.0982    1.9275 C.3     1  UNL1        0.1325
     23 O           0.9216    2.9866    2.6441 O.3     1  UNL1       -0.3806
     24 C          -1.0109    4.3025    2.3937 C.2     1  UNL1        0.1900
     25 O          -0.4765    4.9946    3.2644 O.2     1  UNL1       -0.2919
     26 C          -2.3285    4.6643    1.8242 C.3     1  UNL1        0.1051
     27 O          -2.7881    3.7829    0.8639 O.3     1  UNL1       -0.3874
     28 C          -1.0827    1.8255    2.1324 C.3     1  UNL1        0.0141
     29 C          -1.0569    0.8963    0.9366 C.3     1  UNL1        0.0934
     30 O          -1.5981   -0.3218    1.1697 O.3     1  UNL1       -0.3432
     31 C          -2.7485   -0.5912    0.4311 C.3     1  UNL1        0.1618
     32 C          -2.6075   -1.8518   -0.3413 C.3     1  UNL1        0.0161
     33 C          -3.9157   -2.4271   -0.8187 C.3     1  UNL1        0.0382
     34 N          -4.3000   -1.9252   -2.1211 N.3     1  UNL1       -0.3249
     35 C          -5.0408   -2.2004    0.1588 C.3     1  UNL1        0.0963
     36 O          -6.2528   -2.4011   -0.5271 O.3     1  UNL1       -0.3877
     37 C          -5.0097   -0.8315    0.7492 C.3     1  UNL1        0.0861
     38 C          -5.3433    0.2662   -0.2185 C.3     1  UNL1       -0.0361
     39 O          -3.7894   -0.6610    1.3833 O.3     1  UNL1       -0.3457
     40 H           5.7733   -5.0556   -2.0313 H       1  UNL1        0.0660
     41 H           4.6397   -5.8564   -0.8610 H       1  UNL1        0.0660
     42 H           6.1625   -5.1002   -0.2918 H       1  UNL1        0.0660
     43 H           7.0893   -3.4573   -1.7190 H       1  UNL1        0.0654
     44 H           8.1644   -1.2323   -2.1987 H       1  UNL1        0.0619
     45 H           6.8603    0.8187   -1.8337 H       1  UNL1        0.0625
     46 H           0.3299   -2.2093   -0.2417 H       1  UNL1        0.2922
     47 H           2.9029    3.5778   -1.5107 H       1  UNL1        0.2922
     48 H          -0.7998    3.2131   -0.1532 H       1  UNL1        0.0347
     49 H           0.6705    4.1889    0.3367 H       1  UNL1        0.0347
     50 H           0.6881    2.6392    3.5508 H       1  UNL1        0.2108
     51 H          -3.1075    4.6906    2.6279 H       1  UNL1        0.0637
     52 H          -2.2977    5.7048    1.4197 H       1  UNL1        0.0637
     53 H          -3.1461    4.2972    0.1104 H       1  UNL1        0.2100
     54 H          -0.6390    1.3076    3.0236 H       1  UNL1        0.0326
     55 H          -2.1426    2.1380    2.3625 H       1  UNL1        0.0326
     56 H          -1.6773    1.3865    0.1373 H       1  UNL1        0.0649
     57 H          -3.0412    0.2225   -0.2432 H       1  UNL1        0.0910
     58 H          -1.9921   -1.6511   -1.2428 H       1  UNL1        0.0330
     59 H          -2.0457   -2.6506    0.2276 H       1  UNL1        0.0330
     60 H          -3.7883   -3.5260   -0.9157 H       1  UNL1        0.0486
     61 H          -3.7267   -2.2920   -2.8915 H       1  UNL1        0.1186
     62 H          -5.3169   -1.9719   -2.2838 H       1  UNL1        0.1186
     63 H          -4.9662   -2.9323    0.9875 H       1  UNL1        0.0635
     64 H          -6.8061   -3.0321   -0.0150 H       1  UNL1        0.2100
     65 H          -5.7867   -0.7978    1.5533 H       1  UNL1        0.0620
     66 H          -5.1193    1.2365    0.2486 H       1  UNL1        0.0255
     67 H          -4.8487    0.1930   -1.1867 H       1  UNL1        0.0255
     68 H          -6.4504    0.1971   -0.4084 H       1  UNL1        0.0255
@<TRIPOS>BOND
     1     1     2    1
     2     2     3    1
     3     3     4   ar
     4     4     5   ar
     5     5     6   ar
     6     6     7   ar
     7     7     8   ar
     8     8     9    1
     9     9    10    2
    10     9    11    1
    11    11    12   ar
    12    12    13    1
    13    12    14   ar
    14    14    15   ar
    15    15    16   ar
    16    16    17    1
    17    16    18   ar
    18    18    19    1
    19    19    20    2
    20    15    21    1
    21    21    22    1
    22    22    23    1
    23    22    24    1
    24    24    25    2
    25    24    26    1
    26    26    27    1
    27    22    28    1
    28    28    29    1
    29    29    30    1
    30    30    31    1
    31    31    32    1
    32    32    33    1
    33    33    34    1
    34    33    35    1
    35    35    36    1
    36    35    37    1
    37    37    38    1
    38    37    39    1
    39     8     3   ar
    40    18    11   ar
    41    39    31    1
    42    19     7    1
    43    29    14    1
    44     1    40    1
    45     1    41    1
    46     1    42    1
    47     4    43    1
    48     5    44    1
    49     6    45    1
    50    13    46    1
    51    17    47    1
    52    21    48    1
    53    21    49    1
    54    23    50    1
    55    26    51    1
    56    26    52    1
    57    27    53    1
    58    28    54    1
    59    28    55    1
    60    29    56    1
    61    31    57    1
    62    32    58    1
    63    32    59    1
    64    33    60    1
    65    34    61    1
    66    34    62    1
    67    35    63    1
    68    36    64    1
    69    37    65    1
    70    38    66    1
    71    38    67    1
    72    38    68    1
