@<TRIPOS>MOLECULE
*****
 53 57 0 0 0
SMALL
GASTEIGER

@<TRIPOS>ATOM
      1 C          -3.4330   -3.1948    2.0601 C.3     1  UNL1       -0.0350
      2 C          -2.3509   -2.2430    1.6993 C.ar    1  UNL1        0.0077
      3 C          -1.5378   -1.6676    2.6745 C.ar    1  UNL1        0.0361
      4 N          -0.5520   -0.8042    2.3813 N.ar    1  UNL1       -0.2353
      5 C          -0.3412   -0.4804    1.0799 C.ar    1  UNL1        0.1619
      6 C           0.7245    0.4586    0.7040 C.ar    1  UNL1        0.0226
      7 C           0.9033    0.7542   -0.6293 C.ar    1  UNL1       -0.0508
      8 C           1.8768    1.6207   -1.0690 C.ar    1  UNL1       -0.0576
      9 C           2.7031    2.2122   -0.1203 C.ar    1  UNL1       -0.0199
     10 C           2.5378    1.9276    1.2160 C.ar    1  UNL1        0.1219
     11 O           3.3521    2.5085    2.1650 O.3     1  UNL1       -0.4828
     12 C           4.3819    3.3839    1.8749 C.3     1  UNL1        0.1651
     13 C           5.4993    2.8816    1.0862 C.2     1  UNL1        0.2509
     14 O           6.4302    3.7197    0.8252 O.2     1  UNL1       -0.2721
     15 N           5.6812    1.5896    0.5801 N.am    1  UNL1       -0.3097
     16 C           6.8580    1.2238   -0.2053 C.3     1  UNL1        0.0233
     17 C           6.6174    0.1804   -1.2591 C.3     1  UNL1       -0.0328
     18 C           7.4127   -0.1619   -0.0426 C.3     1  UNL1       -0.0328
     19 C           1.5414    1.0463    1.6154 C.ar    1  UNL1       -0.0092
     20 N          -1.1192   -1.0319    0.1553 N.ar    1  UNL1       -0.2122
     21 C          -2.1195   -1.9002    0.3831 C.ar    1  UNL1        0.1297
     22 N          -2.9266   -2.4664   -0.6413 N.pl3   1  UNL1       -0.2991
     23 C          -4.1343   -1.8707   -1.0811 C.ar    1  UNL1        0.0331
     24 C          -4.9023   -2.4244   -2.0810 C.ar    1  UNL1       -0.0385
     25 C          -6.0781   -1.8422   -2.5059 C.ar    1  UNL1       -0.0345
     26 C          -6.5232   -0.6732   -1.9331 C.ar    1  UNL1        0.0658
     27 N          -7.6064    0.0894   -2.1495 N.ar    1  UNL1       -0.2770
     28 N          -7.5284    1.0991   -1.3104 N.ar    1  UNL1       -0.1812
     29 C          -6.4326    1.0252   -0.5520 C.ar    1  UNL1        0.0569
     30 C          -5.7597   -0.1157   -0.9336 C.ar    1  UNL1        0.0212
     31 C          -4.5755   -0.6895   -0.4960 C.ar    1  UNL1       -0.0298
     32 H          -3.6810   -3.7691    1.1390 H       1  UNL1        0.0279
     33 H          -4.3480   -2.6081    2.3033 H       1  UNL1        0.0279
     34 H          -3.1013   -3.8285    2.8952 H       1  UNL1        0.0279
     35 H          -1.7617   -1.9719    3.7034 H       1  UNL1        0.0834
     36 H           0.2594    0.2943   -1.3769 H       1  UNL1        0.0625
     37 H           1.9666    1.8105   -2.1179 H       1  UNL1        0.0619
     38 H           3.4511    2.8833   -0.4993 H       1  UNL1        0.0654
     39 H           4.7358    3.7995    2.8594 H       1  UNL1        0.0795
     40 H           3.9292    4.2332    1.2762 H       1  UNL1        0.0795
     41 H           4.9931    0.8587    0.7618 H       1  UNL1        0.1491
     42 H           7.5942    2.0295   -0.3780 H       1  UNL1        0.0498
     43 H           5.6150   -0.2766   -1.3455 H       1  UNL1        0.0284
     44 H           7.1249    0.3292   -2.2293 H       1  UNL1        0.0284
     45 H           6.9550   -0.8354    0.6972 H       1  UNL1        0.0284
     46 H           8.5097   -0.2763   -0.2080 H       1  UNL1        0.0284
     47 H           1.4491    0.8547    2.6616 H       1  UNL1        0.0661
     48 H          -2.6424   -3.3651   -1.1125 H       1  UNL1        0.1536
     49 H          -4.5559   -3.3446   -2.5348 H       1  UNL1        0.0637
     50 H          -6.6858   -2.2760   -3.2938 H       1  UNL1        0.0639
     51 H          -8.3399   -0.1302   -2.8653 H       1  UNL1        0.1889
     52 H          -6.0877    1.6985    0.2256 H       1  UNL1        0.0854
     53 H          -3.9781   -0.2645    0.2775 H       1  UNL1        0.0643
@<TRIPOS>BOND
     1     1     2    1
     2     2     3   ar
     3     3     4   ar
     4     4     5   ar
     5     5     6    1
     6     6     7   ar
     7     7     8   ar
     8     8     9   ar
     9     9    10   ar
    10    10    11    1
    11    11    12    1
    12    12    13    1
    13    13    14    2
    14    13    15   am
    15    15    16    1
    16    16    17    1
    17    17    18    1
    18    10    19   ar
    19     5    20   ar
    20    20    21   ar
    21    21    22    1
    22    22    23    1
    23    23    24   ar
    24    24    25   ar
    25    25    26   ar
    26    26    27   ar
    27    27    28   ar
    28    28    29   ar
    29    29    30   ar
    30    30    31   ar
    31    21     2   ar
    32    31    23   ar
    33    19     6   ar
    34    30    26   ar
    35    18    16    1
    36     1    32    1
    37     1    33    1
    38     1    34    1
    39     3    35    1
    40     7    36    1
    41     8    37    1
    42     9    38    1
    43    12    39    1
    44    12    40    1
    45    15    41    1
    46    16    42    1
    47    17    43    1
    48    17    44    1
    49    18    45    1
    50    18    46    1
    51    19    47    1
    52    22    48    1
    53    24    49    1
    54    25    50    1
    55    27    51    1
    56    29    52    1
    57    31    53    1
