@<TRIPOS>MOLECULE
*****
 69 72 0 0 0
SMALL
GASTEIGER

@<TRIPOS>ATOM
      1 C           7.2746   -2.6966    1.8328 C.3     1  UNL1       -0.0457
      2 C           7.5263   -1.6045    0.8117 C.3     1  UNL1        0.0316
      3 C           6.2936   -1.4642   -0.0306 C.3     1  UNL1       -0.0457
      4 C           8.6091   -2.1033   -0.1745 C.3     1  UNL1       -0.0457
      5 N           7.8887   -0.3836    1.3878 N.3     1  UNL1       -0.1846
      6 S           6.9667    0.3596    2.5581 S.O2    1  UNL1        0.0589
      7 O           7.5842    1.6435    3.0787 O.2     1  UNL1       -0.1530
      8 O           6.7217   -0.5924    3.7100 O.2     1  UNL1       -0.1530
      9 C           5.3781    0.7729    1.9580 C.ar    1  UNL1        0.1053
     10 C           5.1825    1.9640    1.2428 C.ar    1  UNL1       -0.0348
     11 C           3.9176    2.3106    0.7756 C.ar    1  UNL1       -0.0517
     12 C           2.8231    1.5239    0.9846 C.ar    1  UNL1       -0.0112
     13 C           1.4839    1.8869    0.4736 C.ar    1  UNL1        0.0206
     14 C           1.1530    2.9793   -0.2879 C.ar    1  UNL1       -0.0359
     15 C          -0.1149    3.1258   -0.6624 C.ar    1  UNL1        0.0300
     16 C          -0.6705    4.1730   -1.4495 C.ar    1  UNL1        0.1245
     17 N           0.1276    5.2354   -1.9403 N.pl3   1  UNL1       -0.3426
     18 N          -1.9607    4.1647   -1.7349 N.ar    1  UNL1       -0.2393
     19 C          -2.8717    3.2527   -1.3636 C.ar    1  UNL1        0.0429
     20 C          -2.3801    2.1921   -0.5819 C.ar    1  UNL1        0.0691
     21 C          -3.2627    1.1267   -0.1042 C.2     1  UNL1        0.2466
     22 O          -4.3901    1.4199    0.2922 O.2     1  UNL1       -0.2701
     23 N          -2.7866   -0.1970   -0.1138 N.am    1  UNL1       -0.3112
     24 C          -3.4918   -1.3584    0.2821 C.3     1  UNL1        0.0131
     25 C          -4.5968   -1.7804   -0.5868 C.3     1  UNL1       -0.0245
     26 C          -5.7069   -0.8533   -0.8570 C.3     1  UNL1        0.0005
     27 N          -6.7111   -1.5763   -1.6958 N.3     1  UNL1       -0.2979
     28 C          -7.7646   -0.6099   -1.9176 C.3     1  UNL1        0.0224
     29 C          -8.7531   -0.5834   -0.7645 C.3     1  UNL1        0.0604
     30 O          -9.4425   -1.7856   -0.6401 O.3     1  UNL1       -0.3772
     31 C          -8.7195   -2.8296   -1.2079 C.3     1  UNL1        0.0604
     32 C          -7.2643   -2.6525   -0.8787 C.3     1  UNL1        0.0224
     33 C          -1.0414    2.1897   -0.2790 C.ar    1  UNL1        0.0367
     34 S           0.0073    1.0471    0.6741 S.2     1  UNL1       -0.0873
     35 C           2.9996    0.3451    1.6890 C.ar    1  UNL1       -0.0517
     36 C           4.2559   -0.0009    2.1543 C.ar    1  UNL1       -0.0348
     37 H           7.4918   -3.6667    1.3102 H       1  UNL1        0.0248
     38 H           7.9402   -2.6472    2.6980 H       1  UNL1        0.0248
     39 H           6.1998   -2.6979    2.0547 H       1  UNL1        0.0248
     40 H           5.4536   -1.9760    0.5113 H       1  UNL1        0.0248
     41 H           6.0276   -0.3984   -0.0909 H       1  UNL1        0.0248
     42 H           6.4084   -1.9146   -1.0522 H       1  UNL1        0.0248
     43 H           8.4734   -1.5024   -1.0942 H       1  UNL1        0.0248
     44 H           8.3674   -3.1686   -0.3743 H       1  UNL1        0.0248
     45 H           9.6138   -1.9644    0.2173 H       1  UNL1        0.0248
     46 H           8.8520   -0.0760    1.2579 H       1  UNL1        0.1486
     47 H           6.0418    2.5792    1.0792 H       1  UNL1        0.0637
     48 H           3.7935    3.2395    0.2217 H       1  UNL1        0.0624
     49 H           1.9854    3.6935   -0.5513 H       1  UNL1        0.0636
     50 H           1.0262    5.0404   -2.4289 H       1  UNL1        0.1437
     51 H          -0.1701    6.2415   -1.8212 H       1  UNL1        0.1437
     52 H          -3.9061    3.2661   -1.6043 H       1  UNL1        0.0838
     53 H          -1.7741   -0.3570   -0.4653 H       1  UNL1        0.1490
     54 H          -3.8452   -1.1841    1.3547 H       1  UNL1        0.0462
     55 H          -2.7414   -2.1885    0.4296 H       1  UNL1        0.0462
     56 H          -4.9884   -2.7574   -0.1464 H       1  UNL1        0.0293
     57 H          -4.1472   -2.0401   -1.6048 H       1  UNL1        0.0293
     58 H          -6.2190   -0.5299    0.0457 H       1  UNL1        0.0427
     59 H          -5.3574   -0.0193   -1.5169 H       1  UNL1        0.0427
     60 H          -8.3349   -0.8065   -2.8387 H       1  UNL1        0.0449
     61 H          -7.3314    0.4047   -1.9985 H       1  UNL1        0.0449
     62 H          -8.2699   -0.2708    0.1862 H       1  UNL1        0.0572
     63 H          -9.4799    0.2283   -1.0030 H       1  UNL1        0.0572
     64 H          -8.8869   -2.7888   -2.3007 H       1  UNL1        0.0572
     65 H          -9.1337   -3.7867   -0.8399 H       1  UNL1        0.0572
     66 H          -6.7348   -3.5932   -1.0171 H       1  UNL1        0.0449
     67 H          -7.1671   -2.3319    0.1776 H       1  UNL1        0.0449
     68 H           2.1340   -0.2829    1.8557 H       1  UNL1        0.0624
     69 H           4.4140   -0.9318    2.7146 H       1  UNL1        0.0637
@<TRIPOS>BOND
     1     1     2    1
     2     2     3    1
     3     2     4    1
     4     2     5    1
     5     5     6    1
     6     6     7    2
     7     6     8    2
     8     6     9    1
     9     9    10   ar
    10    10    11   ar
    11    11    12   ar
    12    12    13    1
    13    13    14   ar
    14    14    15   ar
    15    15    16   ar
    16    16    17    1
    17    16    18   ar
    18    18    19   ar
    19    19    20   ar
    20    20    21    1
    21    21    22    2
    22    21    23   am
    23    23    24    1
    24    24    25    1
    25    25    26    1
    26    26    27    1
    27    27    28    1
    28    28    29    1
    29    29    30    1
    30    30    31    1
    31    31    32    1
    32    20    33   ar
    33    33    34   ar
    34    12    35   ar
    35    35    36   ar
    36    36     9   ar
    37    34    13   ar
    38    33    15   ar
    39    32    27    1
    40     1    37    1
    41     1    38    1
    42     1    39    1
    43     3    40    1
    44     3    41    1
    45     3    42    1
    46     4    43    1
    47     4    44    1
    48     4    45    1
    49     5    46    1
    50    10    47    1
    51    11    48    1
    52    14    49    1
    53    17    50    1
    54    17    51    1
    55    19    52    1
    56    23    53    1
    57    24    54    1
    58    24    55    1
    59    25    56    1
    60    25    57    1
    61    26    58    1
    62    26    59    1
    63    28    60    1
    64    28    61    1
    65    29    62    1
    66    29    63    1
    67    31    64    1
    68    31    65    1
    69    32    66    1
    70    32    67    1
    71    35    68    1
    72    36    69    1
