@<TRIPOS>MOLECULE
*****
 69 74 0 0 0
SMALL
GASTEIGER

@<TRIPOS>ATOM
      1 C          -8.5951    2.5570    0.6217 C.3     1  UNL1        0.0032
      2 N          -7.3151    2.0634    0.0840 N.am    1  UNL1       -0.3024
      3 C          -7.2047    1.7949   -1.3185 C.3     1  UNL1        0.0032
      4 C          -6.2032    1.8733    0.9440 C.2     1  UNL1        0.2627
      5 O          -6.3132    2.1484    2.1518 O.2     1  UNL1       -0.2684
      6 C          -4.9698    1.3681    0.4055 C.ar    1  UNL1        0.1070
      7 C          -4.1890    2.1177   -0.4425 C.ar    1  UNL1       -0.0209
      8 C          -3.1183    1.3417   -0.7398 C.ar    1  UNL1        0.0378
      9 C          -2.0164    1.5984   -1.5523 C.ar    1  UNL1        0.0419
     10 N          -1.0773    0.6661   -1.6929 N.ar    1  UNL1       -0.2219
     11 C          -1.2083   -0.5358   -1.0353 C.ar    1  UNL1        0.2224
     12 N          -0.1868   -1.5186   -1.2469 N.pl3   1  UNL1       -0.2684
     13 C           1.1518   -1.1467   -0.9538 C.ar    1  UNL1        0.1251
     14 C           2.2194   -1.9891   -1.2333 C.ar    1  UNL1       -0.0197
     15 C           3.5017   -1.6082   -0.9401 C.ar    1  UNL1       -0.0354
     16 C           3.7618   -0.3751   -0.3574 C.ar    1  UNL1        0.0578
     17 N           5.0986    0.0180   -0.1031 N.am    1  UNL1       -0.2320
     18 C           5.8978   -0.4012    1.0202 C.3     1  UNL1        0.0642
     19 C           7.2864    0.0402    0.5681 C.3     1  UNL1        0.1435
     20 C           7.9942   -1.0236   -0.2282 C.3     1  UNL1       -0.0089
     21 C           9.4292   -0.6289   -0.3948 C.3     1  UNL1       -0.0367
     22 C           9.7103    0.7692    0.0499 C.3     1  UNL1       -0.0038
     23 N           9.2876    1.0888    1.3738 N.3     1  UNL1       -0.3122
     24 C           8.0857    0.4040    1.7769 C.3     1  UNL1        0.0376
     25 O           7.0519    1.2055   -0.2171 O.3     1  UNL1       -0.4406
     26 C           5.8971    0.8833   -0.9396 C.2     1  UNL1        0.4080
     27 O           5.6298    1.2767   -2.0783 O.2     1  UNL1       -0.2259
     28 C           2.6910    0.4444   -0.0857 C.ar    1  UNL1        0.0512
     29 N           1.4646    0.0269   -0.3912 N.ar    1  UNL1       -0.2383
     30 N          -2.2695   -0.7459   -0.2699 N.ar    1  UNL1       -0.1962
     31 C          -3.2581    0.1404   -0.0766 C.ar    1  UNL1        0.1466
     32 N          -4.4263    0.1554    0.6469 N.ar    1  UNL1       -0.3180
     33 C          -4.8828   -0.9142    1.4510 C.3     1  UNL1        0.0366
     34 C          -4.5165   -2.2445    0.8191 C.3     1  UNL1       -0.0320
     35 C          -5.4347   -2.1687   -0.4175 C.3     1  UNL1       -0.0511
     36 C          -6.7518   -1.6348    0.1583 C.3     1  UNL1       -0.0511
     37 C          -6.3761   -1.1240    1.5185 C.3     1  UNL1       -0.0320
     38 H          -8.5711    2.5750    1.7301 H       1  UNL1        0.0428
     39 H          -9.3770    1.8411    0.3033 H       1  UNL1        0.0428
     40 H          -8.8412    3.5501    0.2039 H       1  UNL1        0.0428
     41 H          -7.0541    2.7104   -1.9093 H       1  UNL1        0.0428
     42 H          -8.1711    1.3577   -1.6495 H       1  UNL1        0.0428
     43 H          -6.3832    1.0895   -1.5610 H       1  UNL1        0.0428
     44 H          -4.3726    3.1094   -0.8022 H       1  UNL1        0.0647
     45 H          -1.9600    2.5722   -2.0542 H       1  UNL1        0.0838
     46 H          -0.3830   -2.4679   -1.5978 H       1  UNL1        0.1564
     47 H           1.9733   -2.9464   -1.6905 H       1  UNL1        0.0652
     48 H           4.3197   -2.2827   -1.1725 H       1  UNL1        0.0638
     49 H           5.5982    0.0896    1.9464 H       1  UNL1        0.0509
     50 H           5.9694   -1.5148    1.1147 H       1  UNL1        0.0509
     51 H           7.9351   -1.9724    0.3544 H       1  UNL1        0.0305
     52 H           7.4795   -1.2240   -1.1990 H       1  UNL1        0.0305
     53 H          10.0897   -1.3594    0.1192 H       1  UNL1        0.0279
     54 H           9.6285   -0.6392   -1.5114 H       1  UNL1        0.0279
     55 H           9.2970    1.4718   -0.7297 H       1  UNL1        0.0424
     56 H          10.8341    0.8860    0.0453 H       1  UNL1        0.0424
     57 H           9.1305    2.1076    1.4574 H       1  UNL1        0.1221
     58 H           8.3053   -0.5266    2.3470 H       1  UNL1        0.0464
     59 H           7.4428    1.0667    2.4271 H       1  UNL1        0.0464
     60 H           2.8589    1.3953    0.3662 H       1  UNL1        0.0849
     61 H          -4.4615   -0.9281    2.4758 H       1  UNL1        0.0528
     62 H          -4.8851   -3.0916    1.4652 H       1  UNL1        0.0285
     63 H          -3.5186   -2.3843    0.4899 H       1  UNL1        0.0285
     64 H          -5.5365   -3.1378   -0.8981 H       1  UNL1        0.0266
     65 H          -5.0575   -1.3941   -1.0854 H       1  UNL1        0.0266
     66 H          -7.2369   -0.9335   -0.5055 H       1  UNL1        0.0266
     67 H          -7.4357   -2.5286    0.2162 H       1  UNL1        0.0266
     68 H          -6.4796   -2.0372    2.1925 H       1  UNL1        0.0285
     69 H          -6.9831   -0.3760    1.9611 H       1  UNL1        0.0285
@<TRIPOS>BOND
     1     1     2    1
     2     2     3    1
     3     2     4   am
     4     4     5    2
     5     4     6    1
     6     6     7   ar
     7     7     8   ar
     8     8     9   ar
     9     9    10   ar
    10    10    11   ar
    11    11    12    1
    12    12    13    1
    13    13    14   ar
    14    14    15   ar
    15    15    16   ar
    16    16    17    1
    17    17    18    1
    18    18    19    1
    19    19    20    1
    20    20    21    1
    21    21    22    1
    22    22    23    1
    23    23    24    1
    24    19    25    1
    25    25    26    1
    26    26    27    2
    27    16    28   ar
    28    28    29   ar
    29    11    30   ar
    30    30    31   ar
    31    31    32   ar
    32    32    33    1
    33    33    34    1
    34    34    35    1
    35    35    36    1
    36    36    37    1
    37    32     6   ar
    38    37    33    1
    39    31     8   ar
    40    29    13   ar
    41    26    17   am
    42    24    19    1
    43     1    38    1
    44     1    39    1
    45     1    40    1
    46     3    41    1
    47     3    42    1
    48     3    43    1
    49     7    44    1
    50     9    45    1
    51    12    46    1
    52    14    47    1
    53    15    48    1
    54    18    49    1
    55    18    50    1
    56    20    51    1
    57    20    52    1
    58    21    53    1
    59    21    54    1
    60    22    55    1
    61    22    56    1
    62    23    57    1
    63    24    58    1
    64    24    59    1
    65    28    60    1
    66    33    61    1
    67    34    62    1
    68    34    63    1
    69    35    64    1
    70    35    65    1
    71    36    66    1
    72    36    67    1
    73    37    68    1
    74    37    69    1
