
     RDKit          3D

 69 74  0  0  0  0  0  0  0  0999 V2000
   -8.5951    2.5570    0.6217 C   0  0  0  0  0  0  0  0  0  0  0  0
   -7.3151    2.0634    0.0840 N   0  0  0  0  0  0  0  0  0  0  0  0
   -7.2047    1.7949   -1.3185 C   0  0  0  0  0  0  0  0  0  0  0  0
   -6.2032    1.8733    0.9440 C   0  0  0  0  0  0  0  0  0  0  0  0
   -6.3132    2.1484    2.1518 O   0  0  0  0  0  0  0  0  0  0  0  0
   -4.9698    1.3681    0.4055 C   0  0  0  0  0  0  0  0  0  0  0  0
   -4.1890    2.1177   -0.4425 C   0  0  0  0  0  0  0  0  0  0  0  0
   -3.1183    1.3417   -0.7398 C   0  0  0  0  0  0  0  0  0  0  0  0
   -2.0164    1.5984   -1.5523 C   0  0  0  0  0  0  0  0  0  0  0  0
   -1.0773    0.6661   -1.6929 N   0  0  0  0  0  0  0  0  0  0  0  0
   -1.2083   -0.5358   -1.0353 C   0  0  0  0  0  0  0  0  0  0  0  0
   -0.1868   -1.5186   -1.2469 N   0  0  0  0  0  0  0  0  0  0  0  0
    1.1518   -1.1467   -0.9538 C   0  0  0  0  0  0  0  0  0  0  0  0
    2.2194   -1.9891   -1.2333 C   0  0  0  0  0  0  0  0  0  0  0  0
    3.5017   -1.6082   -0.9401 C   0  0  0  0  0  0  0  0  0  0  0  0
    3.7618   -0.3751   -0.3574 C   0  0  0  0  0  0  0  0  0  0  0  0
    5.0986    0.0180   -0.1031 N   0  0  0  0  0  0  0  0  0  0  0  0
    5.8978   -0.4012    1.0202 C   0  0  0  0  0  0  0  0  0  0  0  0
    7.2864    0.0402    0.5681 C   0  0  2  0  0  0  0  0  0  0  0  0
    7.9942   -1.0236   -0.2282 C   0  0  0  0  0  0  0  0  0  0  0  0
    9.4292   -0.6289   -0.3948 C   0  0  0  0  0  0  0  0  0  0  0  0
    9.7103    0.7692    0.0499 C   0  0  0  0  0  0  0  0  0  0  0  0
    9.2876    1.0888    1.3738 N   0  0  0  0  0  0  0  0  0  0  0  0
    8.0857    0.4040    1.7769 C   0  0  0  0  0  0  0  0  0  0  0  0
    7.0519    1.2055   -0.2171 O   0  0  0  0  0  0  0  0  0  0  0  0
    5.8971    0.8833   -0.9396 C   0  0  0  0  0  0  0  0  0  0  0  0
    5.6298    1.2767   -2.0783 O   0  0  0  0  0  0  0  0  0  0  0  0
    2.6910    0.4444   -0.0857 C   0  0  0  0  0  0  0  0  0  0  0  0
    1.4646    0.0269   -0.3912 N   0  0  0  0  0  0  0  0  0  0  0  0
   -2.2695   -0.7459   -0.2699 N   0  0  0  0  0  0  0  0  0  0  0  0
   -3.2581    0.1404   -0.0766 C   0  0  0  0  0  0  0  0  0  0  0  0
   -4.4263    0.1554    0.6469 N   0  0  0  0  0  0  0  0  0  0  0  0
   -4.8828   -0.9142    1.4510 C   0  0  0  0  0  0  0  0  0  0  0  0
   -4.5165   -2.2445    0.8191 C   0  0  0  0  0  0  0  0  0  0  0  0
   -5.4347   -2.1687   -0.4175 C   0  0  0  0  0  0  0  0  0  0  0  0
   -6.7518   -1.6348    0.1583 C   0  0  0  0  0  0  0  0  0  0  0  0
   -6.3761   -1.1240    1.5185 C   0  0  0  0  0  0  0  0  0  0  0  0
   -8.5711    2.5750    1.7301 H   0  0  0  0  0  0  0  0  0  0  0  0
   -9.3770    1.8411    0.3033 H   0  0  0  0  0  0  0  0  0  0  0  0
   -8.8412    3.5501    0.2039 H   0  0  0  0  0  0  0  0  0  0  0  0
   -7.0541    2.7104   -1.9093 H   0  0  0  0  0  0  0  0  0  0  0  0
   -8.1711    1.3577   -1.6495 H   0  0  0  0  0  0  0  0  0  0  0  0
   -6.3832    1.0895   -1.5610 H   0  0  0  0  0  0  0  0  0  0  0  0
   -4.3726    3.1094   -0.8022 H   0  0  0  0  0  0  0  0  0  0  0  0
   -1.9600    2.5722   -2.0542 H   0  0  0  0  0  0  0  0  0  0  0  0
   -0.3830   -2.4679   -1.5978 H   0  0  0  0  0  0  0  0  0  0  0  0
    1.9733   -2.9464   -1.6905 H   0  0  0  0  0  0  0  0  0  0  0  0
    4.3197   -2.2827   -1.1725 H   0  0  0  0  0  0  0  0  0  0  0  0
    5.5982    0.0896    1.9464 H   0  0  0  0  0  0  0  0  0  0  0  0
    5.9694   -1.5148    1.1147 H   0  0  0  0  0  0  0  0  0  0  0  0
    7.9351   -1.9724    0.3544 H   0  0  0  0  0  0  0  0  0  0  0  0
    7.4795   -1.2240   -1.1990 H   0  0  0  0  0  0  0  0  0  0  0  0
   10.0897   -1.3594    0.1192 H   0  0  0  0  0  0  0  0  0  0  0  0
    9.6285   -0.6392   -1.5114 H   0  0  0  0  0  0  0  0  0  0  0  0
    9.2970    1.4718   -0.7297 H   0  0  0  0  0  0  0  0  0  0  0  0
   10.8341    0.8860    0.0453 H   0  0  0  0  0  0  0  0  0  0  0  0
    9.1305    2.1076    1.4574 H   0  0  0  0  0  0  0  0  0  0  0  0
    8.3053   -0.5266    2.3470 H   0  0  0  0  0  0  0  0  0  0  0  0
    7.4428    1.0667    2.4271 H   0  0  0  0  0  0  0  0  0  0  0  0
    2.8589    1.3953    0.3662 H   0  0  0  0  0  0  0  0  0  0  0  0
   -4.4615   -0.9281    2.4758 H   0  0  0  0  0  0  0  0  0  0  0  0
   -4.8851   -3.0916    1.4652 H   0  0  0  0  0  0  0  0  0  0  0  0
   -3.5186   -2.3843    0.4899 H   0  0  0  0  0  0  0  0  0  0  0  0
   -5.5365   -3.1378   -0.8981 H   0  0  0  0  0  0  0  0  0  0  0  0
   -5.0575   -1.3941   -1.0854 H   0  0  0  0  0  0  0  0  0  0  0  0
   -7.2369   -0.9335   -0.5055 H   0  0  0  0  0  0  0  0  0  0  0  0
   -7.4357   -2.5286    0.2162 H   0  0  0  0  0  0  0  0  0  0  0  0
   -6.4796   -2.0372    2.1925 H   0  0  0  0  0  0  0  0  0  0  0  0
   -6.9831   -0.3760    1.9611 H   0  0  0  0  0  0  0  0  0  0  0  0
  1  2  1  0
  2  3  1  0
  2  4  1  0
  4  5  2  0
  4  6  1  0
  6  7  2  0
  7  8  1  0
  8  9  2  0
  9 10  1  0
 10 11  2  0
 11 12  1  0
 12 13  1  0
 13 14  2  0
 14 15  1  0
 15 16  2  0
 16 17  1  0
 17 18  1  0
 18 19  1  0
 19 20  1  0
 20 21  1  0
 21 22  1  0
 22 23  1  0
 23 24  1  0
 19 25  1  6
 25 26  1  0
 26 27  2  0
 16 28  1  0
 28 29  2  0
 11 30  1  0
 30 31  2  0
 31 32  1  0
 32 33  1  0
 33 34  1  0
 34 35  1  0
 35 36  1  0
 36 37  1  0
 32  6  1  0
 37 33  1  0
 31  8  1  0
 29 13  1  0
 26 17  1  0
 24 19  1  0
  1 38  1  0
  1 39  1  0
  1 40  1  0
  3 41  1  0
  3 42  1  0
  3 43  1  0
  7 44  1  0
  9 45  1  0
 12 46  1  0
 14 47  1  0
 15 48  1  0
 18 49  1  0
 18 50  1  0
 20 51  1  0
 20 52  1  0
 21 53  1  0
 21 54  1  0
 22 55  1  0
 22 56  1  0
 23 57  1  0
 24 58  1  0
 24 59  1  0
 28 60  1  0
 33 61  1  0
 34 62  1  0
 34 63  1  0
 35 64  1  0
 35 65  1  0
 36 66  1  0
 36 67  1  0
 37 68  1  0
 37 69  1  0
M  END
$$$$
