@<TRIPOS>MOLECULE
*****
 49 51 0 0 0
SMALL
GASTEIGER

@<TRIPOS>ATOM
      1 C          -6.9148    2.0967   -2.2796 C.3     1  UNL1        0.0790
      2 O          -6.9503    0.9179   -1.4943 O.3     1  UNL1       -0.4913
      3 C          -5.7901    0.5599   -0.8327 C.ar    1  UNL1        0.1650
      4 C          -4.6260    1.2631   -0.8882 C.ar    1  UNL1        0.0259
      5 C          -3.4803    0.8702   -0.2087 C.ar    1  UNL1        0.1313
      6 O          -2.3821    1.6784   -0.3349 O.3     1  UNL1       -0.5059
      7 C          -3.4499   -0.2504    0.5549 C.ar    1  UNL1        0.0667
      8 C          -2.3234   -0.8650    1.2023 C.2     1  UNL1        0.1897
      9 O          -2.6344   -1.7336    2.1580 O.2     1  UNL1       -0.2872
     10 C          -0.9197   -0.7477    1.0361 C.2     1  UNL1       -0.0137
     11 C          -0.1954   -0.1125    0.1659 C.2     1  UNL1       -0.0510
     12 C           1.2906   -0.1231    0.1909 C.ar    1  UNL1       -0.0248
     13 C           1.9829    0.5938   -0.7881 C.ar    1  UNL1       -0.0528
     14 C           3.3599    0.6295   -0.8279 C.ar    1  UNL1       -0.0401
     15 C           4.1177   -0.0463    0.1047 C.ar    1  UNL1        0.0297
     16 N           5.5397   -0.0260    0.0864 N.pl3   1  UNL1       -0.3299
     17 C           6.3803   -0.7182    1.0418 C.3     1  UNL1        0.0122
     18 C           7.7672   -0.1865    0.8733 C.3     1  UNL1       -0.0358
     19 C           7.5511    1.0797    0.0708 C.3     1  UNL1       -0.0358
     20 C           6.3922    0.6523   -0.8386 C.3     1  UNL1        0.0122
     21 C           3.4187   -0.7466    1.0609 C.ar    1  UNL1       -0.0401
     22 C           2.0364   -0.7933    1.1156 C.ar    1  UNL1       -0.0528
     23 C          -4.6825   -0.9785    0.6058 C.ar    1  UNL1       -0.0020
     24 C          -5.8010   -0.5804   -0.0647 C.ar    1  UNL1        0.1624
     25 O          -6.9704   -1.3532    0.0391 O.3     1  UNL1       -0.4914
     26 C          -6.9857   -2.5142    0.8195 C.3     1  UNL1        0.0790
     27 H          -7.8765    2.3095   -2.7790 H       1  UNL1        0.0660
     28 H          -6.0771    1.9558   -3.0063 H       1  UNL1        0.0660
     29 H          -6.5860    2.9117   -1.6001 H       1  UNL1        0.0660
     30 H          -4.6211    2.1702   -1.5002 H       1  UNL1        0.0692
     31 H          -2.1061    2.2225    0.4800 H       1  UNL1        0.2922
     32 H          -0.2677   -1.3073    1.8022 H       1  UNL1        0.0656
     33 H          -0.6464    0.3927   -0.6472 H       1  UNL1        0.0625
     34 H           1.3991    1.1384   -1.5390 H       1  UNL1        0.0624
     35 H           3.8968    1.1880   -1.5905 H       1  UNL1        0.0636
     36 H           6.0275   -0.4620    2.0712 H       1  UNL1        0.0464
     37 H           6.3082   -1.8178    0.9571 H       1  UNL1        0.0464
     38 H           8.3700   -0.9015    0.2680 H       1  UNL1        0.0281
     39 H           8.2205    0.0176    1.8603 H       1  UNL1        0.0281
     40 H           8.4297    1.3724   -0.5176 H       1  UNL1        0.0281
     41 H           7.1600    1.8798    0.7074 H       1  UNL1        0.0281
     42 H           5.9459    1.5027   -1.3525 H       1  UNL1        0.0464
     43 H           6.7914   -0.0433   -1.6191 H       1  UNL1        0.0464
     44 H           3.9727   -1.2903    1.8106 H       1  UNL1        0.0636
     45 H           1.5990   -1.3734    1.9087 H       1  UNL1        0.0624
     46 H          -4.6759   -1.8813    1.2162 H       1  UNL1        0.0663
     47 H          -6.4136   -3.3366    0.3175 H       1  UNL1        0.0660
     48 H          -6.5611   -2.3361    1.8489 H       1  UNL1        0.0660
     49 H          -8.0200   -2.8773    0.9430 H       1  UNL1        0.0660
@<TRIPOS>BOND
     1     1     2    1
     2     2     3    1
     3     3     4   ar
     4     4     5   ar
     5     5     6    1
     6     5     7   ar
     7     7     8    1
     8     8     9    2
     9     8    10    1
    10    10    11    2
    11    11    12    1
    12    12    13   ar
    13    13    14   ar
    14    14    15   ar
    15    15    16    1
    16    16    17    1
    17    17    18    1
    18    18    19    1
    19    19    20    1
    20    15    21   ar
    21    21    22   ar
    22     7    23   ar
    23    23    24   ar
    24    24    25    1
    25    25    26    1
    26    24     3   ar
    27    22    12   ar
    28    20    16    1
    29     1    27    1
    30     1    28    1
    31     1    29    1
    32     4    30    1
    33     6    31    1
    34    10    32    1
    35    11    33    1
    36    13    34    1
    37    14    35    1
    38    17    36    1
    39    17    37    1
    40    18    38    1
    41    18    39    1
    42    19    40    1
    43    19    41    1
    44    20    42    1
    45    20    43    1
    46    21    44    1
    47    22    45    1
    48    23    46    1
    49    26    47    1
    50    26    48    1
    51    26    49    1
