
     RDKit          3D

 49 51  0  0  0  0  0  0  0  0999 V2000
   -6.9148    2.0967   -2.2796 C   0  0  0  0  0  0  0  0  0  0  0  0
   -6.9503    0.9179   -1.4943 O   0  0  0  0  0  0  0  0  0  0  0  0
   -5.7901    0.5599   -0.8327 C   0  0  0  0  0  0  0  0  0  0  0  0
   -4.6260    1.2631   -0.8882 C   0  0  0  0  0  0  0  0  0  0  0  0
   -3.4803    0.8702   -0.2087 C   0  0  0  0  0  0  0  0  0  0  0  0
   -2.3821    1.6784   -0.3349 O   0  0  0  0  0  0  0  0  0  0  0  0
   -3.4499   -0.2504    0.5549 C   0  0  0  0  0  0  0  0  0  0  0  0
   -2.3234   -0.8650    1.2023 C   0  0  0  0  0  0  0  0  0  0  0  0
   -2.6344   -1.7336    2.1580 O   0  0  0  0  0  0  0  0  0  0  0  0
   -0.9197   -0.7477    1.0361 C   0  0  0  0  0  0  0  0  0  0  0  0
   -0.1954   -0.1125    0.1659 C   0  0  0  0  0  0  0  0  0  0  0  0
    1.2906   -0.1231    0.1909 C   0  0  0  0  0  0  0  0  0  0  0  0
    1.9829    0.5938   -0.7881 C   0  0  0  0  0  0  0  0  0  0  0  0
    3.3599    0.6295   -0.8279 C   0  0  0  0  0  0  0  0  0  0  0  0
    4.1177   -0.0463    0.1047 C   0  0  0  0  0  0  0  0  0  0  0  0
    5.5397   -0.0260    0.0864 N   0  0  0  0  0  0  0  0  0  0  0  0
    6.3803   -0.7182    1.0418 C   0  0  0  0  0  0  0  0  0  0  0  0
    7.7672   -0.1865    0.8733 C   0  0  0  0  0  0  0  0  0  0  0  0
    7.5511    1.0797    0.0708 C   0  0  0  0  0  0  0  0  0  0  0  0
    6.3922    0.6523   -0.8386 C   0  0  0  0  0  0  0  0  0  0  0  0
    3.4187   -0.7466    1.0609 C   0  0  0  0  0  0  0  0  0  0  0  0
    2.0364   -0.7933    1.1156 C   0  0  0  0  0  0  0  0  0  0  0  0
   -4.6825   -0.9785    0.6058 C   0  0  0  0  0  0  0  0  0  0  0  0
   -5.8010   -0.5804   -0.0647 C   0  0  0  0  0  0  0  0  0  0  0  0
   -6.9704   -1.3532    0.0391 O   0  0  0  0  0  0  0  0  0  0  0  0
   -6.9857   -2.5142    0.8195 C   0  0  0  0  0  0  0  0  0  0  0  0
   -7.8765    2.3095   -2.7790 H   0  0  0  0  0  0  0  0  0  0  0  0
   -6.0771    1.9558   -3.0063 H   0  0  0  0  0  0  0  0  0  0  0  0
   -6.5860    2.9117   -1.6001 H   0  0  0  0  0  0  0  0  0  0  0  0
   -4.6211    2.1702   -1.5002 H   0  0  0  0  0  0  0  0  0  0  0  0
   -2.1061    2.2225    0.4800 H   0  0  0  0  0  0  0  0  0  0  0  0
   -0.2677   -1.3073    1.8022 H   0  0  0  0  0  0  0  0  0  0  0  0
   -0.6464    0.3927   -0.6472 H   0  0  0  0  0  0  0  0  0  0  0  0
    1.3991    1.1384   -1.5390 H   0  0  0  0  0  0  0  0  0  0  0  0
    3.8968    1.1880   -1.5905 H   0  0  0  0  0  0  0  0  0  0  0  0
    6.0275   -0.4620    2.0712 H   0  0  0  0  0  0  0  0  0  0  0  0
    6.3082   -1.8178    0.9571 H   0  0  0  0  0  0  0  0  0  0  0  0
    8.3700   -0.9015    0.2680 H   0  0  0  0  0  0  0  0  0  0  0  0
    8.2205    0.0176    1.8603 H   0  0  0  0  0  0  0  0  0  0  0  0
    8.4297    1.3724   -0.5176 H   0  0  0  0  0  0  0  0  0  0  0  0
    7.1600    1.8798    0.7074 H   0  0  0  0  0  0  0  0  0  0  0  0
    5.9459    1.5027   -1.3525 H   0  0  0  0  0  0  0  0  0  0  0  0
    6.7914   -0.0433   -1.6191 H   0  0  0  0  0  0  0  0  0  0  0  0
    3.9727   -1.2903    1.8106 H   0  0  0  0  0  0  0  0  0  0  0  0
    1.5990   -1.3734    1.9087 H   0  0  0  0  0  0  0  0  0  0  0  0
   -4.6759   -1.8813    1.2162 H   0  0  0  0  0  0  0  0  0  0  0  0
   -6.4136   -3.3366    0.3175 H   0  0  0  0  0  0  0  0  0  0  0  0
   -6.5611   -2.3361    1.8489 H   0  0  0  0  0  0  0  0  0  0  0  0
   -8.0200   -2.8773    0.9430 H   0  0  0  0  0  0  0  0  0  0  0  0
  1  2  1  0
  2  3  1  0
  3  4  2  0
  4  5  1  0
  5  6  1  0
  5  7  2  0
  7  8  1  0
  8  9  2  0
  8 10  1  0
 10 11  2  0
 11 12  1  0
 12 13  2  0
 13 14  1  0
 14 15  2  0
 15 16  1  0
 16 17  1  0
 17 18  1  0
 18 19  1  0
 19 20  1  0
 15 21  1  0
 21 22  2  0
  7 23  1  0
 23 24  2  0
 24 25  1  0
 25 26  1  0
 24  3  1  0
 22 12  1  0
 20 16  1  0
  1 27  1  0
  1 28  1  0
  1 29  1  0
  4 30  1  0
  6 31  1  0
 10 32  1  0
 11 33  1  0
 13 34  1  0
 14 35  1  0
 17 36  1  0
 17 37  1  0
 18 38  1  0
 18 39  1  0
 19 40  1  0
 19 41  1  0
 20 42  1  0
 20 43  1  0
 21 44  1  0
 22 45  1  0
 23 46  1  0
 26 47  1  0
 26 48  1  0
 26 49  1  0
M  END
$$$$
