@<TRIPOS>MOLECULE
*****
 55 59 0 0 0
SMALL
GASTEIGER

@<TRIPOS>ATOM
      1 C          -0.6876   -2.7781    1.3887 C.3     1  UNL1       -0.0394
      2 C          -1.6345   -1.8671    0.6923 C.ar    1  UNL1       -0.0471
      3 C          -2.4938   -2.4066   -0.2661 C.ar    1  UNL1       -0.0565
      4 C          -3.4003   -1.6570   -0.9628 C.ar    1  UNL1       -0.0343
      5 C          -3.4749   -0.2943   -0.7100 C.ar    1  UNL1        0.0864
      6 N          -4.4143    0.4974   -1.4274 N.ar    1  UNL1       -0.1503
      7 N          -5.7214    0.3141   -1.4997 N.ar    1  UNL1       -0.1556
      8 C          -6.2889    1.2747   -2.2809 C.ar    1  UNL1        0.0697
      9 C          -5.2610    2.0692   -2.6927 C.ar    1  UNL1        0.0697
     10 N          -4.1399    1.5608   -2.1509 N.ar    1  UNL1       -0.1556
     11 C          -2.6165    0.2515    0.2491 C.ar    1  UNL1       -0.0311
     12 C          -1.7096   -0.5155    0.9420 C.ar    1  UNL1       -0.0406
     13 C          -0.8363    0.0983    1.9349 C.3     1  UNL1       -0.0065
     14 C           0.5951    0.3024    1.5037 C.3     1  UNL1        0.0537
     15 C           1.2821    0.9525    2.7195 C.3     1  UNL1        0.0666
     16 O           0.5600    2.0886    3.0080 O.3     1  UNL1       -0.3764
     17 C           0.6374    3.0876    2.0727 C.3     1  UNL1        0.0635
     18 C           0.3583    2.6268    0.6596 C.3     1  UNL1        0.0388
     19 N           0.7464    1.2588    0.4445 N.am    1  UNL1       -0.2897
     20 C           1.2739    0.8659   -0.8000 C.2     1  UNL1        0.2491
     21 O           1.4081    1.7136   -1.7304 O.2     1  UNL1       -0.2699
     22 C           1.6936   -0.4944   -1.1110 C.ar    1  UNL1        0.0640
     23 C           0.7746   -1.3653   -1.6485 C.ar    1  UNL1       -0.0475
     24 C           1.0791   -2.6747   -1.9785 C.ar    1  UNL1       -0.0609
     25 C           2.3513   -3.1377   -1.7649 C.ar    1  UNL1       -0.0597
     26 C           3.2625   -2.2545   -1.2257 C.ar    1  UNL1       -0.0338
     27 C           2.9704   -0.9524   -0.8945 C.ar    1  UNL1        0.0982
     28 N           3.9565   -0.0926   -0.3412 N.ar    1  UNL1       -0.1496
     29 N           4.3801    1.0122   -0.9211 N.ar    1  UNL1       -0.1556
     30 C           5.3131    1.6059   -0.1551 C.ar    1  UNL1        0.0697
     31 C           5.4632    0.8014    0.9680 C.ar    1  UNL1        0.0697
     32 N           4.6141   -0.2157    0.8004 N.ar    1  UNL1       -0.1556
     33 H          -0.5811   -2.4547    2.4367 H       1  UNL1        0.0278
     34 H           0.2879   -2.8424    0.8710 H       1  UNL1        0.0278
     35 H          -1.1106   -3.8238    1.3323 H       1  UNL1        0.0278
     36 H          -2.4340   -3.4668   -0.4611 H       1  UNL1        0.0621
     37 H          -4.0736   -2.0806   -1.7139 H       1  UNL1        0.0639
     38 H          -7.3264    1.4062   -2.5379 H       1  UNL1        0.0864
     39 H          -5.3629    2.9308   -3.3298 H       1  UNL1        0.0864
     40 H          -2.7181    1.3161    0.4047 H       1  UNL1        0.0642
     41 H          -1.1988    1.1194    2.2582 H       1  UNL1        0.0332
     42 H          -0.8049   -0.4830    2.8810 H       1  UNL1        0.0332
     43 H           1.1161   -0.6247    1.2561 H       1  UNL1        0.0526
     44 H           1.1445    0.2479    3.5639 H       1  UNL1        0.0578
     45 H           2.3461    1.1064    2.5575 H       1  UNL1        0.0578
     46 H          -0.1572    3.8326    2.3200 H       1  UNL1        0.0575
     47 H           1.5968    3.6642    2.1149 H       1  UNL1        0.0575
     48 H          -0.7213    2.7187    0.4193 H       1  UNL1        0.0487
     49 H           0.8898    3.3425   -0.0146 H       1  UNL1        0.0487
     50 H          -0.2617   -1.0714   -1.8487 H       1  UNL1        0.0626
     51 H           0.3365   -3.3294   -2.3972 H       1  UNL1        0.0618
     52 H           2.6855   -4.1463   -1.9910 H       1  UNL1        0.0618
     53 H           4.2933   -2.5851   -1.0383 H       1  UNL1        0.0639
     54 H           5.8632    2.5236   -0.3341 H       1  UNL1        0.0864
     55 H           6.1500    1.0240    1.7704 H       1  UNL1        0.0864
@<TRIPOS>BOND
     1     1     2    1
     2     2     3   ar
     3     3     4   ar
     4     4     5   ar
     5     5     6    1
     6     6     7   ar
     7     7     8   ar
     8     8     9   ar
     9     9    10   ar
    10     5    11   ar
    11    11    12   ar
    12    12    13    1
    13    13    14    1
    14    14    15    1
    15    15    16    1
    16    16    17    1
    17    17    18    1
    18    18    19    1
    19    19    20   am
    20    20    21    2
    21    20    22    1
    22    22    23   ar
    23    23    24   ar
    24    24    25   ar
    25    25    26   ar
    26    26    27   ar
    27    27    28    1
    28    28    29   ar
    29    29    30   ar
    30    30    31   ar
    31    31    32   ar
    32    12     2   ar
    33    19    14    1
    34    27    22   ar
    35    32    28   ar
    36    10     6   ar
    37     1    33    1
    38     1    34    1
    39     1    35    1
    40     3    36    1
    41     4    37    1
    42     8    38    1
    43     9    39    1
    44    11    40    1
    45    13    41    1
    46    13    42    1
    47    14    43    1
    48    15    44    1
    49    15    45    1
    50    17    46    1
    51    17    47    1
    52    18    48    1
    53    18    49    1
    54    23    50    1
    55    24    51    1
    56    25    52    1
    57    26    53    1
    58    30    54    1
    59    31    55    1
