
     RDKit          3D

 55 59  0  0  0  0  0  0  0  0999 V2000
   -0.6876   -2.7781    1.3887 C   0  0  0  0  0  0  0  0  0  0  0  0
   -1.6345   -1.8671    0.6923 C   0  0  0  0  0  0  0  0  0  0  0  0
   -2.4938   -2.4066   -0.2661 C   0  0  0  0  0  0  0  0  0  0  0  0
   -3.4003   -1.6570   -0.9628 C   0  0  0  0  0  0  0  0  0  0  0  0
   -3.4749   -0.2943   -0.7100 C   0  0  0  0  0  0  0  0  0  0  0  0
   -4.4143    0.4974   -1.4274 N   0  0  0  0  0  0  0  0  0  0  0  0
   -5.7214    0.3141   -1.4997 N   0  0  0  0  0  0  0  0  0  0  0  0
   -6.2889    1.2747   -2.2809 C   0  0  0  0  0  0  0  0  0  0  0  0
   -5.2610    2.0692   -2.6927 C   0  0  0  0  0  0  0  0  0  0  0  0
   -4.1399    1.5608   -2.1509 N   0  0  0  0  0  0  0  0  0  0  0  0
   -2.6165    0.2515    0.2491 C   0  0  0  0  0  0  0  0  0  0  0  0
   -1.7096   -0.5155    0.9420 C   0  0  0  0  0  0  0  0  0  0  0  0
   -0.8363    0.0983    1.9349 C   0  0  0  0  0  0  0  0  0  0  0  0
    0.5951    0.3024    1.5037 C   0  0  2  0  0  0  0  0  0  0  0  0
    1.2821    0.9525    2.7195 C   0  0  0  0  0  0  0  0  0  0  0  0
    0.5600    2.0886    3.0080 O   0  0  0  0  0  0  0  0  0  0  0  0
    0.6374    3.0876    2.0727 C   0  0  0  0  0  0  0  0  0  0  0  0
    0.3583    2.6268    0.6596 C   0  0  0  0  0  0  0  0  0  0  0  0
    0.7464    1.2588    0.4445 N   0  0  0  0  0  0  0  0  0  0  0  0
    1.2739    0.8659   -0.8000 C   0  0  0  0  0  0  0  0  0  0  0  0
    1.4081    1.7136   -1.7304 O   0  0  0  0  0  0  0  0  0  0  0  0
    1.6936   -0.4944   -1.1110 C   0  0  0  0  0  0  0  0  0  0  0  0
    0.7746   -1.3653   -1.6485 C   0  0  0  0  0  0  0  0  0  0  0  0
    1.0791   -2.6747   -1.9785 C   0  0  0  0  0  0  0  0  0  0  0  0
    2.3513   -3.1377   -1.7649 C   0  0  0  0  0  0  0  0  0  0  0  0
    3.2625   -2.2545   -1.2257 C   0  0  0  0  0  0  0  0  0  0  0  0
    2.9704   -0.9524   -0.8945 C   0  0  0  0  0  0  0  0  0  0  0  0
    3.9565   -0.0926   -0.3412 N   0  0  0  0  0  0  0  0  0  0  0  0
    4.3801    1.0122   -0.9211 N   0  0  0  0  0  0  0  0  0  0  0  0
    5.3131    1.6059   -0.1551 C   0  0  0  0  0  0  0  0  0  0  0  0
    5.4632    0.8014    0.9680 C   0  0  0  0  0  0  0  0  0  0  0  0
    4.6141   -0.2157    0.8004 N   0  0  0  0  0  0  0  0  0  0  0  0
   -0.5811   -2.4547    2.4367 H   0  0  0  0  0  0  0  0  0  0  0  0
    0.2879   -2.8424    0.8710 H   0  0  0  0  0  0  0  0  0  0  0  0
   -1.1106   -3.8238    1.3323 H   0  0  0  0  0  0  0  0  0  0  0  0
   -2.4340   -3.4668   -0.4611 H   0  0  0  0  0  0  0  0  0  0  0  0
   -4.0736   -2.0806   -1.7139 H   0  0  0  0  0  0  0  0  0  0  0  0
   -7.3264    1.4062   -2.5379 H   0  0  0  0  0  0  0  0  0  0  0  0
   -5.3629    2.9308   -3.3298 H   0  0  0  0  0  0  0  0  0  0  0  0
   -2.7181    1.3161    0.4047 H   0  0  0  0  0  0  0  0  0  0  0  0
   -1.1988    1.1194    2.2582 H   0  0  0  0  0  0  0  0  0  0  0  0
   -0.8049   -0.4830    2.8810 H   0  0  0  0  0  0  0  0  0  0  0  0
    1.1161   -0.6247    1.2561 H   0  0  0  0  0  0  0  0  0  0  0  0
    1.1445    0.2479    3.5639 H   0  0  0  0  0  0  0  0  0  0  0  0
    2.3461    1.1064    2.5575 H   0  0  0  0  0  0  0  0  0  0  0  0
   -0.1572    3.8326    2.3200 H   0  0  0  0  0  0  0  0  0  0  0  0
    1.5968    3.6642    2.1149 H   0  0  0  0  0  0  0  0  0  0  0  0
   -0.7213    2.7187    0.4193 H   0  0  0  0  0  0  0  0  0  0  0  0
    0.8898    3.3425   -0.0146 H   0  0  0  0  0  0  0  0  0  0  0  0
   -0.2617   -1.0714   -1.8487 H   0  0  0  0  0  0  0  0  0  0  0  0
    0.3365   -3.3294   -2.3972 H   0  0  0  0  0  0  0  0  0  0  0  0
    2.6855   -4.1463   -1.9910 H   0  0  0  0  0  0  0  0  0  0  0  0
    4.2933   -2.5851   -1.0383 H   0  0  0  0  0  0  0  0  0  0  0  0
    5.8632    2.5236   -0.3341 H   0  0  0  0  0  0  0  0  0  0  0  0
    6.1500    1.0240    1.7704 H   0  0  0  0  0  0  0  0  0  0  0  0
  1  2  1  0
  2  3  2  0
  3  4  1  0
  4  5  2  0
  5  6  1  0
  6  7  1  0
  7  8  2  0
  8  9  1  0
  9 10  2  0
  5 11  1  0
 11 12  2  0
 12 13  1  0
 13 14  1  0
 14 15  1  0
 15 16  1  0
 16 17  1  0
 17 18  1  0
 18 19  1  0
 19 20  1  0
 20 21  2  0
 20 22  1  0
 22 23  2  0
 23 24  1  0
 24 25  2  0
 25 26  1  0
 26 27  2  0
 27 28  1  0
 28 29  1  0
 29 30  2  0
 30 31  1  0
 31 32  2  0
 12  2  1  0
 19 14  1  0
 27 22  1  0
 32 28  1  0
 10  6  1  0
  1 33  1  0
  1 34  1  0
  1 35  1  0
  3 36  1  0
  4 37  1  0
  8 38  1  0
  9 39  1  0
 11 40  1  0
 13 41  1  0
 13 42  1  0
 14 43  1  6
 15 44  1  0
 15 45  1  0
 17 46  1  0
 17 47  1  0
 18 48  1  0
 18 49  1  0
 23 50  1  0
 24 51  1  0
 25 52  1  0
 26 53  1  0
 30 54  1  0
 31 55  1  0
M  END
$$$$
