@<TRIPOS>MOLECULE
*****
 27 28 0 0 0
SMALL
GASTEIGER

@<TRIPOS>ATOM
      1 N          -1.8395   -1.4521   -2.0023 N.pl3   1  UNL1       -0.3402
      2 C          -2.4995   -0.8541   -0.8920 C.ar    1  UNL1        0.1583
      3 N          -3.8512   -0.9854   -0.9225 N.ar    1  UNL1       -0.2370
      4 C          -4.6098   -0.4633    0.0728 C.ar    1  UNL1        0.0299
      5 C          -3.9362    0.1888    1.0851 C.ar    1  UNL1       -0.0400
      6 C          -2.5650    0.3318    1.1328 C.ar    1  UNL1       -0.0151
      7 C          -1.8082   -0.2050    0.1127 C.ar    1  UNL1        0.1603
      8 O          -0.4475   -0.1634   -0.0103 O.3     1  UNL1       -0.4840
      9 C           0.3604    0.4717    0.9539 C.3     1  UNL1        0.1148
     10 C           1.7704    0.2944    0.4517 C.ar    1  UNL1       -0.0104
     11 C           2.5025   -0.8153    0.8267 C.ar    1  UNL1       -0.0554
     12 C           3.8068   -0.9518    0.3450 C.ar    1  UNL1       -0.0614
     13 C           4.3615   -0.0028   -0.4891 C.ar    1  UNL1       -0.0617
     14 C           3.6399    1.1172   -0.8750 C.ar    1  UNL1       -0.0614
     15 C           2.3370    1.2428   -0.3871 C.ar    1  UNL1       -0.0554
     16 H          -1.5747   -0.6013   -2.5816 H       1  UNL1        0.1438
     17 H          -1.3436   -1.3584   -2.9031 H       1  UNL1        0.1438
     18 H          -5.6894   -0.5211    0.1284 H       1  UNL1        0.0830
     19 H          -4.5044    0.6198    1.8985 H       1  UNL1        0.0634
     20 H          -2.0289    0.8385    1.9176 H       1  UNL1        0.0656
     21 H           0.2574    0.0235    1.9589 H       1  UNL1        0.0748
     22 H           0.1849    1.5644    1.0444 H       1  UNL1        0.0748
     23 H           2.0171   -1.5366    1.4883 H       1  UNL1        0.0621
     24 H           4.3297   -1.8334    0.6684 H       1  UNL1        0.0618
     25 H           5.3788   -0.1252   -0.8549 H       1  UNL1        0.0618
     26 H           4.0218    1.8800   -1.5176 H       1  UNL1        0.0618
     27 H           1.7298    2.0859   -0.6498 H       1  UNL1        0.0621
@<TRIPOS>BOND
     1     1     2    1
     2     2     3   ar
     3     3     4   ar
     4     4     5   ar
     5     5     6   ar
     6     6     7   ar
     7     7     8    1
     8     8     9    1
     9     9    10    1
    10    10    11   ar
    11    11    12   ar
    12    12    13   ar
    13    13    14   ar
    14    14    15   ar
    15     7     2   ar
    16    15    10   ar
    17     1    16    1
    18     1    17    1
    19     4    18    1
    20     5    19    1
    21     6    20    1
    22     9    21    1
    23     9    22    1
    24    11    23    1
    25    12    24    1
    26    13    25    1
    27    14    26    1
    28    15    27    1
