@<TRIPOS>MOLECULE
*****
 50 51 0 0 0
SMALL
GASTEIGER

@<TRIPOS>ATOM
      1 CA          2.0944    0.2499    1.0079 C.3     1  PHE1        0.1543
      2 CB          3.3865    0.1480    1.8192 C.3     1  PHE1        0.0053
      3 CG          4.4970   -0.2723    0.9307 C.ar    1  PHE1       -0.0448
      4 CD1         4.7719   -1.6298    0.7586 C.ar    1  PHE1       -0.0585
      5 CE1         5.8158   -1.9523   -0.0793 C.ar    1  PHE1       -0.0615
      6 CZ          6.5849   -1.0091   -0.7416 C.ar    1  PHE1       -0.0617
      7 CE2         6.2991    0.3255   -0.5597 C.ar    1  PHE1       -0.0615
      8 CD2         5.2616    0.6947    0.2712 C.ar    1  PHE1       -0.0585
      9 N           1.0856    0.6625    1.9621 N.2     1  PHE1       -0.2395
     10 C          -0.1471    0.5748    1.5883 C.2     0  UNK0        0.1864
     11 O          -1.0064    0.9948    2.5795 O.2     0  UNK0       -0.4954
     12 C          -0.7256    0.0970    0.2775 C.3     0  UNK0        0.0346
     13 C          -1.5848   -1.0907    0.5901 C.3     0  UNK0       -0.0416
     14 C          -2.9736   -0.6734    0.9273 C.3     0  UNK0       -0.0493
     15 C          -3.6373    0.2308   -0.0543 C.3     0  UNK0       -0.0387
     16 C          -2.6671    0.6763   -1.1362 C.3     0  UNK0       -0.0493
     17 C          -1.4580    1.2335   -0.3887 C.3     0  UNK0       -0.0416
     18 C          -4.8537   -0.3474   -0.7243 C.3     0  UNK0       -0.0439
     19 C          -4.6047   -1.5929   -1.5066 C.3     0  UNK0       -0.0624
     20 C          -5.4704    0.7091   -1.6079 C.3     0  UNK0       -0.0624
     21 C           2.2279    1.3601    0.0031 C.2     1  PHE1        0.3299
     22 O           2.6418    2.0968   -1.0760 O.3     1  PHE1       -0.4791
     23 OXT         1.6126    2.4549   -0.0415 O.2     1  PHE1       -0.2486
     24 HA          1.8867   -0.6994    0.5058 H       1  PHE1        0.0665
     25 HB1         3.2461   -0.6307    2.5852 H       1  PHE1        0.0339
     26 HB2         3.5589    1.1427    2.2886 H       1  PHE1        0.0339
     27 HD1         4.1755   -2.3829    1.2730 H       1  PHE1        0.0620
     28 HE1         6.0134   -3.0247   -0.1994 H       1  PHE1        0.0618
     29 HZ          7.3885   -1.3378   -1.3835 H       1  PHE1        0.0618
     30 HE2         6.8949    1.0698   -1.0734 H       1  PHE1        0.0618
     31 HD2         5.0483    1.7578    0.4044 H       1  PHE1        0.0620
     32 H          -0.7675    1.7997    3.1330 H       0  UNK0        0.2934
     33 H           0.1114   -0.2704   -0.3827 H       0  UNK0        0.0395
     34 H          -1.1739   -1.5943    1.5086 H       0  UNK0        0.0273
     35 H          -1.5243   -1.8037   -0.2552 H       0  UNK0        0.0273
     36 H          -2.9327   -0.1307    1.9127 H       0  UNK0        0.0268
     37 H          -3.6058   -1.5755    1.1705 H       0  UNK0        0.0268
     38 H          -3.9953    1.1877    0.4278 H       0  UNK0        0.0303
     39 H          -2.4161   -0.1950   -1.7579 H       0  UNK0        0.0268
     40 H          -3.1163    1.5234   -1.6994 H       0  UNK0        0.0268
     41 H          -1.8518    1.9889    0.3219 H       0  UNK0        0.0273
     42 H          -0.8246    1.7922   -1.1214 H       0  UNK0        0.0273
     43 H          -5.5929   -0.5631    0.0863 H       0  UNK0        0.0298
     44 H          -4.8500   -1.4258   -2.5956 H       0  UNK0        0.0232
     45 H          -5.2707   -2.4261   -1.1507 H       0  UNK0        0.0232
     46 H          -3.5920   -1.9893   -1.4543 H       0  UNK0        0.0232
     47 H          -5.2387    1.7338   -1.2077 H       0  UNK0        0.0232
     48 H          -5.1513    0.6428   -2.6517 H       0  UNK0        0.0232
     49 H          -6.5885    0.6248   -1.5542 H       0  UNK0        0.0232
     50 H           3.0184    1.7040   -1.9304 H       1  PHE1        0.2951
@<TRIPOS>BOND
     1     1     2    1
     2     2     3    1
     3     3     4   ar
     4     4     5   ar
     5     5     6   ar
     6     6     7   ar
     7     7     8   ar
     8     1     9    1
     9     9    10    2
    10    10    11    1
    11    10    12    1
    12    12    13    1
    13    13    14    1
    14    14    15    1
    15    15    16    1
    16    16    17    1
    17    15    18    1
    18    18    19    1
    19    18    20    1
    20     1    21    1
    21    21    22    1
    22    21    23    2
    23     8     3   ar
    24    17    12    1
    25     1    24    1
    26     2    25    1
    27     2    26    1
    28     4    27    1
    29     5    28    1
    30     6    29    1
    31     7    30    1
    32     8    31    1
    33    11    32    1
    34    12    33    1
    35    13    34    1
    36    13    35    1
    37    14    36    1
    38    14    37    1
    39    15    38    1
    40    16    39    1
    41    16    40    1
    42    17    41    1
    43    17    42    1
    44    18    43    1
    45    19    44    1
    46    19    45    1
    47    19    46    1
    48    20    47    1
    49    20    48    1
    50    20    49    1
    51    22    50    1
