
     RDKit          3D

 50 51  0  0  0  0  0  0  0  0999 V2000
    2.0944    0.2499    1.0079 C   0  0  1  0  0  0  0  0  0  0  0  0
    3.3865    0.1480    1.8192 C   0  0  0  0  0  0  0  0  0  0  0  0
    4.4970   -0.2723    0.9307 C   0  0  0  0  0  0  0  0  0  0  0  0
    4.7719   -1.6298    0.7586 C   0  0  0  0  0  0  0  0  0  0  0  0
    5.8158   -1.9523   -0.0793 C   0  0  0  0  0  0  0  0  0  0  0  0
    6.5849   -1.0091   -0.7416 C   0  0  0  0  0  0  0  0  0  0  0  0
    6.2991    0.3255   -0.5597 C   0  0  0  0  0  0  0  0  0  0  0  0
    5.2616    0.6947    0.2712 C   0  0  0  0  0  0  0  0  0  0  0  0
    1.0856    0.6625    1.9621 N   0  0  0  0  0  0  0  0  0  0  0  0
   -0.1471    0.5748    1.5883 C   0  0  0  0  0  0  0  0  0  0  0  0
   -1.0064    0.9948    2.5795 O   0  0  0  0  0  0  0  0  0  0  0  0
   -0.7256    0.0970    0.2775 C   0  0  1  0  0  0  0  0  0  0  0  0
   -1.5848   -1.0907    0.5901 C   0  0  0  0  0  0  0  0  0  0  0  0
   -2.9736   -0.6734    0.9273 C   0  0  0  0  0  0  0  0  0  0  0  0
   -3.6373    0.2308   -0.0543 C   0  0  1  0  0  0  0  0  0  0  0  0
   -2.6671    0.6763   -1.1362 C   0  0  0  0  0  0  0  0  0  0  0  0
   -1.4580    1.2335   -0.3887 C   0  0  0  0  0  0  0  0  0  0  0  0
   -4.8537   -0.3474   -0.7243 C   0  0  0  0  0  0  0  0  0  0  0  0
   -4.6047   -1.5929   -1.5066 C   0  0  0  0  0  0  0  0  0  0  0  0
   -5.4704    0.7091   -1.6079 C   0  0  0  0  0  0  0  0  0  0  0  0
    2.2279    1.3601    0.0031 C   0  0  0  0  0  0  0  0  0  0  0  0
    2.6418    2.0968   -1.0760 O   0  0  0  0  0  0  0  0  0  0  0  0
    1.6126    2.4549   -0.0415 O   0  0  0  0  0  0  0  0  0  0  0  0
    1.8867   -0.6994    0.5058 H   0  0  0  0  0  0  0  0  0  0  0  0
    3.2461   -0.6307    2.5852 H   0  0  0  0  0  0  0  0  0  0  0  0
    3.5589    1.1427    2.2886 H   0  0  0  0  0  0  0  0  0  0  0  0
    4.1755   -2.3829    1.2730 H   0  0  0  0  0  0  0  0  0  0  0  0
    6.0134   -3.0247   -0.1994 H   0  0  0  0  0  0  0  0  0  0  0  0
    7.3885   -1.3378   -1.3835 H   0  0  0  0  0  0  0  0  0  0  0  0
    6.8949    1.0698   -1.0734 H   0  0  0  0  0  0  0  0  0  0  0  0
    5.0483    1.7578    0.4044 H   0  0  0  0  0  0  0  0  0  0  0  0
   -0.7675    1.7997    3.1330 H   0  0  0  0  0  0  0  0  0  0  0  0
    0.1114   -0.2704   -0.3827 H   0  0  0  0  0  0  0  0  0  0  0  0
   -1.1739   -1.5943    1.5086 H   0  0  0  0  0  0  0  0  0  0  0  0
   -1.5243   -1.8037   -0.2552 H   0  0  0  0  0  0  0  0  0  0  0  0
   -2.9327   -0.1307    1.9127 H   0  0  0  0  0  0  0  0  0  0  0  0
   -3.6058   -1.5755    1.1705 H   0  0  0  0  0  0  0  0  0  0  0  0
   -3.9953    1.1877    0.4278 H   0  0  0  0  0  0  0  0  0  0  0  0
   -2.4161   -0.1950   -1.7579 H   0  0  0  0  0  0  0  0  0  0  0  0
   -3.1163    1.5234   -1.6994 H   0  0  0  0  0  0  0  0  0  0  0  0
   -1.8518    1.9889    0.3219 H   0  0  0  0  0  0  0  0  0  0  0  0
   -0.8246    1.7922   -1.1214 H   0  0  0  0  0  0  0  0  0  0  0  0
   -5.5929   -0.5631    0.0863 H   0  0  0  0  0  0  0  0  0  0  0  0
   -4.8500   -1.4258   -2.5956 H   0  0  0  0  0  0  0  0  0  0  0  0
   -5.2707   -2.4261   -1.1507 H   0  0  0  0  0  0  0  0  0  0  0  0
   -3.5920   -1.9893   -1.4543 H   0  0  0  0  0  0  0  0  0  0  0  0
   -5.2387    1.7338   -1.2077 H   0  0  0  0  0  0  0  0  0  0  0  0
   -5.1513    0.6428   -2.6517 H   0  0  0  0  0  0  0  0  0  0  0  0
   -6.5885    0.6248   -1.5542 H   0  0  0  0  0  0  0  0  0  0  0  0
    3.0184    1.7040   -1.9304 H   0  0  0  0  0  0  0  0  0  0  0  0
  1  2  1  0
  2  3  1  0
  3  4  2  0
  4  5  1  0
  5  6  2  0
  6  7  1  0
  7  8  2  0
  1  9  1  0
  9 10  2  3
 10 11  1  0
 10 12  1  0
 12 13  1  0
 13 14  1  0
 14 15  1  0
 15 16  1  0
 16 17  1  0
 15 18  1  0
 18 19  1  0
 18 20  1  0
  1 21  1  0
 21 22  1  0
 21 23  2  0
  8  3  1  0
 17 12  1  0
  1 24  1  6
  2 25  1  0
  2 26  1  0
  4 27  1  0
  5 28  1  0
  6 29  1  0
  7 30  1  0
  8 31  1  0
 11 32  1  0
 12 33  1  6
 13 34  1  0
 13 35  1  0
 14 36  1  0
 14 37  1  0
 15 38  1  1
 16 39  1  0
 16 40  1  0
 17 41  1  0
 17 42  1  0
 18 43  1  0
 19 44  1  0
 19 45  1  0
 19 46  1  0
 20 47  1  0
 20 48  1  0
 20 49  1  0
 22 50  1  0
M  END
$$$$
