
     RDKit          3D

 42 44  0  0  0  0  0  0  0  0999 V2000
    3.3429    2.1751   -0.3012 C   0  0  0  0  0  0  0  0  0  0  0  0
    3.8381    0.8952   -0.6707 N   0  0  0  0  0  0  0  0  0  0  0  0
    5.1324    0.5405   -0.1944 C   0  0  0  0  0  0  0  0  0  0  0  0
    2.8725   -0.1413   -0.6070 C   0  0  0  0  0  0  0  0  0  0  0  0
    2.4075   -0.4882    0.7952 C   0  0  0  0  0  0  0  0  0  0  0  0
    1.4040   -1.6080    0.6435 C   0  0  0  0  0  0  0  0  0  0  0  0
    1.6192   -2.9574    0.9117 C   0  0  0  0  0  0  0  0  0  0  0  0
    0.5229   -3.6621    0.6598 N   0  0  0  0  0  0  0  0  0  0  0  0
   -0.3883   -2.7699    0.2338 C   0  0  0  0  0  0  0  0  0  0  0  0
   -1.7037   -2.9584   -0.1690 C   0  0  0  0  0  0  0  0  0  0  0  0
   -2.4392   -1.8635   -0.5715 C   0  0  0  0  0  0  0  0  0  0  0  0
   -1.9426   -0.5589   -0.6015 C   0  0  0  0  0  0  0  0  0  0  0  0
   -2.9077    0.4512   -1.0719 C   0  0  0  0  0  0  0  0  0  0  0  0
   -3.7015    1.0153    0.0701 C   0  0  1  0  0  0  0  0  0  0  0  0
   -2.8307    1.6850    1.0954 C   0  0  0  0  0  0  0  0  0  0  0  0
   -3.6309    2.7612    1.5791 O   0  0  0  0  0  0  0  0  0  0  0  0
   -4.6974    2.9522    0.7392 C   0  0  0  0  0  0  0  0  0  0  0  0
   -5.7132    3.7232    0.7632 O   0  0  0  0  0  0  0  0  0  0  0  0
   -4.6050    2.0691   -0.3976 N   0  0  0  0  0  0  0  0  0  0  0  0
   -0.6370   -0.4093   -0.1965 C   0  0  0  0  0  0  0  0  0  0  0  0
    0.1031   -1.4995    0.2064 C   0  0  0  0  0  0  0  0  0  0  0  0
    4.1704    2.8919   -0.0873 H   0  0  0  0  0  0  0  0  0  0  0  0
    2.7268    2.5446   -1.1732 H   0  0  0  0  0  0  0  0  0  0  0  0
    2.7030    2.1247    0.5813 H   0  0  0  0  0  0  0  0  0  0  0  0
    5.5460    1.3733    0.4201 H   0  0  0  0  0  0  0  0  0  0  0  0
    5.1619   -0.4113    0.3951 H   0  0  0  0  0  0  0  0  0  0  0  0
    5.7907    0.3603   -1.0800 H   0  0  0  0  0  0  0  0  0  0  0  0
    3.3080   -1.0723   -1.0348 H   0  0  0  0  0  0  0  0  0  0  0  0
    1.9743    0.1408   -1.1721 H   0  0  0  0  0  0  0  0  0  0  0  0
    3.2621   -0.9100    1.3674 H   0  0  0  0  0  0  0  0  0  0  0  0
    1.9374    0.3615    1.3158 H   0  0  0  0  0  0  0  0  0  0  0  0
    2.5849   -3.3101    1.2764 H   0  0  0  0  0  0  0  0  0  0  0  0
    0.4398   -4.7072    0.7843 H   0  0  0  0  0  0  0  0  0  0  0  0
   -2.1078   -3.9618   -0.1538 H   0  0  0  0  0  0  0  0  0  0  0  0
   -3.4527   -2.1163   -0.8691 H   0  0  0  0  0  0  0  0  0  0  0  0
   -2.3874    1.3174   -1.5758 H   0  0  0  0  0  0  0  0  0  0  0  0
   -3.5811    0.0113   -1.8621 H   0  0  0  0  0  0  0  0  0  0  0  0
   -4.3107    0.2045    0.5272 H   0  0  0  0  0  0  0  0  0  0  0  0
   -2.5909    0.9962    1.9074 H   0  0  0  0  0  0  0  0  0  0  0  0
   -1.9211    2.1184    0.6372 H   0  0  0  0  0  0  0  0  0  0  0  0
   -5.0316    2.0887   -1.3473 H   0  0  0  0  0  0  0  0  0  0  0  0
   -0.2670    0.6040   -0.2247 H   0  0  0  0  0  0  0  0  0  0  0  0
  1  2  1  0
  2  3  1  0
  2  4  1  0
  4  5  1  0
  5  6  1  0
  6  7  2  0
  7  8  1  0
  8  9  1  0
  9 10  2  0
 10 11  1  0
 11 12  2  0
 12 13  1  0
 13 14  1  0
 14 15  1  0
 15 16  1  0
 16 17  1  0
 17 18  2  0
 17 19  1  0
 12 20  1  0
 20 21  2  0
 21  6  1  0
 21  9  1  0
 19 14  1  0
  1 22  1  0
  1 23  1  0
  1 24  1  0
  3 25  1  0
  3 26  1  0
  3 27  1  0
  4 28  1  0
  4 29  1  0
  5 30  1  0
  5 31  1  0
  7 32  1  0
  8 33  1  0
 10 34  1  0
 11 35  1  0
 13 36  1  0
 13 37  1  0
 14 38  1  1
 15 39  1  0
 15 40  1  0
 19 41  1  0
 20 42  1  0
M  END
$$$$
