@<TRIPOS>MOLECULE
*****
 64 68 0 0 0
SMALL
GASTEIGER

@<TRIPOS>ATOM
      1 C          -4.0991    5.4418    0.9133 C.3     1  UNL1       -0.0653
      2 C          -3.1838    4.3818    1.5361 C.3     1  UNL1       -0.0556
      3 C          -3.2340    3.1249    0.6929 C.3     1  UNL1       -0.0478
      4 C          -2.3042    2.1188    1.3704 C.3     1  UNL1       -0.0084
      5 C          -2.2740    0.8419    0.6255 C.ar    1  UNL1        0.0677
      6 N          -3.0250   -0.2613    0.8615 N.ar    1  UNL1       -0.1701
      7 N          -2.8240   -1.1752   -0.0334 N.ar    1  UNL1       -0.2186
      8 C          -3.3935   -2.4792   -0.1758 C.ar    1  UNL1        0.1430
      9 C          -2.8020   -3.5685    0.4462 C.ar    1  UNL1       -0.0296
     10 C          -3.3225   -4.8334    0.3284 C.ar    1  UNL1       -0.0593
     11 C          -4.4604   -5.0303   -0.4250 C.ar    1  UNL1       -0.0552
     12 C          -5.0583   -3.9541   -1.0486 C.ar    1  UNL1        0.0178
     13 C          -4.5227   -2.6912   -0.9202 C.ar    1  UNL1        0.2982
     14 N          -5.1629   -1.6120   -1.5738 N.pl3   1  UNL1        0.0818
     15 O          -6.3839   -1.6798   -1.7941 O.2     1  UNL1        0.0415
     16 O          -4.5189   -0.4724   -1.9898 O.co2   1  UNL1       -0.5760
     17 C          -1.8992   -0.6691   -0.9086 C.ar    1  UNL1        0.1550
     18 C          -1.3970   -1.3753   -2.0769 C.2     1  UNL1        0.3557
     19 O          -1.8227   -2.5626   -2.3305 O.2     1  UNL1       -0.2434
     20 O          -0.4786   -0.8174   -2.9279 O.3     1  UNL1       -0.4761
     21 C          -1.5321    0.6057   -0.5121 C.ar    1  UNL1        0.0123
     22 C          -0.4881    1.4640   -1.1270 C.3     1  UNL1        0.0016
     23 C           0.8713    1.2382   -0.6532 C.ar    1  UNL1       -0.0429
     24 C           1.8575    0.9418   -1.6093 C.ar    1  UNL1       -0.0577
     25 C           3.1669    0.6820   -1.2669 C.ar    1  UNL1       -0.0537
     26 C           3.5588    0.7055    0.0549 C.ar    1  UNL1       -0.0172
     27 C           4.9388    0.4251    0.4090 C.ar    1  UNL1       -0.0072
     28 C           5.7914    1.4474    0.7971 C.ar    1  UNL1       -0.0534
     29 C           7.1054    1.2226    1.1254 C.ar    1  UNL1       -0.0611
     30 C           7.6206   -0.0408    1.0783 C.ar    1  UNL1       -0.0611
     31 C           6.8047   -1.0742    0.6990 C.ar    1  UNL1       -0.0504
     32 C           5.4630   -0.8404    0.3645 C.ar    1  UNL1        0.0282
     33 C           4.6146   -1.9539   -0.0235 C.ar    1  UNL1        0.1799
     34 N           3.3191   -1.9280   -0.3583 N.ar    1  UNL1       -0.1084
     35 N           2.9227   -3.1581   -0.6418 N.ar    1  UNL1       -0.0229
     36 N           3.9643   -3.9588   -0.4868 N.ar    1  UNL1       -0.0464
     37 N           4.9999   -3.2521   -0.1128 N.ar    1  UNL1       -0.2388
     38 C           2.5935    0.9954    0.9851 C.ar    1  UNL1       -0.0537
     39 C           1.2547    1.2621    0.6504 C.ar    1  UNL1       -0.0577
     40 H          -5.1417    5.0744    1.1336 H       1  UNL1        0.0230
     41 H          -3.8809    6.3978    1.3908 H       1  UNL1        0.0230
     42 H          -3.9143    5.4642   -0.1836 H       1  UNL1        0.0230
     43 H          -3.5525    4.2061    2.5639 H       1  UNL1        0.0263
     44 H          -2.1285    4.7664    1.5279 H       1  UNL1        0.0263
     45 H          -4.2769    2.7816    0.6893 H       1  UNL1        0.0269
     46 H          -2.8999    3.3969   -0.3206 H       1  UNL1        0.0269
     47 H          -1.3263    2.6234    1.3711 H       1  UNL1        0.0329
     48 H          -2.7121    1.9266    2.3670 H       1  UNL1        0.0329
     49 H          -1.8954   -3.3598    1.0367 H       1  UNL1        0.0641
     50 H          -2.7961   -5.6230    0.8480 H       1  UNL1        0.0618
     51 H          -4.8533   -6.0504   -0.5017 H       1  UNL1        0.0620
     52 H          -5.9658   -4.1125   -1.6485 H       1  UNL1        0.0686
     53 H           0.2015   -1.3824   -3.4032 H       1  UNL1        0.2955
     54 H          -0.7636    2.5617   -0.9620 H       1  UNL1        0.0363
     55 H          -0.5894    1.3644   -2.2333 H       1  UNL1        0.0363
     56 H           1.5795    0.9240   -2.6493 H       1  UNL1        0.0621
     57 H           3.9092    0.4555   -2.0351 H       1  UNL1        0.0624
     58 H           5.3626    2.4422    0.8277 H       1  UNL1        0.0624
     59 H           7.7529    2.0472    1.4273 H       1  UNL1        0.0618
     60 H           8.6648   -0.2423    1.3346 H       1  UNL1        0.0618
     61 H           7.1952   -2.0695    0.6582 H       1  UNL1        0.0625
     62 H           5.9747   -3.6018    0.0907 H       1  UNL1        0.1923
     63 H           2.8459    1.0280    2.0279 H       1  UNL1        0.0624
     64 H           0.5503    1.4705    1.4454 H       1  UNL1        0.0621
@<TRIPOS>UNITY_ATOM_ATTR
14 1
charge 1
16 1
charge -1
@<TRIPOS>BOND
     1     1     2    1
     2     2     3    1
     3     3     4    1
     4     4     5    1
     5     5     6   ar
     6     6     7   ar
     7     7     8    1
     8     8     9   ar
     9     9    10   ar
    10    10    11   ar
    11    11    12   ar
    12    12    13   ar
    13    13    14    1
    14    14    15    2
    15    14    16    1
    16     7    17   ar
    17    17    18    1
    18    18    19    2
    19    18    20    1
    20    17    21   ar
    21    21    22    1
    22    22    23    1
    23    23    24   ar
    24    24    25   ar
    25    25    26   ar
    26    26    27    1
    27    27    28   ar
    28    28    29   ar
    29    29    30   ar
    30    30    31   ar
    31    31    32   ar
    32    32    33    1
    33    33    34   ar
    34    34    35   ar
    35    35    36   ar
    36    36    37   ar
    37    26    38   ar
    38    38    39   ar
    39    21     5   ar
    40    39    23   ar
    41    13     8   ar
    42    32    27   ar
    43    37    33   ar
    44     1    40    1
    45     1    41    1
    46     1    42    1
    47     2    43    1
    48     2    44    1
    49     3    45    1
    50     3    46    1
    51     4    47    1
    52     4    48    1
    53     9    49    1
    54    10    50    1
    55    11    51    1
    56    12    52    1
    57    20    53    1
    58    22    54    1
    59    22    55    1
    60    24    56    1
    61    25    57    1
    62    28    58    1
    63    29    59    1
    64    30    60    1
    65    31    61    1
    66    37    62    1
    67    38    63    1
    68    39    64    1
