
     RDKit          3D

 64 68  0  0  0  0  0  0  0  0999 V2000
   -4.0991    5.4418    0.9133 C   0  0  0  0  0  0  0  0  0  0  0  0
   -3.1838    4.3818    1.5361 C   0  0  0  0  0  0  0  0  0  0  0  0
   -3.2340    3.1249    0.6929 C   0  0  0  0  0  0  0  0  0  0  0  0
   -2.3042    2.1188    1.3704 C   0  0  0  0  0  0  0  0  0  0  0  0
   -2.2740    0.8419    0.6255 C   0  0  0  0  0  0  0  0  0  0  0  0
   -3.0250   -0.2613    0.8615 N   0  0  0  0  0  0  0  0  0  0  0  0
   -2.8240   -1.1752   -0.0334 N   0  0  0  0  0  0  0  0  0  0  0  0
   -3.3935   -2.4792   -0.1758 C   0  0  0  0  0  0  0  0  0  0  0  0
   -2.8020   -3.5685    0.4462 C   0  0  0  0  0  0  0  0  0  0  0  0
   -3.3225   -4.8334    0.3284 C   0  0  0  0  0  0  0  0  0  0  0  0
   -4.4604   -5.0303   -0.4250 C   0  0  0  0  0  0  0  0  0  0  0  0
   -5.0583   -3.9541   -1.0486 C   0  0  0  0  0  0  0  0  0  0  0  0
   -4.5227   -2.6912   -0.9202 C   0  0  0  0  0  0  0  0  0  0  0  0
   -5.1629   -1.6120   -1.5738 N   0  0  0  0  0  4  0  0  0  0  0  0
   -6.3839   -1.6798   -1.7941 O   0  0  0  0  0  0  0  0  0  0  0  0
   -4.5189   -0.4724   -1.9898 O   0  0  0  0  0  1  0  0  0  0  0  0
   -1.8992   -0.6691   -0.9086 C   0  0  0  0  0  0  0  0  0  0  0  0
   -1.3970   -1.3753   -2.0769 C   0  0  0  0  0  0  0  0  0  0  0  0
   -1.8227   -2.5626   -2.3305 O   0  0  0  0  0  0  0  0  0  0  0  0
   -0.4786   -0.8174   -2.9279 O   0  0  0  0  0  0  0  0  0  0  0  0
   -1.5321    0.6057   -0.5121 C   0  0  0  0  0  0  0  0  0  0  0  0
   -0.4881    1.4640   -1.1270 C   0  0  0  0  0  0  0  0  0  0  0  0
    0.8713    1.2382   -0.6532 C   0  0  0  0  0  0  0  0  0  0  0  0
    1.8575    0.9418   -1.6093 C   0  0  0  0  0  0  0  0  0  0  0  0
    3.1669    0.6820   -1.2669 C   0  0  0  0  0  0  0  0  0  0  0  0
    3.5588    0.7055    0.0549 C   0  0  0  0  0  0  0  0  0  0  0  0
    4.9388    0.4251    0.4090 C   0  0  0  0  0  0  0  0  0  0  0  0
    5.7914    1.4474    0.7971 C   0  0  0  0  0  0  0  0  0  0  0  0
    7.1054    1.2226    1.1254 C   0  0  0  0  0  0  0  0  0  0  0  0
    7.6206   -0.0408    1.0783 C   0  0  0  0  0  0  0  0  0  0  0  0
    6.8047   -1.0742    0.6990 C   0  0  0  0  0  0  0  0  0  0  0  0
    5.4630   -0.8404    0.3645 C   0  0  0  0  0  0  0  0  0  0  0  0
    4.6146   -1.9539   -0.0235 C   0  0  0  0  0  0  0  0  0  0  0  0
    3.3191   -1.9280   -0.3583 N   0  0  0  0  0  0  0  0  0  0  0  0
    2.9227   -3.1581   -0.6418 N   0  0  0  0  0  0  0  0  0  0  0  0
    3.9643   -3.9588   -0.4868 N   0  0  0  0  0  0  0  0  0  0  0  0
    4.9999   -3.2521   -0.1128 N   0  0  0  0  0  0  0  0  0  0  0  0
    2.5935    0.9954    0.9851 C   0  0  0  0  0  0  0  0  0  0  0  0
    1.2547    1.2621    0.6504 C   0  0  0  0  0  0  0  0  0  0  0  0
   -5.1417    5.0744    1.1336 H   0  0  0  0  0  0  0  0  0  0  0  0
   -3.8809    6.3978    1.3908 H   0  0  0  0  0  0  0  0  0  0  0  0
   -3.9143    5.4642   -0.1836 H   0  0  0  0  0  0  0  0  0  0  0  0
   -3.5525    4.2061    2.5639 H   0  0  0  0  0  0  0  0  0  0  0  0
   -2.1285    4.7664    1.5279 H   0  0  0  0  0  0  0  0  0  0  0  0
   -4.2769    2.7816    0.6893 H   0  0  0  0  0  0  0  0  0  0  0  0
   -2.8999    3.3969   -0.3206 H   0  0  0  0  0  0  0  0  0  0  0  0
   -1.3263    2.6234    1.3711 H   0  0  0  0  0  0  0  0  0  0  0  0
   -2.7121    1.9266    2.3670 H   0  0  0  0  0  0  0  0  0  0  0  0
   -1.8954   -3.3598    1.0367 H   0  0  0  0  0  0  0  0  0  0  0  0
   -2.7961   -5.6230    0.8480 H   0  0  0  0  0  0  0  0  0  0  0  0
   -4.8533   -6.0504   -0.5017 H   0  0  0  0  0  0  0  0  0  0  0  0
   -5.9658   -4.1125   -1.6485 H   0  0  0  0  0  0  0  0  0  0  0  0
    0.2015   -1.3824   -3.4032 H   0  0  0  0  0  0  0  0  0  0  0  0
   -0.7636    2.5617   -0.9620 H   0  0  0  0  0  0  0  0  0  0  0  0
   -0.5894    1.3644   -2.2333 H   0  0  0  0  0  0  0  0  0  0  0  0
    1.5795    0.9240   -2.6493 H   0  0  0  0  0  0  0  0  0  0  0  0
    3.9092    0.4555   -2.0351 H   0  0  0  0  0  0  0  0  0  0  0  0
    5.3626    2.4422    0.8277 H   0  0  0  0  0  0  0  0  0  0  0  0
    7.7529    2.0472    1.4273 H   0  0  0  0  0  0  0  0  0  0  0  0
    8.6648   -0.2423    1.3346 H   0  0  0  0  0  0  0  0  0  0  0  0
    7.1952   -2.0695    0.6582 H   0  0  0  0  0  0  0  0  0  0  0  0
    5.9747   -3.6018    0.0907 H   0  0  0  0  0  0  0  0  0  0  0  0
    2.8459    1.0280    2.0279 H   0  0  0  0  0  0  0  0  0  0  0  0
    0.5503    1.4705    1.4454 H   0  0  0  0  0  0  0  0  0  0  0  0
  1  2  1  0
  2  3  1  0
  3  4  1  0
  4  5  1  0
  5  6  2  0
  6  7  1  0
  7  8  1  0
  8  9  2  0
  9 10  1  0
 10 11  2  0
 11 12  1  0
 12 13  2  0
 13 14  1  0
 14 15  2  0
 14 16  1  0
  7 17  1  0
 17 18  1  0
 18 19  2  0
 18 20  1  0
 17 21  2  0
 21 22  1  0
 22 23  1  0
 23 24  2  0
 24 25  1  0
 25 26  2  0
 26 27  1  0
 27 28  2  0
 28 29  1  0
 29 30  2  0
 30 31  1  0
 31 32  2  0
 32 33  1  0
 33 34  2  0
 34 35  1  0
 35 36  2  0
 36 37  1  0
 26 38  1  0
 38 39  2  0
 21  5  1  0
 39 23  1  0
 13  8  1  0
 32 27  1  0
 37 33  1  0
  1 40  1  0
  1 41  1  0
  1 42  1  0
  2 43  1  0
  2 44  1  0
  3 45  1  0
  3 46  1  0
  4 47  1  0
  4 48  1  0
  9 49  1  0
 10 50  1  0
 11 51  1  0
 12 52  1  0
 20 53  1  0
 22 54  1  0
 22 55  1  0
 24 56  1  0
 25 57  1  0
 28 58  1  0
 29 59  1  0
 30 60  1  0
 31 61  1  0
 37 62  1  0
 38 63  1  0
 39 64  1  0
M  CHG  2  14   1  16  -1
M  END
$$$$
