@<TRIPOS>MOLECULE
*****
 52 55 0 0 0
SMALL
GASTEIGER

@<TRIPOS>ATOM
      1 O           3.8214    1.4440    0.0078 O.2     1  UNL1       -0.2265
      2 C           3.5616    0.6428    0.9071 C.2     1  UNL1        0.4009
      3 N           4.5388    0.0709    1.7450 N.am    1  UNL1       -0.2770
      4 C           5.9262    0.4040    1.5823 C.3     1  UNL1        0.0400
      5 C           6.5364   -0.3091    0.4499 C.ar    1  UNL1       -0.0302
      6 C           6.6371    0.2490   -0.7783 C.ar    1  UNL1       -0.0571
      7 C           7.2104   -0.4669   -1.8251 C.ar    1  UNL1       -0.0615
      8 C           7.6791   -1.7527   -1.6092 C.ar    1  UNL1       -0.0617
      9 C           7.5756   -2.3188   -0.3564 C.ar    1  UNL1       -0.0615
     10 C           7.0061   -1.5950    0.6631 C.ar    1  UNL1       -0.0571
     11 O           2.2136    0.3264    1.0532 O.3     1  UNL1       -0.4421
     12 C           1.2331    0.8706    0.2485 C.3     1  UNL1        0.1563
     13 C           0.5507   -0.2572   -0.4900 C.3     1  UNL1        0.0879
     14 O          -0.6319   -0.5469    0.1352 O.3     1  UNL1       -0.3664
     15 C          -0.9686    0.4258    1.0264 C.3     1  UNL1        0.1274
     16 C          -2.1766    1.1668    0.5057 C.3     1  UNL1        0.1547
     17 O          -3.2131    0.3842    0.0490 O.3     1  UNL1       -0.4561
     18 C          -4.4844    0.3331    0.5447 C.2     1  UNL1        0.3106
     19 O          -4.7183    1.0986    1.5359 O.2     1  UNL1       -0.2505
     20 C          -5.5794   -0.5026    0.0523 C.3     1  UNL1        0.0565
     21 C          -6.8598   -0.3177    0.8337 C.3     1  UNL1       -0.0401
     22 C          -7.8317   -1.1318   -0.0315 C.3     1  UNL1       -0.0523
     23 C          -7.3364   -0.9265   -1.4419 C.3     1  UNL1       -0.0523
     24 C          -6.0372   -0.1577   -1.3476 C.3     1  UNL1       -0.0401
     25 C          -1.5712    2.1186   -0.4483 C.3     1  UNL1        0.0878
     26 O          -0.4214    2.5497    0.2036 O.3     1  UNL1       -0.3664
     27 C           0.0882    1.5160    0.9562 C.3     1  UNL1        0.1274
     28 H           4.2099   -0.5999    2.4821 H       1  UNL1        0.1523
     29 H           6.4553    0.0508    2.5182 H       1  UNL1        0.0513
     30 H           6.0585    1.5066    1.5170 H       1  UNL1        0.0513
     31 H           6.2960    1.2461   -0.9870 H       1  UNL1        0.0621
     32 H           7.2703    0.0120   -2.7801 H       1  UNL1        0.0618
     33 H           8.1144   -2.2785   -2.4316 H       1  UNL1        0.0618
     34 H           7.9565   -3.3318   -0.2287 H       1  UNL1        0.0618
     35 H           6.9319   -2.0507    1.6373 H       1  UNL1        0.0621
     36 H           1.6720    1.5664   -0.5054 H       1  UNL1        0.0785
     37 H           0.4041   -0.0066   -1.5653 H       1  UNL1        0.0598
     38 H           1.1961   -1.1705   -0.3901 H       1  UNL1        0.0598
     39 H          -1.0995    0.0269    2.0445 H       1  UNL1        0.0661
     40 H          -2.5664    1.7695    1.3783 H       1  UNL1        0.0784
     41 H          -5.3054   -1.5698    0.0894 H       1  UNL1        0.0413
     42 H          -7.1119    0.7599    0.8059 H       1  UNL1        0.0273
     43 H          -6.7917   -0.7033    1.8532 H       1  UNL1        0.0273
     44 H          -7.6741   -2.1939    0.2990 H       1  UNL1        0.0265
     45 H          -8.8721   -0.8559    0.1277 H       1  UNL1        0.0265
     46 H          -7.1620   -1.9385   -1.8855 H       1  UNL1        0.0265
     47 H          -8.0846   -0.4089   -2.0743 H       1  UNL1        0.0265
     48 H          -5.2981   -0.5843   -2.0498 H       1  UNL1        0.0273
     49 H          -6.1831    0.9357   -1.4627 H       1  UNL1        0.0273
     50 H          -1.2696    1.6948   -1.4135 H       1  UNL1        0.0598
     51 H          -2.2017    3.0085   -0.6592 H       1  UNL1        0.0598
     52 H           0.3067    1.7979    2.0033 H       1  UNL1        0.0661
@<TRIPOS>BOND
     1     1     2    2
     2     2     3   am
     3     3     4    1
     4     4     5    1
     5     5     6   ar
     6     6     7   ar
     7     7     8   ar
     8     8     9   ar
     9     9    10   ar
    10     2    11    1
    11    11    12    1
    12    12    13    1
    13    13    14    1
    14    14    15    1
    15    15    16    1
    16    16    17    1
    17    17    18    1
    18    18    19    2
    19    18    20    1
    20    20    21    1
    21    21    22    1
    22    22    23    1
    23    23    24    1
    24    16    25    1
    25    25    26    1
    26    26    27    1
    27    10     5   ar
    28    27    12    1
    29    27    15    1
    30    24    20    1
    31     3    28    1
    32     4    29    1
    33     4    30    1
    34     6    31    1
    35     7    32    1
    36     8    33    1
    37     9    34    1
    38    10    35    1
    39    12    36    1
    40    13    37    1
    41    13    38    1
    42    15    39    1
    43    16    40    1
    44    20    41    1
    45    21    42    1
    46    21    43    1
    47    22    44    1
    48    22    45    1
    49    23    46    1
    50    23    47    1
    51    24    48    1
    52    24    49    1
    53    25    50    1
    54    25    51    1
    55    27    52    1
