
     RDKit          3D

 52 55  0  0  0  0  0  0  0  0999 V2000
    3.8214    1.4440    0.0078 O   0  0  0  0  0  0  0  0  0  0  0  0
    3.5616    0.6428    0.9071 C   0  0  0  0  0  0  0  0  0  0  0  0
    4.5388    0.0709    1.7450 N   0  0  0  0  0  0  0  0  0  0  0  0
    5.9262    0.4040    1.5823 C   0  0  0  0  0  0  0  0  0  0  0  0
    6.5364   -0.3091    0.4499 C   0  0  0  0  0  0  0  0  0  0  0  0
    6.6371    0.2490   -0.7783 C   0  0  0  0  0  0  0  0  0  0  0  0
    7.2104   -0.4669   -1.8251 C   0  0  0  0  0  0  0  0  0  0  0  0
    7.6791   -1.7527   -1.6092 C   0  0  0  0  0  0  0  0  0  0  0  0
    7.5756   -2.3188   -0.3564 C   0  0  0  0  0  0  0  0  0  0  0  0
    7.0061   -1.5950    0.6631 C   0  0  0  0  0  0  0  0  0  0  0  0
    2.2136    0.3264    1.0532 O   0  0  0  0  0  0  0  0  0  0  0  0
    1.2331    0.8706    0.2485 C   0  0  1  0  0  0  0  0  0  0  0  0
    0.5507   -0.2572   -0.4900 C   0  0  0  0  0  0  0  0  0  0  0  0
   -0.6319   -0.5469    0.1352 O   0  0  0  0  0  0  0  0  0  0  0  0
   -0.9686    0.4258    1.0264 C   0  0  2  0  0  0  0  0  0  0  0  0
   -2.1766    1.1668    0.5057 C   0  0  2  0  0  0  0  0  0  0  0  0
   -3.2131    0.3842    0.0490 O   0  0  0  0  0  0  0  0  0  0  0  0
   -4.4844    0.3331    0.5447 C   0  0  0  0  0  0  0  0  0  0  0  0
   -4.7183    1.0986    1.5359 O   0  0  0  0  0  0  0  0  0  0  0  0
   -5.5794   -0.5026    0.0523 C   0  0  0  0  0  0  0  0  0  0  0  0
   -6.8598   -0.3177    0.8337 C   0  0  0  0  0  0  0  0  0  0  0  0
   -7.8317   -1.1318   -0.0315 C   0  0  0  0  0  0  0  0  0  0  0  0
   -7.3364   -0.9265   -1.4419 C   0  0  0  0  0  0  0  0  0  0  0  0
   -6.0372   -0.1577   -1.3476 C   0  0  0  0  0  0  0  0  0  0  0  0
   -1.5712    2.1186   -0.4483 C   0  0  0  0  0  0  0  0  0  0  0  0
   -0.4214    2.5497    0.2036 O   0  0  0  0  0  0  0  0  0  0  0  0
    0.0882    1.5160    0.9562 C   0  0  2  0  0  0  0  0  0  0  0  0
    4.2099   -0.5999    2.4821 H   0  0  0  0  0  0  0  0  0  0  0  0
    6.4553    0.0508    2.5182 H   0  0  0  0  0  0  0  0  0  0  0  0
    6.0585    1.5066    1.5170 H   0  0  0  0  0  0  0  0  0  0  0  0
    6.2960    1.2461   -0.9870 H   0  0  0  0  0  0  0  0  0  0  0  0
    7.2703    0.0120   -2.7801 H   0  0  0  0  0  0  0  0  0  0  0  0
    8.1144   -2.2785   -2.4316 H   0  0  0  0  0  0  0  0  0  0  0  0
    7.9565   -3.3318   -0.2287 H   0  0  0  0  0  0  0  0  0  0  0  0
    6.9319   -2.0507    1.6373 H   0  0  0  0  0  0  0  0  0  0  0  0
    1.6720    1.5664   -0.5054 H   0  0  0  0  0  0  0  0  0  0  0  0
    0.4041   -0.0066   -1.5653 H   0  0  0  0  0  0  0  0  0  0  0  0
    1.1961   -1.1705   -0.3901 H   0  0  0  0  0  0  0  0  0  0  0  0
   -1.0995    0.0269    2.0445 H   0  0  0  0  0  0  0  0  0  0  0  0
   -2.5664    1.7695    1.3783 H   0  0  0  0  0  0  0  0  0  0  0  0
   -5.3054   -1.5698    0.0894 H   0  0  0  0  0  0  0  0  0  0  0  0
   -7.1119    0.7599    0.8059 H   0  0  0  0  0  0  0  0  0  0  0  0
   -6.7917   -0.7033    1.8532 H   0  0  0  0  0  0  0  0  0  0  0  0
   -7.6741   -2.1939    0.2990 H   0  0  0  0  0  0  0  0  0  0  0  0
   -8.8721   -0.8559    0.1277 H   0  0  0  0  0  0  0  0  0  0  0  0
   -7.1620   -1.9385   -1.8855 H   0  0  0  0  0  0  0  0  0  0  0  0
   -8.0846   -0.4089   -2.0743 H   0  0  0  0  0  0  0  0  0  0  0  0
   -5.2981   -0.5843   -2.0498 H   0  0  0  0  0  0  0  0  0  0  0  0
   -6.1831    0.9357   -1.4627 H   0  0  0  0  0  0  0  0  0  0  0  0
   -1.2696    1.6948   -1.4135 H   0  0  0  0  0  0  0  0  0  0  0  0
   -2.2017    3.0085   -0.6592 H   0  0  0  0  0  0  0  0  0  0  0  0
    0.3067    1.7979    2.0033 H   0  0  0  0  0  0  0  0  0  0  0  0
  1  2  2  0
  2  3  1  0
  3  4  1  0
  4  5  1  0
  5  6  2  0
  6  7  1  0
  7  8  2  0
  8  9  1  0
  9 10  2  0
  2 11  1  0
 11 12  1  0
 12 13  1  0
 13 14  1  0
 14 15  1  0
 15 16  1  0
 16 17  1  0
 17 18  1  0
 18 19  2  0
 18 20  1  0
 20 21  1  0
 21 22  1  0
 22 23  1  0
 23 24  1  0
 16 25  1  0
 25 26  1  0
 26 27  1  0
 10  5  1  0
 27 12  1  0
 27 15  1  0
 24 20  1  0
  3 28  1  0
  4 29  1  0
  4 30  1  0
  6 31  1  0
  7 32  1  0
  8 33  1  0
  9 34  1  0
 10 35  1  0
 12 36  1  6
 13 37  1  0
 13 38  1  0
 15 39  1  1
 16 40  1  1
 20 41  1  0
 21 42  1  0
 21 43  1  0
 22 44  1  0
 22 45  1  0
 23 46  1  0
 23 47  1  0
 24 48  1  0
 24 49  1  0
 25 50  1  0
 25 51  1  0
 27 52  1  1
M  END
$$$$
