@<TRIPOS>MOLECULE
*****
 70 74 0 0 0
SMALL
GASTEIGER

@<TRIPOS>ATOM
      1 C          -5.6962   -2.2332    1.8066 C.3     1  UNL1       -0.0634
      2 C          -5.9443   -2.5618    0.3537 C.3     1  UNL1       -0.0317
      3 C          -5.1429   -1.6155   -0.5658 C.3     1  UNL1        0.0874
      4 C          -3.7432   -1.8122   -0.2398 C.2     1  UNL1        0.2345
      5 O          -3.1546   -2.8450   -0.6354 O.2     1  UNL1       -0.2737
      6 N          -3.0031   -0.8777    0.5158 N.am    1  UNL1       -0.2825
      7 C          -1.6210   -1.0749    0.8256 C.ar    1  UNL1        0.0576
      8 C          -1.2483   -1.7253    1.9794 C.ar    1  UNL1       -0.0384
      9 C           0.1104   -1.9217    2.2656 C.ar    1  UNL1       -0.0593
     10 C           1.0770   -1.4785    1.4184 C.ar    1  UNL1       -0.0518
     11 C           0.7307   -0.8215    0.2514 C.ar    1  UNL1        0.0107
     12 C           1.4850   -0.2800   -0.7676 C.ar    1  UNL1        0.0284
     13 C           2.9344   -0.2476   -0.9077 C.ar    1  UNL1        0.1132
     14 N           3.7411    0.2457    0.0267 N.ar    1  UNL1       -0.2113
     15 C           5.1043    0.2615   -0.1434 C.ar    1  UNL1        0.2203
     16 N           5.9194    0.7948    0.8571 N.pl3   1  UNL1       -0.2782
     17 C           7.3242    0.8487    0.7514 C.ar    1  UNL1        0.1152
     18 C           8.1326    0.4049   -0.2618 C.ar    1  UNL1        0.0503
     19 N           9.4173    0.6603    0.0642 N.ar    1  UNL1       -0.2692
     20 C          10.6047    0.3483   -0.7432 C.3     1  UNL1        0.0304
     21 N           9.4250    1.2438    1.2401 N.ar    1  UNL1       -0.1317
     22 C           8.1941    1.3880    1.7106 C.ar    1  UNL1        0.2552
     23 O           7.7396    1.9426    2.8941 O.3     1  UNL1       -0.4774
     24 C           8.6431    2.4855    3.8548 C.3     1  UNL1        0.0805
     25 N           5.6337   -0.2284   -1.2681 N.ar    1  UNL1       -0.2198
     26 C           4.8592   -0.7432   -2.2521 C.ar    1  UNL1        0.0685
     27 C           3.5048   -0.7506   -2.0663 C.ar    1  UNL1        0.1674
     28 F           2.7144   -1.2724   -3.0632 F       1  UNL1       -0.2016
     29 C           0.5444    0.2433   -1.6661 C.ar    1  UNL1        0.0121
     30 N          -0.6932    0.0160   -1.1912 N.ar    1  UNL1       -0.3586
     31 C          -0.6270   -0.6346   -0.0178 C.ar    1  UNL1        0.0686
     32 N          -5.6736   -0.2885   -0.3183 N.3     1  UNL1       -0.2891
     33 C          -7.0859   -0.2833   -0.5414 C.3     1  UNL1        0.0124
     34 C          -7.7227    0.9369   -1.0512 C.3     1  UNL1        0.0114
     35 N          -6.9345    1.8618   -1.7855 N.3     1  UNL1       -0.3029
     36 C          -6.8525    3.1768   -1.1880 C.3     1  UNL1       -0.0127
     37 C          -5.6427    1.3521   -2.1737 C.3     1  UNL1        0.0114
     38 C          -4.9310    0.7409   -0.9864 C.3     1  UNL1        0.0124
     39 H          -5.8294   -1.1331    2.0174 H       1  UNL1        0.0230
     40 H          -6.3826   -2.8318    2.4527 H       1  UNL1        0.0230
     41 H          -4.6704   -2.5348    2.1168 H       1  UNL1        0.0230
     42 H          -5.5787   -3.6105    0.2170 H       1  UNL1        0.0282
     43 H          -7.0094   -2.5727    0.1157 H       1  UNL1        0.0282
     44 H          -5.4075   -1.9456   -1.5964 H       1  UNL1        0.0558
     45 H          -3.4153   -0.0032    0.8998 H       1  UNL1        0.1549
     46 H          -1.9807   -2.0932    2.6802 H       1  UNL1        0.0637
     47 H           0.4282   -2.4352    3.1743 H       1  UNL1        0.0618
     48 H           2.1411   -1.6013    1.5863 H       1  UNL1        0.0624
     49 H           5.4634    1.1670    1.7195 H       1  UNL1        0.1552
     50 H           7.8736   -0.0827   -1.2045 H       1  UNL1        0.0846
     51 H          10.2514   -0.1028   -1.6982 H       1  UNL1        0.0473
     52 H          11.2460   -0.3903   -0.2282 H       1  UNL1        0.0473
     53 H          11.1469    1.2753   -1.0315 H       1  UNL1        0.0473
     54 H           9.2546    1.6653    4.3147 H       1  UNL1        0.0660
     55 H           8.0716    3.0321    4.6259 H       1  UNL1        0.0660
     56 H           9.2844    3.2110    3.3127 H       1  UNL1        0.0660
     57 H           5.2608   -1.1452   -3.1706 H       1  UNL1        0.0861
     58 H           0.8104    0.7346   -2.5689 H       1  UNL1        0.0814
     59 H          -1.6153    0.2858   -1.6325 H       1  UNL1        0.1654
     60 H          -7.5845   -0.6442    0.4066 H       1  UNL1        0.0439
     61 H          -7.2974   -1.1109   -1.2824 H       1  UNL1        0.0439
     62 H          -8.6342    0.7090   -1.6809 H       1  UNL1        0.0439
     63 H          -8.1684    1.4966   -0.1744 H       1  UNL1        0.0439
     64 H          -5.8724    3.6104   -1.5364 H       1  UNL1        0.0391
     65 H          -6.8388    3.1490   -0.0925 H       1  UNL1        0.0391
     66 H          -7.6353    3.8352   -1.6209 H       1  UNL1        0.0391
     67 H          -5.6830    0.6556   -3.0066 H       1  UNL1        0.0439
     68 H          -5.0284    2.2282   -2.4747 H       1  UNL1        0.0439
     69 H          -4.7420    1.5588   -0.2610 H       1  UNL1        0.0439
     70 H          -3.9812    0.3674   -1.3601 H       1  UNL1        0.0439
@<TRIPOS>BOND
     1     1     2    1
     2     2     3    1
     3     3     4    1
     4     4     5    2
     5     4     6   am
     6     6     7    1
     7     7     8   ar
     8     8     9   ar
     9     9    10   ar
    10    10    11   ar
    11    11    12   ar
    12    12    13    1
    13    13    14   ar
    14    14    15   ar
    15    15    16    1
    16    16    17    1
    17    17    18   ar
    18    18    19   ar
    19    19    20    1
    20    19    21   ar
    21    21    22   ar
    22    22    23    1
    23    23    24    1
    24    15    25   ar
    25    25    26   ar
    26    26    27   ar
    27    27    28    1
    28    12    29   ar
    29    29    30   ar
    30    30    31   ar
    31     3    32    1
    32    32    33    1
    33    33    34    1
    34    34    35    1
    35    35    36    1
    36    35    37    1
    37    37    38    1
    38    31     7   ar
    39    38    32    1
    40    31    11   ar
    41    27    13   ar
    42    22    17   ar
    43     1    39    1
    44     1    40    1
    45     1    41    1
    46     2    42    1
    47     2    43    1
    48     3    44    1
    49     6    45    1
    50     8    46    1
    51     9    47    1
    52    10    48    1
    53    16    49    1
    54    18    50    1
    55    20    51    1
    56    20    52    1
    57    20    53    1
    58    24    54    1
    59    24    55    1
    60    24    56    1
    61    26    57    1
    62    29    58    1
    63    30    59    1
    64    33    60    1
    65    33    61    1
    66    34    62    1
    67    34    63    1
    68    36    64    1
    69    36    65    1
    70    36    66    1
    71    37    67    1
    72    37    68    1
    73    38    69    1
    74    38    70    1
