
     RDKit          3D

 52 55  0  0  0  0  0  0  0  0999 V2000
   -6.1320    1.3030   -1.2220 C   0  0  0  0  0  0  0  0  0  0  0  0
   -4.8651    0.7623   -0.5574 C   0  0  0  0  0  0  0  0  0  0  0  0
   -3.8258    0.7085   -1.6978 C   0  0  0  0  0  0  0  0  0  0  0  0
   -4.4321    1.6637    0.3832 O   0  0  0  0  0  0  0  0  0  0  0  0
   -5.1441   -0.5863   -0.0509 C   0  0  0  0  0  0  0  0  0  0  0  0
   -6.4275   -1.0976   -0.2144 C   0  0  0  0  0  0  0  0  0  0  0  0
   -6.6957   -2.3685    0.2238 C   0  0  0  0  0  0  0  0  0  0  0  0
   -5.7069   -3.1310    0.8190 C   0  0  0  0  0  0  0  0  0  0  0  0
   -4.4620   -2.6042    0.9658 C   0  0  0  0  0  0  0  0  0  0  0  0
   -4.1394   -1.3102    0.5346 C   0  0  0  0  0  0  0  0  0  0  0  0
   -2.7835   -0.8362    0.7737 C   0  0  0  0  0  0  0  0  0  0  0  0
   -2.5241    0.0757    1.7617 C   0  0  0  0  0  0  0  0  0  0  0  0
   -1.2402    0.5209    1.9453 C   0  0  0  0  0  0  0  0  0  0  0  0
   -0.2194    0.0603    1.1504 C   0  0  0  0  0  0  0  0  0  0  0  0
    1.1133    0.3646    1.1592 N   0  0  0  0  0  0  0  0  0  0  0  0
    1.7008   -0.3463    0.1871 C   0  0  0  0  0  0  0  0  0  0  0  0
    3.1197   -0.3066   -0.1319 C   0  0  0  0  0  0  0  0  0  0  0  0
    3.9467    0.4540    0.5338 C   0  0  0  0  0  0  0  0  0  0  0  0
    5.3737    0.5756    0.3073 C   0  0  0  0  0  0  0  0  0  0  0  0
    6.0225   -0.1298   -0.6742 C   0  0  0  0  0  0  0  0  0  0  0  0
    7.4024    0.0018   -0.8770 C   0  0  0  0  0  0  0  0  0  0  0  0
    8.1489    0.8503   -0.0891 C   0  0  0  0  0  0  0  0  0  0  0  0
    9.6291    0.9855   -0.3136 C   0  0  0  0  0  0  0  0  0  0  0  0
   10.2997    0.9486    0.8753 F   0  0  0  0  0  0  0  0  0  0  0  0
    9.8481    2.1768   -0.9627 F   0  0  0  0  0  0  0  0  0  0  0  0
   10.0457   -0.0508   -1.1286 F   0  0  0  0  0  0  0  0  0  0  0  0
    7.5048    1.5581    0.8940 C   0  0  0  0  0  0  0  0  0  0  0  0
    6.1485    1.4228    1.0865 C   0  0  0  0  0  0  0  0  0  0  0  0
    0.7370   -1.0900   -0.4240 N   0  0  0  0  0  0  0  0  0  0  0  0
   -0.4405   -0.8575    0.1473 C   0  0  0  0  0  0  0  0  0  0  0  0
   -1.7403   -1.2852   -0.0127 C   0  0  0  0  0  0  0  0  0  0  0  0
   -5.8673    2.3235   -1.6297 H   0  0  0  0  0  0  0  0  0  0  0  0
   -6.3613    0.6312   -2.0598 H   0  0  0  0  0  0  0  0  0  0  0  0
   -6.9573    1.4474   -0.5278 H   0  0  0  0  0  0  0  0  0  0  0  0
   -4.1082    1.4581   -2.4631 H   0  0  0  0  0  0  0  0  0  0  0  0
   -2.8365    1.0467   -1.3181 H   0  0  0  0  0  0  0  0  0  0  0  0
   -3.8013   -0.2740   -2.1766 H   0  0  0  0  0  0  0  0  0  0  0  0
   -5.1781    1.8436    1.0026 H   0  0  0  0  0  0  0  0  0  0  0  0
   -7.2335   -0.5478   -0.6700 H   0  0  0  0  0  0  0  0  0  0  0  0
   -7.6878   -2.7656    0.0982 H   0  0  0  0  0  0  0  0  0  0  0  0
   -5.9689   -4.1304    1.1483 H   0  0  0  0  0  0  0  0  0  0  0  0
   -3.6901   -3.2008    1.4310 H   0  0  0  0  0  0  0  0  0  0  0  0
   -3.3193    0.4514    2.4357 H   0  0  0  0  0  0  0  0  0  0  0  0
   -1.0480    1.2464    2.7337 H   0  0  0  0  0  0  0  0  0  0  0  0
    1.5284    1.0500    1.8439 H   0  0  0  0  0  0  0  0  0  0  0  0
    3.5259   -0.9154   -0.9394 H   0  0  0  0  0  0  0  0  0  0  0  0
    3.4917    1.0518    1.3412 H   0  0  0  0  0  0  0  0  0  0  0  0
    5.4955   -0.7997   -1.3123 H   0  0  0  0  0  0  0  0  0  0  0  0
    7.9138   -0.5573   -1.6543 H   0  0  0  0  0  0  0  0  0  0  0  0
    8.0836    2.2193    1.5087 H   0  0  0  0  0  0  0  0  0  0  0  0
    5.6622    2.0031    1.8817 H   0  0  0  0  0  0  0  0  0  0  0  0
   -1.9057   -2.0141   -0.8120 H   0  0  0  0  0  0  0  0  0  0  0  0
  1  2  1  0
  2  3  1  0
  2  4  1  0
  2  5  1  0
  5  6  2  0
  6  7  1  0
  7  8  2  0
  8  9  1  0
  9 10  2  0
 10 11  1  0
 11 12  2  0
 12 13  1  0
 13 14  2  0
 14 15  1  0
 15 16  1  0
 16 17  1  0
 17 18  2  0
 18 19  1  0
 19 20  2  0
 20 21  1  0
 21 22  2  0
 22 23  1  0
 23 24  1  0
 23 25  1  0
 23 26  1  0
 22 27  1  0
 27 28  2  0
 16 29  2  0
 29 30  1  0
 30 31  2  0
 10  5  1  0
 31 11  1  0
 30 14  1  0
 28 19  1  0
  1 32  1  0
  1 33  1  0
  1 34  1  0
  3 35  1  0
  3 36  1  0
  3 37  1  0
  4 38  1  0
  6 39  1  0
  7 40  1  0
  8 41  1  0
  9 42  1  0
 12 43  1  0
 13 44  1  0
 15 45  1  0
 17 46  1  0
 18 47  1  0
 20 48  1  0
 21 49  1  0
 27 50  1  0
 28 51  1  0
 31 52  1  0
M  END
$$$$
