@<TRIPOS>MOLECULE
*****
 52 55 0 0 0
SMALL
GASTEIGER

@<TRIPOS>ATOM
      1 C          -6.1320    1.3030   -1.2220 C.3     1  UNL1       -0.0321
      2 C          -4.8651    0.7623   -0.5574 C.3     1  UNL1        0.0859
      3 C          -3.8258    0.7085   -1.6978 C.3     1  UNL1       -0.0321
      4 O          -4.4321    1.6637    0.3832 O.3     1  UNL1       -0.3845
      5 C          -5.1441   -0.5863   -0.0509 C.ar    1  UNL1       -0.0089
      6 C          -6.4275   -1.0976   -0.2144 C.ar    1  UNL1       -0.0553
      7 C          -6.6957   -2.3685    0.2238 C.ar    1  UNL1       -0.0614
      8 C          -5.7069   -3.1310    0.8190 C.ar    1  UNL1       -0.0612
      9 C          -4.4620   -2.6042    0.9658 C.ar    1  UNL1       -0.0537
     10 C          -4.1394   -1.3102    0.5346 C.ar    1  UNL1       -0.0119
     11 C          -2.7835   -0.8362    0.7737 C.ar    1  UNL1       -0.0154
     12 C          -2.5241    0.0757    1.7617 C.ar    1  UNL1       -0.0520
     13 C          -1.2402    0.5209    1.9453 C.ar    1  UNL1       -0.0357
     14 C          -0.2194    0.0603    1.1504 C.ar    1  UNL1        0.0665
     15 N           1.1133    0.3646    1.1592 N.ar    1  UNL1       -0.3383
     16 C           1.7008   -0.3463    0.1871 C.ar    1  UNL1        0.1321
     17 C           3.1197   -0.3066   -0.1319 C.2     1  UNL1       -0.0188
     18 C           3.9467    0.4540    0.5338 C.2     1  UNL1       -0.0511
     19 C           5.3737    0.5756    0.3073 C.ar    1  UNL1       -0.0249
     20 C           6.0225   -0.1298   -0.6742 C.ar    1  UNL1       -0.0541
     21 C           7.4024    0.0018   -0.8770 C.ar    1  UNL1       -0.0496
     22 C           8.1489    0.8503   -0.0891 C.ar    1  UNL1        0.0548
     23 C           9.6291    0.9855   -0.3136 C.3     1  UNL1        0.4174
     24 F          10.2997    0.9486    0.8753 F       1  UNL1       -0.1659
     25 F           9.8481    2.1768   -0.9627 F       1  UNL1       -0.1659
     26 F          10.0457   -0.0508   -1.1286 F       1  UNL1       -0.1659
     27 C           7.5048    1.5581    0.8940 C.ar    1  UNL1       -0.0496
     28 C           6.1485    1.4228    1.0865 C.ar    1  UNL1       -0.0541
     29 N           0.7370   -1.0900   -0.4240 N.ar    1  UNL1       -0.2283
     30 C          -0.4405   -0.8575    0.1473 C.ar    1  UNL1        0.0900
     31 C          -1.7403   -1.2852   -0.0127 C.ar    1  UNL1       -0.0265
     32 H          -5.8673    2.3235   -1.6297 H       1  UNL1        0.0260
     33 H          -6.3613    0.6312   -2.0598 H       1  UNL1        0.0260
     34 H          -6.9573    1.4474   -0.5278 H       1  UNL1        0.0260
     35 H          -4.1082    1.4581   -2.4631 H       1  UNL1        0.0260
     36 H          -2.8365    1.0467   -1.3181 H       1  UNL1        0.0260
     37 H          -3.8013   -0.2740   -2.1766 H       1  UNL1        0.0260
     38 H          -5.1781    1.8436    1.0026 H       1  UNL1        0.2106
     39 H          -7.2335   -0.5478   -0.6700 H       1  UNL1        0.0621
     40 H          -7.6878   -2.7656    0.0982 H       1  UNL1        0.0618
     41 H          -5.9689   -4.1304    1.1483 H       1  UNL1        0.0618
     42 H          -3.6901   -3.2008    1.4310 H       1  UNL1        0.0624
     43 H          -3.3193    0.4514    2.4357 H       1  UNL1        0.0624
     44 H          -1.0480    1.2464    2.7337 H       1  UNL1        0.0639
     45 H           1.5284    1.0500    1.8439 H       1  UNL1        0.1674
     46 H           3.5259   -0.9154   -0.9394 H       1  UNL1        0.0654
     47 H           3.4917    1.0518    1.3412 H       1  UNL1        0.0625
     48 H           5.4955   -0.7997   -1.3123 H       1  UNL1        0.0624
     49 H           7.9138   -0.5573   -1.6543 H       1  UNL1        0.0623
     50 H           8.0836    2.2193    1.5087 H       1  UNL1        0.0623
     51 H           5.6622    2.0031    1.8817 H       1  UNL1        0.0624
     52 H          -1.9057   -2.0141   -0.8120 H       1  UNL1        0.0645
@<TRIPOS>BOND
     1     1     2    1
     2     2     3    1
     3     2     4    1
     4     2     5    1
     5     5     6   ar
     6     6     7   ar
     7     7     8   ar
     8     8     9   ar
     9     9    10   ar
    10    10    11    1
    11    11    12   ar
    12    12    13   ar
    13    13    14   ar
    14    14    15   ar
    15    15    16   ar
    16    16    17    1
    17    17    18    2
    18    18    19    1
    19    19    20   ar
    20    20    21   ar
    21    21    22   ar
    22    22    23    1
    23    23    24    1
    24    23    25    1
    25    23    26    1
    26    22    27   ar
    27    27    28   ar
    28    16    29   ar
    29    29    30   ar
    30    30    31   ar
    31    10     5   ar
    32    31    11   ar
    33    30    14   ar
    34    28    19   ar
    35     1    32    1
    36     1    33    1
    37     1    34    1
    38     3    35    1
    39     3    36    1
    40     3    37    1
    41     4    38    1
    42     6    39    1
    43     7    40    1
    44     8    41    1
    45     9    42    1
    46    12    43    1
    47    13    44    1
    48    15    45    1
    49    17    46    1
    50    18    47    1
    51    20    48    1
    52    21    49    1
    53    27    50    1
    54    28    51    1
    55    31    52    1
