@<TRIPOS>MOLECULE
*****
 46 49 0 0 0
SMALL
GASTEIGER

@<TRIPOS>ATOM
      1 N           7.9078    1.7123    0.4323 N.pl3   1  UNL1       -0.2497
      2 C           7.0457    0.7247    0.9775 C.2     1  UNL1        0.2662
      3 N           7.3939   -0.3595    1.6215 N.2     1  UNL1       -0.2884
      4 C           5.6355    0.9800    0.7791 C.ar    1  UNL1        0.0615
      5 C           5.0528    2.2269    0.6821 C.ar    1  UNL1       -0.0451
      6 C           3.7012    2.4262    0.4926 C.ar    1  UNL1       -0.0370
      7 C           2.8764    1.3242    0.3930 C.ar    1  UNL1        0.0470
      8 N           1.5576    1.1497    0.2129 N.ar    1  UNL1       -0.3542
      9 C           1.1930   -0.1416    0.1794 C.ar    1  UNL1        0.0470
     10 C           2.3763   -0.8278    0.3521 C.ar    1  UNL1       -0.0287
     11 C           3.4195    0.0611    0.4847 C.ar    1  UNL1        0.0011
     12 C           4.7770   -0.1036    0.6746 C.ar    1  UNL1       -0.0378
     13 C          -0.1127   -0.7594    0.0070 C.ar    1  UNL1       -0.0059
     14 C          -0.2002   -2.1510    0.0132 C.ar    1  UNL1       -0.0530
     15 C          -1.3817   -2.8400   -0.1411 C.ar    1  UNL1       -0.0577
     16 C          -2.5122   -2.0755   -0.3075 C.ar    1  UNL1       -0.0205
     17 C          -2.5439   -0.7012   -0.3300 C.ar    1  UNL1        0.1139
     18 O          -3.6132    0.1446   -0.4890 O.3     1  UNL1       -0.4894
     19 C          -4.9348   -0.2787   -0.6661 C.3     1  UNL1        0.1002
     20 C          -5.5485    0.3047   -1.9259 C.3     1  UNL1       -0.0158
     21 C          -6.4324    1.4419   -1.4612 C.3     1  UNL1       -0.0496
     22 C          -7.0387    0.8383   -0.2089 C.3     1  UNL1       -0.0496
     23 C          -5.8437    0.1880    0.4546 C.3     1  UNL1       -0.0158
     24 C          -1.2960   -0.0835   -0.1655 C.ar    1  UNL1       -0.0560
     25 O          -1.2448    1.3242   -0.1770 O.co2   1  UNL1       -0.8709
     26 H           8.3832    1.3168   -0.4270 H       1  UNL1        0.2883
     27 H           8.3488    1.2648   -0.4128 H       1  UNL1        0.2883
     28 H           6.8375   -1.1473    2.0610 H       1  UNL1        0.3009
     29 H           8.4072   -0.5539    1.7704 H       1  UNL1        0.3009
     30 H           5.7516    3.0620    0.7678 H       1  UNL1        0.0627
     31 H           3.2881    3.4212    0.4224 H       1  UNL1        0.0638
     32 H           0.9392    1.9623    0.1167 H       1  UNL1        0.1659
     33 H           2.5343   -1.8990    0.3880 H       1  UNL1        0.0645
     34 H           5.1842   -1.0910    0.7439 H       1  UNL1        0.0632
     35 H           0.7019   -2.7621    0.1460 H       1  UNL1        0.0624
     36 H          -1.4274   -3.9018   -0.1335 H       1  UNL1        0.0619
     37 H          -3.4433   -2.5945   -0.4294 H       1  UNL1        0.0654
     38 H          -4.9924   -1.3816   -0.6595 H       1  UNL1        0.0733
     39 H          -6.1500   -0.4945   -2.3832 H       1  UNL1        0.0301
     40 H          -4.8051    0.7647   -2.6051 H       1  UNL1        0.0301
     41 H          -5.8075    2.3072   -1.1942 H       1  UNL1        0.0266
     42 H          -7.1742    1.6297   -2.2451 H       1  UNL1        0.0266
     43 H          -7.4928    1.6108    0.4609 H       1  UNL1        0.0266
     44 H          -7.8021    0.0906   -0.4945 H       1  UNL1        0.0266
     45 H          -6.1904   -0.6374    1.1003 H       1  UNL1        0.0301
     46 H          -5.3249    0.9312    1.1224 H       1  UNL1        0.0301
@<TRIPOS>UNITY_ATOM_ATTR
3 1
charge 1
25 1
charge -1
@<TRIPOS>BOND
     1     1     2    1
     2     2     3    2
     3     2     4    1
     4     4     5   ar
     5     5     6   ar
     6     6     7   ar
     7     7     8   ar
     8     8     9   ar
     9     9    10   ar
    10    10    11   ar
    11    11    12   ar
    12     9    13    1
    13    13    14   ar
    14    14    15   ar
    15    15    16   ar
    16    16    17   ar
    17    17    18    1
    18    18    19    1
    19    19    20    1
    20    20    21    1
    21    21    22    1
    22    22    23    1
    23    17    24   ar
    24    24    25    1
    25    12     4   ar
    26    24    13   ar
    27    11     7   ar
    28    23    19    1
    29     1    26    1
    30     1    27    1
    31     3    28    1
    32     3    29    1
    33     5    30    1
    34     6    31    1
    35     8    32    1
    36    10    33    1
    37    12    34    1
    38    14    35    1
    39    15    36    1
    40    16    37    1
    41    19    38    1
    42    20    39    1
    43    20    40    1
    44    21    41    1
    45    21    42    1
    46    22    43    1
    47    22    44    1
    48    23    45    1
    49    23    46    1
