@<TRIPOS>MOLECULE
*****
 43 45 0 0 0
SMALL
GASTEIGER

@<TRIPOS>ATOM
      1 C          -0.2676    0.1400   -0.2375 C.2     1  UNL1       -0.0459
      2 C          -1.1889    1.0417    0.1379 C.2     1  UNL1       -0.0211
      3 C          -1.0013    2.3696    0.7632 C.3     1  UNL1       -0.0240
      4 C          -1.6402    3.4061   -0.1289 C.3     1  UNL1       -0.0293
      5 C          -2.8136    2.9379   -0.8978 C.3     1  UNL1        0.0407
      6 N          -3.3095    1.6337   -0.6406 N.2     1  UNL1       -0.2830
      7 C          -2.5922    0.6568   -0.1407 C.2     1  UNL1        0.0702
      8 C          -3.1161   -0.6720    0.0724 C.ar    1  UNL1        0.0183
      9 C          -2.5944   -1.8067    0.6318 C.ar    1  UNL1        0.0367
     10 N          -3.2155   -2.9904    0.7135 N.ar    1  UNL1       -0.2626
     11 C          -4.4625   -3.1843    0.2353 C.ar    1  UNL1        0.0276
     12 C          -5.0581   -2.0873   -0.3432 C.ar    1  UNL1       -0.0430
     13 C          -4.4154   -0.8723   -0.4251 C.ar    1  UNL1       -0.0497
     14 C           1.1676    0.2536   -0.1195 C.ar    1  UNL1        0.0172
     15 C           1.8870   -0.7956    0.4055 C.ar    1  UNL1        0.1307
     16 O           1.1948   -1.9204    0.8278 O.3     1  UNL1       -0.4944
     17 C           1.8718   -3.0242    1.3747 C.3     1  UNL1        0.0788
     18 C           3.2457   -0.6894    0.4903 C.ar    1  UNL1        0.0223
     19 C           3.9438    0.4235    0.0743 C.ar    1  UNL1        0.1236
     20 O           5.3126    0.5973    0.1300 O.3     1  UNL1       -0.4950
     21 C           6.1887   -0.3693    0.6337 C.3     1  UNL1        0.0788
     22 C           3.2088    1.4834   -0.4571 C.ar    1  UNL1       -0.0192
     23 C           1.8194    1.4080   -0.5582 C.ar    1  UNL1       -0.0476
     24 H          -0.5532   -0.8133   -0.7128 H       1  UNL1        0.0628
     25 H          -1.4968    2.4422    1.7683 H       1  UNL1        0.0314
     26 H           0.0516    2.6027    0.9229 H       1  UNL1        0.0314
     27 H          -1.8551    4.2760    0.5213 H       1  UNL1        0.0286
     28 H          -0.8116    3.7589   -0.8061 H       1  UNL1        0.0286
     29 H          -3.6668    3.6468   -0.6742 H       1  UNL1        0.0508
     30 H          -2.6167    3.1209   -1.9921 H       1  UNL1        0.0508
     31 H          -1.6209   -1.6819    1.0444 H       1  UNL1        0.0836
     32 H          -4.8856   -4.1600    0.3406 H       1  UNL1        0.0829
     33 H          -6.0615   -2.2371   -0.7296 H       1  UNL1        0.0633
     34 H          -4.9951   -0.0917   -0.9031 H       1  UNL1        0.0625
     35 H           2.6152   -2.6948    2.1241 H       1  UNL1        0.0660
     36 H           1.1812   -3.7190    1.9099 H       1  UNL1        0.0660
     37 H           2.3898   -3.6163    0.6135 H       1  UNL1        0.0660
     38 H           3.7935   -1.5049    0.8974 H       1  UNL1        0.0691
     39 H           7.1615   -0.3775    0.0750 H       1  UNL1        0.0660
     40 H           5.7902   -1.3901    0.5749 H       1  UNL1        0.0660
     41 H           6.3563   -0.1546    1.7152 H       1  UNL1        0.0660
     42 H           3.7228    2.3845   -0.7979 H       1  UNL1        0.0654
     43 H           1.3365    2.2694   -0.9921 H       1  UNL1        0.0626
@<TRIPOS>BOND
     1     1     2    2
     2     2     3    1
     3     3     4    1
     4     4     5    1
     5     5     6    1
     6     6     7    2
     7     7     8    1
     8     8     9   ar
     9     9    10   ar
    10    10    11   ar
    11    11    12   ar
    12    12    13   ar
    13     1    14    1
    14    14    15   ar
    15    15    16    1
    16    16    17    1
    17    15    18   ar
    18    18    19   ar
    19    19    20    1
    20    20    21    1
    21    19    22   ar
    22    22    23   ar
    23     7     2    1
    24    13     8   ar
    25    23    14   ar
    26     1    24    1
    27     3    25    1
    28     3    26    1
    29     4    27    1
    30     4    28    1
    31     5    29    1
    32     5    30    1
    33     9    31    1
    34    11    32    1
    35    12    33    1
    36    13    34    1
    37    17    35    1
    38    17    36    1
    39    17    37    1
    40    18    38    1
    41    21    39    1
    42    21    40    1
    43    21    41    1
    44    22    42    1
    45    23    43    1
