
     RDKit          3D

 47 50  0  0  0  0  0  0  0  0999 V2000
   -4.2359    1.1380   -2.5001 O   0  0  0  0  0  0  0  0  0  0  0  0
   -3.5737    0.7109   -1.5099 C   0  0  0  0  0  0  0  0  0  0  0  0
   -2.2433    0.5475   -1.5899 N   0  0  0  0  0  0  0  0  0  0  0  0
   -1.4938    0.0930   -0.5550 C   0  0  0  0  0  0  0  0  0  0  0  0
   -0.0961   -0.0550   -0.7092 N   0  0  0  0  0  0  0  0  0  0  0  0
    0.6658   -0.5378    0.4049 C   0  0  0  0  0  0  0  0  0  0  0  0
    2.0750   -0.0285    0.4187 C   0  0  0  0  0  0  0  0  0  0  0  0
    2.7234    0.0414   -0.8269 N   0  0  0  0  0  0  0  0  0  0  0  0
    3.8336    0.9202   -0.9168 C   0  0  0  0  0  0  0  0  0  0  0  0
    4.8658    0.4879    0.0616 C   0  0  0  0  0  0  0  0  0  0  0  0
    4.8987    0.9657    1.3558 C   0  0  0  0  0  0  0  0  0  0  0  0
    5.8723    0.5390    2.2310 C   0  0  0  0  0  0  0  0  0  0  0  0
    6.8104   -0.3442    1.8614 N   0  0  0  0  0  0  0  0  0  0  0  0
    6.8124   -0.8379    0.5968 C   0  0  0  0  0  0  0  0  0  0  0  0
    5.8414   -0.4198   -0.2955 C   0  0  0  0  0  0  0  0  0  0  0  0
    1.9797   -0.1574   -2.0076 C   0  0  0  0  0  0  0  0  0  0  0  0
    0.5384    0.2681   -1.9433 C   0  0  0  0  0  0  0  0  0  0  0  0
   -2.1265   -0.2077    0.6103 N   0  0  0  0  0  0  0  0  0  0  0  0
   -3.4512   -0.0733    0.7743 C   0  0  0  0  0  0  0  0  0  0  0  0
   -4.1681    0.3926   -0.3084 C   0  0  0  0  0  0  0  0  0  0  0  0
   -5.6350    0.5394   -0.1205 C   0  0  0  0  0  0  0  0  0  0  0  0
   -6.1441   -0.7401    0.4781 C   0  0  0  0  0  0  0  0  0  0  0  0
   -5.3920   -1.2057    1.6764 C   0  0  0  0  0  0  0  0  0  0  0  0
   -4.1832   -0.3864    2.0189 C   0  0  0  0  0  0  0  0  0  0  0  0
   -1.7133    0.7720   -2.4845 H   0  0  0  0  0  0  0  0  0  0  0  0
    0.1231   -0.3746    1.3363 H   0  0  0  0  0  0  0  0  0  0  0  0
    0.7391   -1.6594    0.2875 H   0  0  0  0  0  0  0  0  0  0  0  0
    2.0252    1.0159    0.8469 H   0  0  0  0  0  0  0  0  0  0  0  0
    2.6582   -0.6185    1.1541 H   0  0  0  0  0  0  0  0  0  0  0  0
    4.2967    0.8434   -1.9180 H   0  0  0  0  0  0  0  0  0  0  0  0
    3.5762    1.9869   -0.7564 H   0  0  0  0  0  0  0  0  0  0  0  0
    4.1629    1.6816    1.7043 H   0  0  0  0  0  0  0  0  0  0  0  0
    5.9127    0.9092    3.2643 H   0  0  0  0  0  0  0  0  0  0  0  0
    7.5788   -1.5488    0.3220 H   0  0  0  0  0  0  0  0  0  0  0  0
    5.8836   -0.8427   -1.2965 H   0  0  0  0  0  0  0  0  0  0  0  0
    2.0377   -1.2364   -2.3119 H   0  0  0  0  0  0  0  0  0  0  0  0
    2.4483    0.4273   -2.8345 H   0  0  0  0  0  0  0  0  0  0  0  0
    0.4108    1.3380   -2.1814 H   0  0  0  0  0  0  0  0  0  0  0  0
    0.0085   -0.3010   -2.7612 H   0  0  0  0  0  0  0  0  0  0  0  0
   -6.1607    0.7413   -1.0557 H   0  0  0  0  0  0  0  0  0  0  0  0
   -5.7857    1.3372    0.6470 H   0  0  0  0  0  0  0  0  0  0  0  0
   -6.0493   -1.5336   -0.3180 H   0  0  0  0  0  0  0  0  0  0  0  0
   -7.2367   -0.6413    0.6479 H   0  0  0  0  0  0  0  0  0  0  0  0
   -6.0719   -1.1875    2.5530 H   0  0  0  0  0  0  0  0  0  0  0  0
   -5.0429   -2.2642    1.5626 H   0  0  0  0  0  0  0  0  0  0  0  0
   -3.4949   -1.0245    2.6366 H   0  0  0  0  0  0  0  0  0  0  0  0
   -4.4805    0.5297    2.5696 H   0  0  0  0  0  0  0  0  0  0  0  0
  1  2  2  0
  2  3  1  0
  3  4  1  0
  4  5  1  0
  5  6  1  0
  6  7  1  0
  7  8  1  0
  8  9  1  0
  9 10  1  0
 10 11  2  0
 11 12  1  0
 12 13  2  0
 13 14  1  0
 14 15  2  0
  8 16  1  0
 16 17  1  0
  4 18  2  0
 18 19  1  0
 19 20  2  0
 20 21  1  0
 21 22  1  0
 22 23  1  0
 23 24  1  0
 20  2  1  0
 17  5  1  0
 24 19  1  0
 15 10  1  0
  3 25  1  0
  6 26  1  0
  6 27  1  0
  7 28  1  0
  7 29  1  0
  9 30  1  0
  9 31  1  0
 11 32  1  0
 12 33  1  0
 14 34  1  0
 15 35  1  0
 16 36  1  0
 16 37  1  0
 17 38  1  0
 17 39  1  0
 21 40  1  0
 21 41  1  0
 22 42  1  0
 22 43  1  0
 23 44  1  0
 23 45  1  0
 24 46  1  0
 24 47  1  0
M  END
$$$$
