@<TRIPOS>MOLECULE
*****
 47 50 0 0 0
SMALL
GASTEIGER

@<TRIPOS>ATOM
      1 O          -4.2359    1.1380   -2.5001 O.2     1  UNL1       -0.2675
      2 C          -3.5737    0.7109   -1.5099 C.ar    1  UNL1        0.2561
      3 N          -2.2433    0.5475   -1.5899 N.ar    1  UNL1       -0.2947
      4 C          -1.4938    0.0930   -0.5550 C.ar    1  UNL1        0.1985
      5 N          -0.0961   -0.0550   -0.7092 N.pl3   1  UNL1       -0.2986
      6 C           0.6658   -0.5378    0.4049 C.3     1  UNL1        0.0276
      7 C           2.0750   -0.0285    0.4187 C.3     1  UNL1        0.0151
      8 N           2.7234    0.0414   -0.8269 N.3     1  UNL1       -0.2952
      9 C           3.8336    0.9202   -0.9168 C.3     1  UNL1        0.0242
     10 C           4.8658    0.4879    0.0616 C.ar    1  UNL1       -0.0305
     11 C           4.8987    0.9657    1.3558 C.ar    1  UNL1       -0.0392
     12 C           5.8723    0.5390    2.2310 C.ar    1  UNL1        0.0278
     13 N           6.8104   -0.3442    1.8614 N.ar    1  UNL1       -0.2632
     14 C           6.8124   -0.8379    0.5968 C.ar    1  UNL1        0.0278
     15 C           5.8414   -0.4198   -0.2955 C.ar    1  UNL1       -0.0392
     16 C           1.9797   -0.1574   -2.0076 C.3     1  UNL1        0.0151
     17 C           0.5384    0.2681   -1.9433 C.3     1  UNL1        0.0276
     18 N          -2.1265   -0.2077    0.6103 N.ar    1  UNL1       -0.2204
     19 C          -3.4512   -0.0733    0.7743 C.ar    1  UNL1        0.0531
     20 C          -4.1681    0.3926   -0.3084 C.ar    1  UNL1        0.0383
     21 C          -5.6350    0.5394   -0.1205 C.3     1  UNL1       -0.0208
     22 C          -6.1441   -0.7401    0.4781 C.3     1  UNL1       -0.0485
     23 C          -5.3920   -1.2057    1.6764 C.3     1  UNL1       -0.0473
     24 C          -4.1832   -0.3864    2.0189 C.3     1  UNL1       -0.0098
     25 H          -1.7133    0.7720   -2.4845 H       1  UNL1        0.1716
     26 H           0.1231   -0.3746    1.3363 H       1  UNL1        0.0477
     27 H           0.7391   -1.6594    0.2875 H       1  UNL1        0.0477
     28 H           2.0252    1.0159    0.8469 H       1  UNL1        0.0442
     29 H           2.6582   -0.6185    1.1541 H       1  UNL1        0.0442
     30 H           4.2967    0.8434   -1.9180 H       1  UNL1        0.0476
     31 H           3.5762    1.9869   -0.7564 H       1  UNL1        0.0476
     32 H           4.1629    1.6816    1.7043 H       1  UNL1        0.0636
     33 H           5.9127    0.9092    3.2643 H       1  UNL1        0.0829
     34 H           7.5788   -1.5488    0.3220 H       1  UNL1        0.0829
     35 H           5.8836   -0.8427   -1.2965 H       1  UNL1        0.0636
     36 H           2.0377   -1.2364   -2.3119 H       1  UNL1        0.0442
     37 H           2.4483    0.4273   -2.8345 H       1  UNL1        0.0442
     38 H           0.4108    1.3380   -2.1814 H       1  UNL1        0.0477
     39 H           0.0085   -0.3010   -2.7612 H       1  UNL1        0.0477
     40 H          -6.1607    0.7413   -1.0557 H       1  UNL1        0.0315
     41 H          -5.7857    1.3372    0.6470 H       1  UNL1        0.0315
     42 H          -6.0493   -1.5336   -0.3180 H       1  UNL1        0.0269
     43 H          -7.2367   -0.6413    0.6479 H       1  UNL1        0.0269
     44 H          -6.0719   -1.1875    2.5530 H       1  UNL1        0.0269
     45 H          -5.0429   -2.2642    1.5626 H       1  UNL1        0.0269
     46 H          -3.4949   -1.0245    2.6366 H       1  UNL1        0.0328
     47 H          -4.4805    0.5297    2.5696 H       1  UNL1        0.0328
@<TRIPOS>BOND
     1     1     2    2
     2     2     3   ar
     3     3     4   ar
     4     4     5    1
     5     5     6    1
     6     6     7    1
     7     7     8    1
     8     8     9    1
     9     9    10    1
    10    10    11   ar
    11    11    12   ar
    12    12    13   ar
    13    13    14   ar
    14    14    15   ar
    15     8    16    1
    16    16    17    1
    17     4    18   ar
    18    18    19   ar
    19    19    20   ar
    20    20    21    1
    21    21    22    1
    22    22    23    1
    23    23    24    1
    24    20     2   ar
    25    17     5    1
    26    24    19    1
    27    15    10   ar
    28     3    25    1
    29     6    26    1
    30     6    27    1
    31     7    28    1
    32     7    29    1
    33     9    30    1
    34     9    31    1
    35    11    32    1
    36    12    33    1
    37    14    34    1
    38    15    35    1
    39    16    36    1
    40    16    37    1
    41    17    38    1
    42    17    39    1
    43    21    40    1
    44    21    41    1
    45    22    42    1
    46    22    43    1
    47    23    44    1
    48    23    45    1
    49    24    46    1
    50    24    47    1
