@<TRIPOS>MOLECULE
*****
 28 27 0 0 0
SMALL
GASTEIGER

@<TRIPOS>ATOM
      1 C1          3.0746    0.0959    0.5903 C.3     1  <1>         0.1273
      2 N1          4.2043    0.5857   -0.1647 N.3     1  <1>        -0.3166
      3 C2          1.8121    0.8199    0.1680 C.3     1  <1>         0.0846
      4 O1          0.7445    0.3137    0.9246 O.3     1  <1>        -0.2845
      5 P1         -0.6247    1.1669    0.3997 P.3     1  <1>         0.4752
      6 O2         -0.7667    2.6320    1.2590 O.3     1  <1>        -0.3025
      7 O3         -0.5798    1.4618   -1.0833 O.2     1  <1>        -0.2273
      8 O4         -1.9999    0.2685    0.7477 O.3     1  <1>        -0.2839
      9 C3         -2.5693   -0.2177   -0.4080 C.3     1  <1>         0.0645
     10 C4         -2.6533   -1.7426   -0.3724 C.3     1  <1>        -0.0384
     11 C5         -3.9860    0.2788   -0.6180 C.3     1  <1>        -0.0384
     12 C6          2.9496   -1.3445    0.2749 C.2     1  <1>         0.3240
     13 O5          2.2082   -2.4597    0.5418 O.3     1  <1>        -0.4795
     14 O6          3.8886   -1.5861   -0.5390 O.2     1  <1>        -0.2492
     15 H1          3.1844    0.2151    1.6824 H       1  <1>         0.0597
     16 H2          3.9286    1.4648   -0.6571 H       1  <1>         0.1190
     17 H3          4.9754    0.7706    0.4950 H       1  <1>         0.1190
     18 H4          1.9138    1.9076    0.3195 H       1  <1>         0.0587
     19 H5          1.5698    0.5838   -0.8818 H       1  <1>         0.0587
     20 H6          0.0584    2.7681    1.7715 H       1  <1>         0.2220
     21 H7         -1.9962    0.0889   -1.3216 H       1  <1>         0.0596
     22 H8         -2.7371   -2.1338   -1.4027 H       1  <1>         0.0255
     23 H9         -3.5565   -1.9781    0.2451 H       1  <1>         0.0255
     24 H10        -1.7606   -2.1657    0.1103 H       1  <1>         0.0255
     25 H11        -4.4044    0.5889    0.3756 H       1  <1>         0.0255
     26 H12        -4.6163   -0.5044   -1.0839 H       1  <1>         0.0255
     27 H13        -4.0326    1.1475   -1.3213 H       1  <1>         0.0255
     28 H14         1.7712   -3.0260   -0.1863 H       1  <1>         0.2951
@<TRIPOS>BOND
     1     1     2    1
     2     1     3    1
     3     3     4    1
     4     4     5    1
     5     5     6    1
     6     5     7    2
     7     5     8    1
     8     8     9    1
     9     9    10    1
    10     9    11    1
    11     1    12    1
    12    12    13    1
    13    12    14    2
    14     1    15    1
    15     2    16    1
    16     2    17    1
    17     3    18    1
    18     3    19    1
    19     6    20    1
    20     9    21    1
    21    10    22    1
    22    10    23    1
    23    10    24    1
    24    11    25    1
    25    11    26    1
    26    11    27    1
    27    13    28    1
