
     RDKit          3D

 28 27  0  0  0  0  0  0  0  0999 V2000
    3.0746    0.0959    0.5903 C   0  0  1  0  0  0  0  0  0  0  0  0
    4.2043    0.5857   -0.1647 N   0  0  0  0  0  0  0  0  0  0  0  0
    1.8121    0.8199    0.1680 C   0  0  0  0  0  0  0  0  0  0  0  0
    0.7445    0.3137    0.9246 O   0  0  0  0  0  0  0  0  0  0  0  0
   -0.6247    1.1669    0.3997 P   0  0  0  0  0  0  0  0  0  0  0  0
   -0.7667    2.6320    1.2590 O   0  0  0  0  0  0  0  0  0  0  0  0
   -0.5798    1.4618   -1.0833 O   0  0  0  0  0  0  0  0  0  0  0  0
   -1.9999    0.2685    0.7477 O   0  0  0  0  0  0  0  0  0  0  0  0
   -2.5693   -0.2177   -0.4080 C   0  0  0  0  0  0  0  0  0  0  0  0
   -2.6533   -1.7426   -0.3724 C   0  0  0  0  0  0  0  0  0  0  0  0
   -3.9860    0.2788   -0.6180 C   0  0  0  0  0  0  0  0  0  0  0  0
    2.9496   -1.3445    0.2749 C   0  0  0  0  0  0  0  0  0  0  0  0
    2.2082   -2.4597    0.5418 O   0  0  0  0  0  0  0  0  0  0  0  0
    3.8886   -1.5861   -0.5390 O   0  0  0  0  0  0  0  0  0  0  0  0
    3.1844    0.2151    1.6824 H   0  0  0  0  0  0  0  0  0  0  0  0
    3.9286    1.4648   -0.6571 H   0  0  0  0  0  0  0  0  0  0  0  0
    4.9754    0.7706    0.4950 H   0  0  0  0  0  0  0  0  0  0  0  0
    1.9138    1.9076    0.3195 H   0  0  0  0  0  0  0  0  0  0  0  0
    1.5698    0.5838   -0.8818 H   0  0  0  0  0  0  0  0  0  0  0  0
    0.0584    2.7681    1.7715 H   0  0  0  0  0  0  0  0  0  0  0  0
   -1.9962    0.0889   -1.3216 H   0  0  0  0  0  0  0  0  0  0  0  0
   -2.7371   -2.1338   -1.4027 H   0  0  0  0  0  0  0  0  0  0  0  0
   -3.5565   -1.9781    0.2451 H   0  0  0  0  0  0  0  0  0  0  0  0
   -1.7606   -2.1657    0.1103 H   0  0  0  0  0  0  0  0  0  0  0  0
   -4.4044    0.5889    0.3756 H   0  0  0  0  0  0  0  0  0  0  0  0
   -4.6163   -0.5044   -1.0839 H   0  0  0  0  0  0  0  0  0  0  0  0
   -4.0326    1.1475   -1.3213 H   0  0  0  0  0  0  0  0  0  0  0  0
    1.7712   -3.0260   -0.1863 H   0  0  0  0  0  0  0  0  0  0  0  0
  1  2  1  0
  1  3  1  0
  3  4  1  0
  4  5  1  0
  5  6  1  0
  5  7  2  0
  5  8  1  0
  8  9  1  0
  9 10  1  0
  9 11  1  0
  1 12  1  0
 12 13  1  0
 12 14  2  0
  1 15  1  1
  2 16  1  0
  2 17  1  0
  3 18  1  0
  3 19  1  0
  6 20  1  0
  9 21  1  0
 10 22  1  0
 10 23  1  0
 10 24  1  0
 11 25  1  0
 11 26  1  0
 11 27  1  0
 13 28  1  0
M  END
$$$$
