
     RDKit          3D

 49 53  0  0  0  0  0  0  0  0999 V2000
   -7.6538    1.9127    0.1106 C   0  0  0  0  0  0  0  0  0  0  0  0
   -6.7748    0.8690    0.7895 C   0  0  0  0  0  0  0  0  0  0  0  0
   -7.7370   -0.0629    1.5196 C   0  0  0  0  0  0  0  0  0  0  0  0
   -6.0027    0.1538   -0.1089 O   0  0  0  0  0  0  0  0  0  0  0  0
   -4.6517   -0.0003   -0.1626 C   0  0  0  0  0  0  0  0  0  0  0  0
   -4.1177   -0.7766   -1.1729 C   0  0  0  0  0  0  0  0  0  0  0  0
   -2.7665   -0.9388   -1.2379 C   0  0  0  0  0  0  0  0  0  0  0  0
   -1.9053   -0.3617   -0.3389 C   0  0  0  0  0  0  0  0  0  0  0  0
   -0.4586   -0.5467   -0.4234 C   0  0  0  0  0  0  0  0  0  0  0  0
    0.3456   -0.5515    0.6984 C   0  0  0  0  0  0  0  0  0  0  0  0
    1.6734   -0.7222    0.6147 N   0  0  0  0  0  0  0  0  0  0  0  0
    2.2330   -0.8916   -0.5798 C   0  0  0  0  0  0  0  0  0  0  0  0
    3.5515   -1.0836   -0.9301 C   0  0  0  0  0  0  0  0  0  0  0  0
    4.7277   -1.1560   -0.0722 C   0  0  0  0  0  0  0  0  0  0  0  0
    5.1848   -2.3421    0.4634 C   0  0  0  0  0  0  0  0  0  0  0  0
    6.2965   -2.3697    1.2674 C   0  0  0  0  0  0  0  0  0  0  0  0
    6.9582   -1.2345    1.5450 N   0  0  0  0  0  0  0  0  0  0  0  0
    6.5455   -0.0559    1.0426 C   0  0  0  0  0  0  0  0  0  0  0  0
    7.2363    1.1121    1.3352 C   0  0  0  0  0  0  0  0  0  0  0  0
    6.8124    2.3151    0.8204 C   0  0  0  0  0  0  0  0  0  0  0  0
    5.6956    2.3479    0.0118 C   0  0  0  0  0  0  0  0  0  0  0  0
    4.9897    1.2018   -0.2954 C   0  0  0  0  0  0  0  0  0  0  0  0
    5.4339    0.0053    0.2329 C   0  0  0  0  0  0  0  0  0  0  0  0
    3.5555   -1.1997   -2.3034 C   0  0  0  0  0  0  0  0  0  0  0  0
    2.2745   -1.0782   -2.7357 N   0  0  0  0  0  0  0  0  0  0  0  0
    1.4628   -0.8911   -1.7026 N   0  0  0  0  0  0  0  0  0  0  0  0
    0.1296   -0.7230   -1.6578 C   0  0  0  0  0  0  0  0  0  0  0  0
   -2.4359    0.4068    0.6610 C   0  0  0  0  0  0  0  0  0  0  0  0
   -3.8201    0.5938    0.7565 C   0  0  0  0  0  0  0  0  0  0  0  0
   -7.0755    2.8549    0.0032 H   0  0  0  0  0  0  0  0  0  0  0  0
   -8.0690    1.5490   -0.8326 H   0  0  0  0  0  0  0  0  0  0  0  0
   -8.4983    2.1164    0.8007 H   0  0  0  0  0  0  0  0  0  0  0  0
   -6.2005    1.3758    1.5578 H   0  0  0  0  0  0  0  0  0  0  0  0
   -8.5571    0.5634    1.9048 H   0  0  0  0  0  0  0  0  0  0  0  0
   -7.1648   -0.5121    2.3537 H   0  0  0  0  0  0  0  0  0  0  0  0
   -8.0983   -0.8809    0.8536 H   0  0  0  0  0  0  0  0  0  0  0  0
   -4.8003   -1.2275   -1.8767 H   0  0  0  0  0  0  0  0  0  0  0  0
   -2.3533   -1.5481   -2.0317 H   0  0  0  0  0  0  0  0  0  0  0  0
   -0.1270   -0.4126    1.6580 H   0  0  0  0  0  0  0  0  0  0  0  0
    4.6597   -3.2552    0.2454 H   0  0  0  0  0  0  0  0  0  0  0  0
    6.6409   -3.3274    1.6822 H   0  0  0  0  0  0  0  0  0  0  0  0
    8.1099    1.0632    1.9717 H   0  0  0  0  0  0  0  0  0  0  0  0
    7.3749    3.2075    1.0687 H   0  0  0  0  0  0  0  0  0  0  0  0
    5.3797    3.2925   -0.3800 H   0  0  0  0  0  0  0  0  0  0  0  0
    4.1117    1.1953   -0.9254 H   0  0  0  0  0  0  0  0  0  0  0  0
    4.3897   -1.3599   -2.9840 H   0  0  0  0  0  0  0  0  0  0  0  0
   -0.5186   -0.7160   -2.5217 H   0  0  0  0  0  0  0  0  0  0  0  0
   -1.7842    0.8770    1.3877 H   0  0  0  0  0  0  0  0  0  0  0  0
   -4.2021    1.2124    1.5665 H   0  0  0  0  0  0  0  0  0  0  0  0
  1  2  1  0
  2  3  1  0
  2  4  1  0
  4  5  1  0
  5  6  2  0
  6  7  1  0
  7  8  2  0
  8  9  1  0
  9 10  1  0
 10 11  2  0
 11 12  1  0
 12 13  2  0
 13 14  1  0
 14 15  2  0
 15 16  1  0
 16 17  2  0
 17 18  1  0
 18 19  2  0
 19 20  1  0
 20 21  2  0
 21 22  1  0
 22 23  2  0
 13 24  1  0
 24 25  2  0
 25 26  1  0
 26 27  1  0
  8 28  1  0
 28 29  2  0
 29  5  1  0
 27  9  2  0
 26 12  1  0
 23 14  1  0
 23 18  1  0
  1 30  1  0
  1 31  1  0
  1 32  1  0
  2 33  1  0
  3 34  1  0
  3 35  1  0
  3 36  1  0
  6 37  1  0
  7 38  1  0
 10 39  1  0
 15 40  1  0
 16 41  1  0
 19 42  1  0
 20 43  1  0
 21 44  1  0
 22 45  1  0
 24 46  1  0
 27 47  1  0
 28 48  1  0
 29 49  1  0
M  END
$$$$
