@<TRIPOS>MOLECULE
*****
 49 53 0 0 0
SMALL
GASTEIGER

@<TRIPOS>ATOM
      1 C          -7.6538    1.9127    0.1106 C.3     1  UNL1       -0.0281
      2 C          -6.7748    0.8690    0.7895 C.3     1  UNL1        0.0946
      3 C          -7.7370   -0.0629    1.5196 C.3     1  UNL1       -0.0281
      4 O          -6.0027    0.1538   -0.1089 O.3     1  UNL1       -0.4894
      5 C          -4.6517   -0.0003   -0.1626 C.ar    1  UNL1        0.1209
      6 C          -4.1177   -0.7766   -1.1729 C.ar    1  UNL1       -0.0194
      7 C          -2.7665   -0.9388   -1.2379 C.ar    1  UNL1       -0.0505
      8 C          -1.9053   -0.3617   -0.3389 C.ar    1  UNL1       -0.0148
      9 C          -0.4586   -0.5467   -0.4234 C.ar    1  UNL1        0.0184
     10 C           0.3456   -0.5515    0.6984 C.ar    1  UNL1        0.0391
     11 N           1.6734   -0.7222    0.6147 N.ar    1  UNL1       -0.2350
     12 C           2.2330   -0.8916   -0.5798 C.ar    1  UNL1        0.1632
     13 C           3.5515   -1.0836   -0.9301 C.ar    1  UNL1        0.0467
     14 C           4.7277   -1.1560   -0.0722 C.ar    1  UNL1       -0.0022
     15 C           5.1848   -2.3421    0.4634 C.ar    1  UNL1       -0.0351
     16 C           6.2965   -2.3697    1.2674 C.ar    1  UNL1        0.0288
     17 N           6.9582   -1.2345    1.5450 N.ar    1  UNL1       -0.2549
     18 C           6.5455   -0.0559    1.0426 C.ar    1  UNL1        0.0715
     19 C           7.2363    1.1121    1.3352 C.ar    1  UNL1       -0.0357
     20 C           6.8124    2.3151    0.8204 C.ar    1  UNL1       -0.0597
     21 C           5.6956    2.3479    0.0118 C.ar    1  UNL1       -0.0611
     22 C           4.9897    1.2018   -0.2954 C.ar    1  UNL1       -0.0520
     23 C           5.4339    0.0053    0.2329 C.ar    1  UNL1        0.0082
     24 C           3.5555   -1.1997   -2.3034 C.ar    1  UNL1        0.0597
     25 N           2.2745   -1.0782   -2.7357 N.ar    1  UNL1       -0.1727
     26 N           1.4628   -0.8911   -1.7026 N.ar    1  UNL1       -0.2206
     27 C           0.1296   -0.7230   -1.6578 C.ar    1  UNL1        0.0406
     28 C          -2.4359    0.4068    0.6610 C.ar    1  UNL1       -0.0505
     29 C          -3.8201    0.5938    0.7565 C.ar    1  UNL1       -0.0194
     30 H          -7.0755    2.8549    0.0032 H       1  UNL1        0.0265
     31 H          -8.0690    1.5490   -0.8326 H       1  UNL1        0.0265
     32 H          -8.4983    2.1164    0.8007 H       1  UNL1        0.0265
     33 H          -6.2005    1.3758    1.5578 H       1  UNL1        0.0727
     34 H          -8.5571    0.5634    1.9048 H       1  UNL1        0.0265
     35 H          -7.1648   -0.5121    2.3537 H       1  UNL1        0.0265
     36 H          -8.0983   -0.8809    0.8536 H       1  UNL1        0.0265
     37 H          -4.8003   -1.2275   -1.8767 H       1  UNL1        0.0654
     38 H          -2.3533   -1.5481   -2.0317 H       1  UNL1        0.0625
     39 H          -0.1270   -0.4126    1.6580 H       1  UNL1        0.0837
     40 H           4.6597   -3.2552    0.2454 H       1  UNL1        0.0639
     41 H           6.6409   -3.3274    1.6822 H       1  UNL1        0.0830
     42 H           8.1099    1.0632    1.9717 H       1  UNL1        0.0639
     43 H           7.3749    3.2075    1.0687 H       1  UNL1        0.0618
     44 H           5.3797    3.2925   -0.3800 H       1  UNL1        0.0618
     45 H           4.1117    1.1953   -0.9254 H       1  UNL1        0.0624
     46 H           4.3897   -1.3599   -2.9840 H       1  UNL1        0.0855
     47 H          -0.5186   -0.7160   -2.5217 H       1  UNL1        0.0837
     48 H          -1.7842    0.8770    1.3877 H       1  UNL1        0.0625
     49 H          -4.2021    1.2124    1.5665 H       1  UNL1        0.0654
@<TRIPOS>BOND
     1     1     2    1
     2     2     3    1
     3     2     4    1
     4     4     5    1
     5     5     6   ar
     6     6     7   ar
     7     7     8   ar
     8     8     9    1
     9     9    10   ar
    10    10    11   ar
    11    11    12   ar
    12    12    13   ar
    13    13    14    1
    14    14    15   ar
    15    15    16   ar
    16    16    17   ar
    17    17    18   ar
    18    18    19   ar
    19    19    20   ar
    20    20    21   ar
    21    21    22   ar
    22    22    23   ar
    23    13    24   ar
    24    24    25   ar
    25    25    26   ar
    26    26    27   ar
    27     8    28   ar
    28    28    29   ar
    29    29     5   ar
    30    27     9   ar
    31    26    12   ar
    32    23    14   ar
    33    23    18   ar
    34     1    30    1
    35     1    31    1
    36     1    32    1
    37     2    33    1
    38     3    34    1
    39     3    35    1
    40     3    36    1
    41     6    37    1
    42     7    38    1
    43    10    39    1
    44    15    40    1
    45    16    41    1
    46    19    42    1
    47    20    43    1
    48    21    44    1
    49    22    45    1
    50    24    46    1
    51    27    47    1
    52    28    48    1
    53    29    49    1
