@<TRIPOS>MOLECULE
*****
 41 44 0 0 0
SMALL
GASTEIGER

@<TRIPOS>ATOM
      1 C           7.3957   -0.9931    1.1418 C.3     1  UNL1        0.0596
      2 S           6.8664    0.4115    0.1553 S.O2    1  UNL1       -0.0057
      3 O           7.7846    0.5303   -1.0261 O.2     1  UNL1       -0.1696
      4 O           6.9208    1.6308    1.0261 O.2     1  UNL1       -0.1696
      5 C           5.2467    0.0820   -0.4092 C.ar    1  UNL1        0.0927
      6 C           5.0714   -0.5650   -1.6092 C.ar    1  UNL1       -0.0202
      7 C           3.7780   -0.8031   -2.0134 C.ar    1  UNL1        0.0130
      8 N           2.7139   -0.4213   -1.2699 N.ar    1  UNL1       -0.3059
      9 C           1.3740   -0.5297   -1.4312 C.ar    1  UNL1        0.0371
     10 C           0.7108    0.0339   -0.3612 C.ar    1  UNL1        0.0898
     11 C          -0.7376    0.1028   -0.1891 C.ar    1  UNL1        0.0019
     12 C          -1.5728   -0.4213   -1.1404 C.ar    1  UNL1       -0.0519
     13 C          -2.9549   -0.3754   -1.0134 C.ar    1  UNL1       -0.0534
     14 C          -3.5204    0.2186    0.1106 C.ar    1  UNL1       -0.0178
     15 C          -4.9705    0.2715    0.2526 C.ar    1  UNL1       -0.0179
     16 C          -5.5858    1.3185    0.9231 C.ar    1  UNL1       -0.0540
     17 C          -6.9546    1.3828    1.0656 C.ar    1  UNL1       -0.0612
     18 C          -7.7459    0.3928    0.5362 C.ar    1  UNL1       -0.0617
     19 C          -7.1660   -0.6643   -0.1376 C.ar    1  UNL1       -0.0612
     20 C          -5.7967   -0.6987   -0.2624 C.ar    1  UNL1       -0.0540
     21 C          -2.6776    0.7546    1.0837 C.ar    1  UNL1       -0.0534
     22 C          -1.3243    0.6854    0.9142 C.ar    1  UNL1       -0.0519
     23 N           1.6646    0.4912    0.4618 N.ar    1  UNL1       -0.2278
     24 C           2.8716    0.2146   -0.0900 C.ar    1  UNL1        0.1400
     25 C           4.1653    0.4726    0.3512 C.ar    1  UNL1        0.0060
     26 H           7.3320   -1.9278    0.5769 H       1  UNL1        0.0468
     27 H           8.4311   -0.7891    1.4992 H       1  UNL1        0.0468
     28 H           6.7587   -1.0942    2.0378 H       1  UNL1        0.0468
     29 H           5.9232   -0.8730   -2.2084 H       1  UNL1        0.0651
     30 H           3.6082   -1.3059   -2.9447 H       1  UNL1        0.0814
     31 H           0.9441   -1.0068   -2.3067 H       1  UNL1        0.0835
     32 H          -1.1340   -0.8892   -2.0256 H       1  UNL1        0.0624
     33 H          -3.5995   -0.7925   -1.7711 H       1  UNL1        0.0624
     34 H          -4.9511    2.0964    1.3382 H       1  UNL1        0.0624
     35 H          -7.4183    2.2161    1.5971 H       1  UNL1        0.0618
     36 H          -8.8284    0.4793    0.6701 H       1  UNL1        0.0618
     37 H          -7.8245   -1.4215   -0.5387 H       1  UNL1        0.0618
     38 H          -5.3340   -1.5216   -0.7877 H       1  UNL1        0.0624
     39 H          -3.1146    1.2178    1.9601 H       1  UNL1        0.0624
     40 H          -0.6349    1.0989    1.6637 H       1  UNL1        0.0624
     41 H           4.2854    0.9908    1.3134 H       1  UNL1        0.0673
@<TRIPOS>BOND
     1     1     2    1
     2     2     3    2
     3     2     4    2
     4     2     5    1
     5     5     6   ar
     6     6     7   ar
     7     7     8   ar
     8     8     9   ar
     9     9    10   ar
    10    10    11    1
    11    11    12   ar
    12    12    13   ar
    13    13    14   ar
    14    14    15    1
    15    15    16   ar
    16    16    17   ar
    17    17    18   ar
    18    18    19   ar
    19    19    20   ar
    20    14    21   ar
    21    21    22   ar
    22    10    23   ar
    23    23    24   ar
    24    24    25   ar
    25    25     5   ar
    26    24     8   ar
    27    22    11   ar
    28    20    15   ar
    29     1    26    1
    30     1    27    1
    31     1    28    1
    32     6    29    1
    33     7    30    1
    34     9    31    1
    35    12    32    1
    36    13    33    1
    37    16    34    1
    38    17    35    1
    39    18    36    1
    40    19    37    1
    41    20    38    1
    42    21    39    1
    43    22    40    1
    44    25    41    1
