
     RDKit          3D

 41 44  0  0  0  0  0  0  0  0999 V2000
    7.3957   -0.9931    1.1418 C   0  0  0  0  0  0  0  0  0  0  0  0
    6.8664    0.4115    0.1553 S   0  0  0  0  0  6  0  0  0  0  0  0
    7.7846    0.5303   -1.0261 O   0  0  0  0  0  0  0  0  0  0  0  0
    6.9208    1.6308    1.0261 O   0  0  0  0  0  0  0  0  0  0  0  0
    5.2467    0.0820   -0.4092 C   0  0  0  0  0  0  0  0  0  0  0  0
    5.0714   -0.5650   -1.6092 C   0  0  0  0  0  0  0  0  0  0  0  0
    3.7780   -0.8031   -2.0134 C   0  0  0  0  0  0  0  0  0  0  0  0
    2.7139   -0.4213   -1.2699 N   0  0  0  0  0  0  0  0  0  0  0  0
    1.3740   -0.5297   -1.4312 C   0  0  0  0  0  0  0  0  0  0  0  0
    0.7108    0.0339   -0.3612 C   0  0  0  0  0  0  0  0  0  0  0  0
   -0.7376    0.1028   -0.1891 C   0  0  0  0  0  0  0  0  0  0  0  0
   -1.5728   -0.4213   -1.1404 C   0  0  0  0  0  0  0  0  0  0  0  0
   -2.9549   -0.3754   -1.0134 C   0  0  0  0  0  0  0  0  0  0  0  0
   -3.5204    0.2186    0.1106 C   0  0  0  0  0  0  0  0  0  0  0  0
   -4.9705    0.2715    0.2526 C   0  0  0  0  0  0  0  0  0  0  0  0
   -5.5858    1.3185    0.9231 C   0  0  0  0  0  0  0  0  0  0  0  0
   -6.9546    1.3828    1.0656 C   0  0  0  0  0  0  0  0  0  0  0  0
   -7.7459    0.3928    0.5362 C   0  0  0  0  0  0  0  0  0  0  0  0
   -7.1660   -0.6643   -0.1376 C   0  0  0  0  0  0  0  0  0  0  0  0
   -5.7967   -0.6987   -0.2624 C   0  0  0  0  0  0  0  0  0  0  0  0
   -2.6776    0.7546    1.0837 C   0  0  0  0  0  0  0  0  0  0  0  0
   -1.3243    0.6854    0.9142 C   0  0  0  0  0  0  0  0  0  0  0  0
    1.6646    0.4912    0.4618 N   0  0  0  0  0  0  0  0  0  0  0  0
    2.8716    0.2146   -0.0900 C   0  0  0  0  0  0  0  0  0  0  0  0
    4.1653    0.4726    0.3512 C   0  0  0  0  0  0  0  0  0  0  0  0
    7.3320   -1.9278    0.5769 H   0  0  0  0  0  0  0  0  0  0  0  0
    8.4311   -0.7891    1.4992 H   0  0  0  0  0  0  0  0  0  0  0  0
    6.7587   -1.0942    2.0378 H   0  0  0  0  0  0  0  0  0  0  0  0
    5.9232   -0.8730   -2.2084 H   0  0  0  0  0  0  0  0  0  0  0  0
    3.6082   -1.3059   -2.9447 H   0  0  0  0  0  0  0  0  0  0  0  0
    0.9441   -1.0068   -2.3067 H   0  0  0  0  0  0  0  0  0  0  0  0
   -1.1340   -0.8892   -2.0256 H   0  0  0  0  0  0  0  0  0  0  0  0
   -3.5995   -0.7925   -1.7711 H   0  0  0  0  0  0  0  0  0  0  0  0
   -4.9511    2.0964    1.3382 H   0  0  0  0  0  0  0  0  0  0  0  0
   -7.4183    2.2161    1.5971 H   0  0  0  0  0  0  0  0  0  0  0  0
   -8.8284    0.4793    0.6701 H   0  0  0  0  0  0  0  0  0  0  0  0
   -7.8245   -1.4215   -0.5387 H   0  0  0  0  0  0  0  0  0  0  0  0
   -5.3340   -1.5216   -0.7877 H   0  0  0  0  0  0  0  0  0  0  0  0
   -3.1146    1.2178    1.9601 H   0  0  0  0  0  0  0  0  0  0  0  0
   -0.6349    1.0989    1.6637 H   0  0  0  0  0  0  0  0  0  0  0  0
    4.2854    0.9908    1.3134 H   0  0  0  0  0  0  0  0  0  0  0  0
  1  2  1  0
  2  3  2  0
  2  4  2  0
  2  5  1  0
  5  6  1  0
  6  7  2  0
  7  8  1  0
  8  9  1  0
  9 10  2  0
 10 11  1  0
 11 12  2  0
 12 13  1  0
 13 14  2  0
 14 15  1  0
 15 16  2  0
 16 17  1  0
 17 18  2  0
 18 19  1  0
 19 20  2  0
 14 21  1  0
 21 22  2  0
 10 23  1  0
 23 24  2  0
 24 25  1  0
 25  5  2  0
 24  8  1  0
 22 11  1  0
 20 15  1  0
  1 26  1  0
  1 27  1  0
  1 28  1  0
  6 29  1  0
  7 30  1  0
  9 31  1  0
 12 32  1  0
 13 33  1  0
 16 34  1  0
 17 35  1  0
 18 36  1  0
 19 37  1  0
 20 38  1  0
 21 39  1  0
 22 40  1  0
 25 41  1  0
M  END
$$$$
