@<TRIPOS>MOLECULE
*****
 44 46 0 0 0
SMALL
GASTEIGER

@<TRIPOS>ATOM
      1 C           1.8104   -0.9369    2.1147 C.3     1  UNL1       -0.0388
      2 C           1.9667   -0.2682    0.8031 C.ar    1  UNL1       -0.0383
      3 C           0.8978    0.0145   -0.0004 C.ar    1  UNL1       -0.0282
      4 C          -0.4779   -0.3257    0.3917 C.3     1  UNL1        0.0458
      5 N          -1.4055    0.0185   -0.6533 N.3     1  UNL1       -0.1728
      6 C          -2.5058    0.7386   -0.1671 C.3     1  UNL1        0.0454
      7 C          -3.5827   -0.0167    0.5324 C.3     1  UNL1       -0.0219
      8 C          -4.6947    1.0413    0.5951 C.3     1  UNL1       -0.0025
      9 N          -4.3325    2.0673   -0.3543 N.3     1  UNL1       -0.3144
     10 C          -3.3240    1.4505   -1.2373 C.3     1  UNL1        0.0132
     11 S          -1.6991   -1.2589   -1.7235 S.O2    1  UNL1        0.0295
     12 C          -2.4243   -2.6751   -0.9359 C.3     1  UNL1        0.0707
     13 O          -0.3574   -1.7171   -2.2834 O.2     1  UNL1       -0.1583
     14 O          -2.4979   -0.8050   -2.9010 O.2     1  UNL1       -0.1583
     15 C           1.1252    0.6373   -1.2039 C.ar    1  UNL1       -0.0564
     16 C           2.4186    0.9807   -1.6110 C.ar    1  UNL1       -0.0536
     17 C           3.4871    0.6890   -0.7892 C.ar    1  UNL1       -0.0149
     18 C           4.7890    1.0048   -1.1381 C.ar    1  UNL1       -0.0187
     19 C           5.8562    0.7121   -0.3140 C.ar    1  UNL1        0.1240
     20 F           7.1369    1.0404   -0.6925 F       1  UNL1       -0.2055
     21 C           5.6280    0.0917    0.8844 C.ar    1  UNL1       -0.0259
     22 C           4.3464   -0.2272    1.2442 C.ar    1  UNL1       -0.0511
     23 C           3.2661    0.0660    0.4160 C.ar    1  UNL1       -0.0145
     24 H           0.7754   -1.1786    2.3585 H       1  UNL1        0.0278
     25 H           2.3760   -1.9096    2.0996 H       1  UNL1        0.0278
     26 H           2.3098   -0.3398    2.9316 H       1  UNL1        0.0278
     27 H          -0.6041   -1.4026    0.6375 H       1  UNL1        0.0493
     28 H          -0.7406    0.3042    1.2914 H       1  UNL1        0.0493
     29 H          -2.1516    1.5391    0.5208 H       1  UNL1        0.0493
     30 H          -3.3558   -0.3057    1.5607 H       1  UNL1        0.0293
     31 H          -4.0062   -0.8347   -0.0877 H       1  UNL1        0.0293
     32 H          -4.7479    1.4764    1.6259 H       1  UNL1        0.0424
     33 H          -5.6751    0.6215    0.3450 H       1  UNL1        0.0424
     34 H          -3.7736    2.7876    0.1963 H       1  UNL1        0.1220
     35 H          -2.7502    2.1992   -1.7791 H       1  UNL1        0.0440
     36 H          -3.8986    0.7478   -1.8687 H       1  UNL1        0.0440
     37 H          -3.4552   -2.8086   -1.3330 H       1  UNL1        0.0479
     38 H          -2.4053   -2.6005    0.1768 H       1  UNL1        0.0479
     39 H          -1.8764   -3.6067   -1.1842 H       1  UNL1        0.0479
     40 H           0.3482    0.9030   -1.9050 H       1  UNL1        0.0621
     41 H           2.6114    1.4720   -2.5574 H       1  UNL1        0.0624
     42 H           4.9752    1.4882   -2.0703 H       1  UNL1        0.0652
     43 H           6.4331   -0.1505    1.5494 H       1  UNL1        0.0646
     44 H           4.1849   -0.7237    2.2079 H       1  UNL1        0.0625
@<TRIPOS>BOND
     1     1     2    1
     2     2     3   ar
     3     3     4    1
     4     4     5    1
     5     5     6    1
     6     6     7    1
     7     7     8    1
     8     8     9    1
     9     9    10    1
    10     5    11    1
    11    11    12    1
    12    11    13    2
    13    11    14    2
    14     3    15   ar
    15    15    16   ar
    16    16    17   ar
    17    17    18   ar
    18    18    19   ar
    19    19    20    1
    20    19    21   ar
    21    21    22   ar
    22    22    23   ar
    23    23     2   ar
    24    10     6    1
    25    23    17   ar
    26     1    24    1
    27     1    25    1
    28     1    26    1
    29     4    27    1
    30     4    28    1
    31     6    29    1
    32     7    30    1
    33     7    31    1
    34     8    32    1
    35     8    33    1
    36     9    34    1
    37    10    35    1
    38    10    36    1
    39    12    37    1
    40    12    38    1
    41    12    39    1
    42    15    40    1
    43    16    41    1
    44    18    42    1
    45    21    43    1
    46    22    44    1
