
     RDKit          3D

 44 46  0  0  0  0  0  0  0  0999 V2000
    1.8104   -0.9369    2.1147 C   0  0  0  0  0  0  0  0  0  0  0  0
    1.9667   -0.2682    0.8031 C   0  0  0  0  0  0  0  0  0  0  0  0
    0.8978    0.0145   -0.0004 C   0  0  0  0  0  0  0  0  0  0  0  0
   -0.4779   -0.3257    0.3917 C   0  0  0  0  0  0  0  0  0  0  0  0
   -1.4055    0.0185   -0.6533 N   0  0  0  0  0  0  0  0  0  0  0  0
   -2.5058    0.7386   -0.1671 C   0  0  2  0  0  0  0  0  0  0  0  0
   -3.5827   -0.0167    0.5324 C   0  0  0  0  0  0  0  0  0  0  0  0
   -4.6947    1.0413    0.5951 C   0  0  0  0  0  0  0  0  0  0  0  0
   -4.3325    2.0673   -0.3543 N   0  0  0  0  0  0  0  0  0  0  0  0
   -3.3240    1.4505   -1.2373 C   0  0  0  0  0  0  0  0  0  0  0  0
   -1.6991   -1.2589   -1.7235 S   0  0  0  0  0  6  0  0  0  0  0  0
   -2.4243   -2.6751   -0.9359 C   0  0  0  0  0  0  0  0  0  0  0  0
   -0.3574   -1.7171   -2.2834 O   0  0  0  0  0  0  0  0  0  0  0  0
   -2.4979   -0.8050   -2.9010 O   0  0  0  0  0  0  0  0  0  0  0  0
    1.1252    0.6373   -1.2039 C   0  0  0  0  0  0  0  0  0  0  0  0
    2.4186    0.9807   -1.6110 C   0  0  0  0  0  0  0  0  0  0  0  0
    3.4871    0.6890   -0.7892 C   0  0  0  0  0  0  0  0  0  0  0  0
    4.7890    1.0048   -1.1381 C   0  0  0  0  0  0  0  0  0  0  0  0
    5.8562    0.7121   -0.3140 C   0  0  0  0  0  0  0  0  0  0  0  0
    7.1369    1.0404   -0.6925 F   0  0  0  0  0  0  0  0  0  0  0  0
    5.6280    0.0917    0.8844 C   0  0  0  0  0  0  0  0  0  0  0  0
    4.3464   -0.2272    1.2442 C   0  0  0  0  0  0  0  0  0  0  0  0
    3.2661    0.0660    0.4160 C   0  0  0  0  0  0  0  0  0  0  0  0
    0.7754   -1.1786    2.3585 H   0  0  0  0  0  0  0  0  0  0  0  0
    2.3760   -1.9096    2.0996 H   0  0  0  0  0  0  0  0  0  0  0  0
    2.3098   -0.3398    2.9316 H   0  0  0  0  0  0  0  0  0  0  0  0
   -0.6041   -1.4026    0.6375 H   0  0  0  0  0  0  0  0  0  0  0  0
   -0.7406    0.3042    1.2914 H   0  0  0  0  0  0  0  0  0  0  0  0
   -2.1516    1.5391    0.5208 H   0  0  0  0  0  0  0  0  0  0  0  0
   -3.3558   -0.3057    1.5607 H   0  0  0  0  0  0  0  0  0  0  0  0
   -4.0062   -0.8347   -0.0877 H   0  0  0  0  0  0  0  0  0  0  0  0
   -4.7479    1.4764    1.6259 H   0  0  0  0  0  0  0  0  0  0  0  0
   -5.6751    0.6215    0.3450 H   0  0  0  0  0  0  0  0  0  0  0  0
   -3.7736    2.7876    0.1963 H   0  0  0  0  0  0  0  0  0  0  0  0
   -2.7502    2.1992   -1.7791 H   0  0  0  0  0  0  0  0  0  0  0  0
   -3.8986    0.7478   -1.8687 H   0  0  0  0  0  0  0  0  0  0  0  0
   -3.4552   -2.8086   -1.3330 H   0  0  0  0  0  0  0  0  0  0  0  0
   -2.4053   -2.6005    0.1768 H   0  0  0  0  0  0  0  0  0  0  0  0
   -1.8764   -3.6067   -1.1842 H   0  0  0  0  0  0  0  0  0  0  0  0
    0.3482    0.9030   -1.9050 H   0  0  0  0  0  0  0  0  0  0  0  0
    2.6114    1.4720   -2.5574 H   0  0  0  0  0  0  0  0  0  0  0  0
    4.9752    1.4882   -2.0703 H   0  0  0  0  0  0  0  0  0  0  0  0
    6.4331   -0.1505    1.5494 H   0  0  0  0  0  0  0  0  0  0  0  0
    4.1849   -0.7237    2.2079 H   0  0  0  0  0  0  0  0  0  0  0  0
  1  2  1  0
  2  3  2  0
  3  4  1  0
  4  5  1  0
  5  6  1  0
  6  7  1  0
  7  8  1  0
  8  9  1  0
  9 10  1  0
  5 11  1  0
 11 12  1  0
 11 13  2  0
 11 14  2  0
  3 15  1  0
 15 16  2  0
 16 17  1  0
 17 18  2  0
 18 19  1  0
 19 20  1  0
 19 21  2  0
 21 22  1  0
 22 23  2  0
 23  2  1  0
 10  6  1  0
 23 17  1  0
  1 24  1  0
  1 25  1  0
  1 26  1  0
  4 27  1  0
  4 28  1  0
  6 29  1  1
  7 30  1  0
  7 31  1  0
  8 32  1  0
  8 33  1  0
  9 34  1  0
 10 35  1  0
 10 36  1  0
 12 37  1  0
 12 38  1  0
 12 39  1  0
 15 40  1  0
 16 41  1  0
 18 42  1  0
 21 43  1  0
 22 44  1  0
M  END
$$$$
