
     RDKit          3D

 45 48  0  0  0  0  0  0  0  0999 V2000
   -0.2766   -0.0398    4.4162 C   0  0  0  0  0  0  0  0  0  0  0  0
   -0.2820   -0.0492    2.9330 C   0  0  0  0  0  0  0  0  0  0  0  0
    0.7225   -0.5884    2.1875 C   0  0  0  0  0  0  0  0  0  0  0  0
    0.7075   -0.5920    0.7958 C   0  0  0  0  0  0  0  0  0  0  0  0
    1.7992   -1.1774    0.1211 N   0  0  0  0  0  0  0  0  0  0  0  0
    2.9000   -0.3537   -0.2069 C   0  0  0  0  0  0  0  0  0  0  0  0
    2.8686    0.8831    0.1165 O   0  0  0  0  0  0  0  0  0  0  0  0
    4.0812   -0.8426   -0.9009 C   0  0  0  0  0  0  0  0  0  0  0  0
    5.1355   -0.0194   -1.2062 C   0  0  0  0  0  0  0  0  0  0  0  0
    6.2679   -0.4990   -1.8742 C   0  0  0  0  0  0  0  0  0  0  0  0
    6.3238   -1.8298   -2.2330 C   0  0  0  0  0  0  0  0  0  0  0  0
    7.7230   -2.4892   -3.0751 Cl  0  0  0  0  0  0  0  0  0  0  0  0
    5.2462   -2.6279   -1.9102 C   0  0  0  0  0  0  0  0  0  0  0  0
    4.1576   -2.1302   -1.2590 N   0  0  0  0  0  0  0  0  0  0  0  0
   -0.3877   -0.0154    0.2054 C   0  0  0  0  0  0  0  0  0  0  0  0
   -1.4442    0.5513    0.8888 C   0  0  0  0  0  0  0  0  0  0  0  0
   -2.5525    1.1526    0.1095 C   0  0  1  0  0  0  0  0  0  0  0  0
   -2.4894    2.6801    0.2877 C   0  0  0  0  0  0  0  0  0  0  0  0
   -2.6190    3.0625    1.5763 F   0  0  0  0  0  0  0  0  0  0  0  0
   -3.5410    3.1971   -0.4419 F   0  0  0  0  0  0  0  0  0  0  0  0
   -2.2623    0.9556   -1.3006 N   0  0  0  0  0  0  0  0  0  0  0  0
   -2.7279    0.0017   -2.0227 C   0  0  0  0  0  0  0  0  0  0  0  0
   -2.3719   -0.0975   -3.4123 N   0  0  0  0  0  0  0  0  0  0  0  0
   -3.5690   -0.9016   -1.4076 O   0  0  0  0  0  0  0  0  0  0  0  0
   -4.4527   -0.4275   -0.4121 C   0  0  2  0  0  0  0  0  0  0  0  0
   -5.0262    0.9458   -0.5030 C   0  0  0  0  0  0  0  0  0  0  0  0
   -3.8830    0.6062    0.4542 C   0  0  2  0  0  0  0  0  0  0  0  0
   -1.3676    0.5213    2.2597 C   0  0  0  0  0  0  0  0  0  0  0  0
   -2.3637    1.0381    2.9813 F   0  0  0  0  0  0  0  0  0  0  0  0
   -1.2096    0.3653    4.8051 H   0  0  0  0  0  0  0  0  0  0  0  0
    0.5914    0.6098    4.7306 H   0  0  0  0  0  0  0  0  0  0  0  0
   -0.0366   -1.0446    4.8298 H   0  0  0  0  0  0  0  0  0  0  0  0
    1.5636   -1.0305    2.7089 H   0  0  0  0  0  0  0  0  0  0  0  0
    1.8055   -2.1783   -0.1314 H   0  0  0  0  0  0  0  0  0  0  0  0
    5.0827    1.0077   -0.9245 H   0  0  0  0  0  0  0  0  0  0  0  0
    7.1000    0.1386   -2.1181 H   0  0  0  0  0  0  0  0  0  0  0  0
    5.3060   -3.6705   -2.1991 H   0  0  0  0  0  0  0  0  0  0  0  0
   -0.3777   -0.0298   -0.8943 H   0  0  0  0  0  0  0  0  0  0  0  0
   -1.5206    3.0002   -0.1780 H   0  0  0  0  0  0  0  0  0  0  0  0
   -2.7343   -0.8483   -4.0322 H   0  0  0  0  0  0  0  0  0  0  0  0
   -1.7276    0.5993   -3.8344 H   0  0  0  0  0  0  0  0  0  0  0  0
   -5.0790   -1.2130    0.0315 H   0  0  0  0  0  0  0  0  0  0  0  0
   -6.0493    1.0712   -0.0931 H   0  0  0  0  0  0  0  0  0  0  0  0
   -4.8403    1.5759   -1.3820 H   0  0  0  0  0  0  0  0  0  0  0  0
   -4.1906    0.7324    1.5142 H   0  0  0  0  0  0  0  0  0  0  0  0
  1  2  1  0
  2  3  2  0
  3  4  1  0
  4  5  1  0
  5  6  1  0
  6  7  2  0
  6  8  1  0
  8  9  2  0
  9 10  1  0
 10 11  2  0
 11 12  1  0
 11 13  1  0
 13 14  2  0
  4 15  2  0
 15 16  1  0
 16 17  1  0
 17 18  1  6
 18 19  1  0
 18 20  1  0
 17 21  1  0
 21 22  2  0
 22 23  1  0
 22 24  1  0
 24 25  1  0
 25 26  1  0
 26 27  1  0
 16 28  2  0
 28 29  1  0
 28  2  1  0
 14  8  1  0
 27 17  1  0
 27 25  1  0
  1 30  1  0
  1 31  1  0
  1 32  1  0
  3 33  1  0
  5 34  1  0
  9 35  1  0
 10 36  1  0
 13 37  1  0
 15 38  1  0
 18 39  1  0
 23 40  1  0
 23 41  1  0
 25 42  1  1
 26 43  1  0
 26 44  1  0
 27 45  1  1
M  END
$$$$
