@<TRIPOS>MOLECULE
*****
 45 48 0 0 0
SMALL
GASTEIGER

@<TRIPOS>ATOM
      1 C          -0.2766   -0.0398    4.4162 C.3     1  UNL1       -0.0369
      2 C          -0.2820   -0.0492    2.9330 C.ar    1  UNL1       -0.0132
      3 C           0.7225   -0.5884    2.1875 C.ar    1  UNL1       -0.0348
      4 C           0.7075   -0.5920    0.7958 C.ar    1  UNL1        0.0345
      5 N           1.7992   -1.1774    0.1211 N.am    1  UNL1       -0.2802
      6 C           2.9000   -0.3537   -0.2069 C.2     1  UNL1        0.2666
      7 O           2.8686    0.8831    0.1165 O.2     1  UNL1       -0.2682
      8 C           4.0812   -0.8426   -0.9009 C.ar    1  UNL1        0.1257
      9 C           5.1355   -0.0194   -1.2062 C.ar    1  UNL1       -0.0298
     10 C           6.2679   -0.4990   -1.8742 C.ar    1  UNL1       -0.0397
     11 C           6.3238   -1.8298   -2.2330 C.ar    1  UNL1        0.0591
     12 CL          7.7230   -2.4892   -3.0751 Cl      1  UNL1       -0.0820
     13 C           5.2462   -2.6279   -1.9102 C.ar    1  UNL1        0.0467
     14 N           4.1576   -2.1302   -1.2590 N.ar    1  UNL1       -0.2489
     15 C          -0.3877   -0.0154    0.2054 C.ar    1  UNL1       -0.0320
     16 C          -1.4442    0.5513    0.8888 C.ar    1  UNL1        0.0230
     17 C          -2.5525    1.1526    0.1095 C.3     1  UNL1        0.1603
     18 C          -2.4894    2.6801    0.2877 C.3     1  UNL1        0.2686
     19 F          -2.6190    3.0625    1.5763 F       1  UNL1       -0.2062
     20 F          -3.5410    3.1971   -0.4419 F       1  UNL1       -0.2062
     21 N          -2.2623    0.9556   -1.3006 N.2     1  UNL1       -0.2194
     22 C          -2.7279    0.0017   -2.0227 C.2     1  UNL1        0.2764
     23 N          -2.3719   -0.0975   -3.4123 N.pl3   1  UNL1       -0.3134
     24 O          -3.5690   -0.9016   -1.4076 O.2     1  UNL1       -0.4622
     25 C          -4.4527   -0.4275   -0.4121 C.3     1  UNL1        0.1091
     26 C          -5.0262    0.9458   -0.5030 C.3     1  UNL1       -0.0064
     27 C          -3.8830    0.6062    0.4542 C.3     1  UNL1        0.0344
     28 C          -1.3676    0.5213    2.2597 C.ar    1  UNL1        0.1320
     29 F          -2.3637    1.0381    2.9813 F       1  UNL1       -0.2048
     30 H          -1.2096    0.3653    4.8051 H       1  UNL1        0.0278
     31 H           0.5914    0.6098    4.7306 H       1  UNL1        0.0278
     32 H          -0.0366   -1.0446    4.8298 H       1  UNL1        0.0278
     33 H           1.5636   -1.0305    2.7089 H       1  UNL1        0.0640
     34 H           1.8055   -2.1783   -0.1314 H       1  UNL1        0.1552
     35 H           5.0827    1.0077   -0.9245 H       1  UNL1        0.0641
     36 H           7.1000    0.1386   -2.1181 H       1  UNL1        0.0633
     37 H           5.3060   -3.6705   -2.1991 H       1  UNL1        0.0844
     38 H          -0.3777   -0.0298   -0.8943 H       1  UNL1        0.0640
     39 H          -1.5206    3.0002   -0.1780 H       1  UNL1        0.1047
     40 H          -2.7343   -0.8483   -4.0322 H       1  UNL1        0.1466
     41 H          -1.7276    0.5993   -3.8344 H       1  UNL1        0.1466
     42 H          -5.0790   -1.2130    0.0315 H       1  UNL1        0.0737
     43 H          -6.0493    1.0712   -0.0931 H       1  UNL1        0.0306
     44 H          -4.8403    1.5759   -1.3820 H       1  UNL1        0.0306
     45 H          -4.1906    0.7324    1.5142 H       1  UNL1        0.0366
@<TRIPOS>BOND
     1     1     2    1
     2     2     3   ar
     3     3     4   ar
     4     4     5    1
     5     5     6   am
     6     6     7    2
     7     6     8    1
     8     8     9   ar
     9     9    10   ar
    10    10    11   ar
    11    11    12    1
    12    11    13   ar
    13    13    14   ar
    14     4    15   ar
    15    15    16   ar
    16    16    17    1
    17    17    18    1
    18    18    19    1
    19    18    20    1
    20    17    21    1
    21    21    22    2
    22    22    23    1
    23    22    24    1
    24    24    25    1
    25    25    26    1
    26    26    27    1
    27    16    28   ar
    28    28    29    1
    29    28     2   ar
    30    14     8   ar
    31    27    17    1
    32    27    25    1
    33     1    30    1
    34     1    31    1
    35     1    32    1
    36     3    33    1
    37     5    34    1
    38     9    35    1
    39    10    36    1
    40    13    37    1
    41    15    38    1
    42    18    39    1
    43    23    40    1
    44    23    41    1
    45    25    42    1
    46    26    43    1
    47    26    44    1
    48    27    45    1
