
     RDKit          3D

 43 44  0  0  0  0  0  0  0  0999 V2000
   -4.4081    1.9901   -0.6155 C   0  0  0  0  0  0  0  0  0  0  0  0
   -4.4170    0.9281    0.4611 C   0  0  0  0  0  0  0  0  0  0  0  0
   -5.2713   -0.2045    0.0133 C   0  0  0  0  0  0  0  0  0  0  0  0
   -2.9809    0.5478    0.7404 C   0  0  2  0  0  0  0  0  0  0  0  0
   -2.8575   -0.4596    1.7471 N   0  0  0  0  0  0  0  0  0  0  0  0
   -1.9728   -1.8467    1.2426 S   0  0  0  0  0  6  0  0  0  0  0  0
   -2.6105   -2.5032    0.0505 O   0  0  0  0  0  0  0  0  0  0  0  0
   -1.9063   -2.7946    2.4151 O   0  0  0  0  0  0  0  0  0  0  0  0
   -0.3296   -1.4566    0.8118 C   0  0  0  0  0  0  0  0  0  0  0  0
    0.7169   -1.4510    1.6941 C   0  0  0  0  0  0  0  0  0  0  0  0
    1.9933   -1.1359    1.3010 C   0  0  0  0  0  0  0  0  0  0  0  0
    2.2708   -0.8087   -0.0167 C   0  0  0  0  0  0  0  0  0  0  0  0
    3.6090   -0.4701   -0.4562 C   0  0  0  0  0  0  0  0  0  0  0  0
    3.7682    0.4313   -1.5058 C   0  0  0  0  0  0  0  0  0  0  0  0
    5.0287    0.7716   -1.9446 C   0  0  0  0  0  0  0  0  0  0  0  0
    6.1839    0.2395   -1.3691 C   0  0  0  0  0  0  0  0  0  0  0  0
    7.4756    0.6218   -1.8576 C   0  0  0  0  0  0  0  0  0  0  0  0
    8.5379    0.9180   -2.2655 N   0  0  0  0  0  0  0  0  0  0  0  0
    6.0268   -0.6435   -0.3409 C   0  0  0  0  0  0  0  0  0  0  0  0
    4.7589   -0.9822    0.0964 C   0  0  0  0  0  0  0  0  0  0  0  0
    1.2364   -0.8089   -0.9134 C   0  0  0  0  0  0  0  0  0  0  0  0
   -0.0610   -1.1327   -0.4991 C   0  0  0  0  0  0  0  0  0  0  0  0
   -2.2862    1.7685    1.1986 C   0  0  0  0  0  0  0  0  0  0  0  0
   -2.2426    2.7976    0.4962 O   0  0  0  0  0  0  0  0  0  0  0  0
   -1.6715    1.7700    2.4322 O   0  0  0  0  0  0  0  0  0  0  0  0
   -3.4956    1.9065   -1.2532 H   0  0  0  0  0  0  0  0  0  0  0  0
   -5.2616    1.8127   -1.3172 H   0  0  0  0  0  0  0  0  0  0  0  0
   -4.4525    3.0207   -0.2094 H   0  0  0  0  0  0  0  0  0  0  0  0
   -4.8025    1.4021    1.3865 H   0  0  0  0  0  0  0  0  0  0  0  0
   -4.9462   -0.5781   -0.9648 H   0  0  0  0  0  0  0  0  0  0  0  0
   -5.4152   -0.9854    0.7787 H   0  0  0  0  0  0  0  0  0  0  0  0
   -6.3012    0.2265   -0.1572 H   0  0  0  0  0  0  0  0  0  0  0  0
   -2.4719    0.2498   -0.2124 H   0  0  0  0  0  0  0  0  0  0  0  0
   -3.8154   -0.7840    2.0656 H   0  0  0  0  0  0  0  0  0  0  0  0
    0.5456   -1.7027    2.7433 H   0  0  0  0  0  0  0  0  0  0  0  0
    2.8221   -1.1275    1.9779 H   0  0  0  0  0  0  0  0  0  0  0  0
    2.9234    0.8668   -1.9807 H   0  0  0  0  0  0  0  0  0  0  0  0
    5.1790    1.4678   -2.7567 H   0  0  0  0  0  0  0  0  0  0  0  0
    6.8694   -1.0881    0.1437 H   0  0  0  0  0  0  0  0  0  0  0  0
    4.6637   -1.6862    0.9153 H   0  0  0  0  0  0  0  0  0  0  0  0
    1.4320   -0.5570   -1.9435 H   0  0  0  0  0  0  0  0  0  0  0  0
   -0.8103   -1.1068   -1.2786 H   0  0  0  0  0  0  0  0  0  0  0  0
   -1.2538    2.5766    2.8671 H   0  0  0  0  0  0  0  0  0  0  0  0
  1  2  1  0
  2  3  1  0
  2  4  1  0
  4  5  1  0
  5  6  1  0
  6  7  2  0
  6  8  2  0
  6  9  1  0
  9 10  2  0
 10 11  1  0
 11 12  2  0
 12 13  1  0
 13 14  2  0
 14 15  1  0
 15 16  2  0
 16 17  1  0
 17 18  3  0
 16 19  1  0
 19 20  2  0
 12 21  1  0
 21 22  2  0
  4 23  1  0
 23 24  2  0
 23 25  1  0
 22  9  1  0
 20 13  1  0
  1 26  1  0
  1 27  1  0
  1 28  1  0
  2 29  1  0
  3 30  1  0
  3 31  1  0
  3 32  1  0
  4 33  1  6
  5 34  1  0
 10 35  1  0
 11 36  1  0
 14 37  1  0
 15 38  1  0
 19 39  1  0
 20 40  1  0
 21 41  1  0
 22 42  1  0
 25 43  1  0
M  END
$$$$
