@<TRIPOS>MOLECULE
*****
 43 44 0 0 0
SMALL
GASTEIGER

@<TRIPOS>ATOM
      1 C          -4.4081    1.9901   -0.6155 C.3     1  UNL1       -0.0607
      2 C          -4.4170    0.9281    0.4611 C.3     1  UNL1       -0.0194
      3 C          -5.2713   -0.2045    0.0133 C.3     1  UNL1       -0.0607
      4 C          -2.9809    0.5478    0.7404 C.3     1  UNL1        0.1276
      5 N          -2.8575   -0.4596    1.7471 N.3     1  UNL1       -0.1759
      6 S          -1.9728   -1.8467    1.2426 S.O2    1  UNL1        0.0591
      7 O          -2.6105   -2.5032    0.0505 O.2     1  UNL1       -0.1530
      8 O          -1.9063   -2.7946    2.4151 O.2     1  UNL1       -0.1530
      9 C          -0.3296   -1.4566    0.8118 C.ar    1  UNL1        0.1053
     10 C           0.7169   -1.4510    1.6941 C.ar    1  UNL1       -0.0348
     11 C           1.9933   -1.1359    1.3010 C.ar    1  UNL1       -0.0522
     12 C           2.2708   -0.8087   -0.0167 C.ar    1  UNL1       -0.0178
     13 C           3.6090   -0.4701   -0.4562 C.ar    1  UNL1       -0.0178
     14 C           3.7682    0.4313   -1.5058 C.ar    1  UNL1       -0.0528
     15 C           5.0287    0.7716   -1.9446 C.ar    1  UNL1       -0.0438
     16 C           6.1839    0.2395   -1.3691 C.ar    1  UNL1        0.0518
     17 C           7.4756    0.6218   -1.8576 C.1     1  UNL1        0.0992
     18 N           8.5379    0.9180   -2.2655 N.1     1  UNL1       -0.1909
     19 C           6.0268   -0.6435   -0.3409 C.ar    1  UNL1       -0.0438
     20 C           4.7589   -0.9822    0.0964 C.ar    1  UNL1       -0.0528
     21 C           1.2364   -0.8089   -0.9134 C.ar    1  UNL1       -0.0522
     22 C          -0.0610   -1.1327   -0.4991 C.ar    1  UNL1       -0.0348
     23 C          -2.2862    1.7685    1.1986 C.2     1  UNL1        0.3238
     24 O          -2.2426    2.7976    0.4962 O.2     1  UNL1       -0.2492
     25 O          -1.6715    1.7700    2.4322 O.3     1  UNL1       -0.4795
     26 H          -3.4956    1.9065   -1.2532 H       1  UNL1        0.0233
     27 H          -5.2616    1.8127   -1.3172 H       1  UNL1        0.0233
     28 H          -4.4525    3.0207   -0.2094 H       1  UNL1        0.0233
     29 H          -4.8025    1.4021    1.3865 H       1  UNL1        0.0316
     30 H          -4.9462   -0.5781   -0.9648 H       1  UNL1        0.0233
     31 H          -5.4152   -0.9854    0.7787 H       1  UNL1        0.0233
     32 H          -6.3012    0.2265   -0.1572 H       1  UNL1        0.0233
     33 H          -2.4719    0.2498   -0.2124 H       1  UNL1        0.0595
     34 H          -3.8154   -0.7840    2.0656 H       1  UNL1        0.1489
     35 H           0.5456   -1.7027    2.7433 H       1  UNL1        0.0637
     36 H           2.8221   -1.1275    1.9779 H       1  UNL1        0.0624
     37 H           2.9234    0.8668   -1.9807 H       1  UNL1        0.0624
     38 H           5.1790    1.4678   -2.7567 H       1  UNL1        0.0631
     39 H           6.8694   -1.0881    0.1437 H       1  UNL1        0.0631
     40 H           4.6637   -1.6862    0.9153 H       1  UNL1        0.0624
     41 H           1.4320   -0.5570   -1.9435 H       1  UNL1        0.0624
     42 H          -0.8103   -1.1068   -1.2786 H       1  UNL1        0.0637
     43 H          -1.2538    2.5766    2.8671 H       1  UNL1        0.2951
@<TRIPOS>BOND
     1     1     2    1
     2     2     3    1
     3     2     4    1
     4     4     5    1
     5     5     6    1
     6     6     7    2
     7     6     8    2
     8     6     9    1
     9     9    10   ar
    10    10    11   ar
    11    11    12   ar
    12    12    13    1
    13    13    14   ar
    14    14    15   ar
    15    15    16   ar
    16    16    17    1
    17    17    18    3
    18    16    19   ar
    19    19    20   ar
    20    12    21   ar
    21    21    22   ar
    22     4    23    1
    23    23    24    2
    24    23    25    1
    25    22     9   ar
    26    20    13   ar
    27     1    26    1
    28     1    27    1
    29     1    28    1
    30     2    29    1
    31     3    30    1
    32     3    31    1
    33     3    32    1
    34     4    33    1
    35     5    34    1
    36    10    35    1
    37    11    36    1
    38    14    37    1
    39    15    38    1
    40    19    39    1
    41    20    40    1
    42    21    41    1
    43    22    42    1
    44    25    43    1
