
     RDKit          3D

 46 49  0  0  0  0  0  0  0  0999 V2000
   -4.1907   -3.1264   -0.5163 C   0  0  0  0  0  0  0  0  0  0  0  0
   -4.2627   -1.7254   -0.3859 O   0  0  0  0  0  0  0  0  0  0  0  0
   -3.1269   -1.0305   -0.0234 C   0  0  0  0  0  0  0  0  0  0  0  0
   -1.9467   -1.6842    0.2091 C   0  0  0  0  0  0  0  0  0  0  0  0
   -0.7832   -0.9998    0.5761 C   0  0  0  0  0  0  0  0  0  0  0  0
    0.4105   -1.7982    0.8389 C   0  0  0  0  0  0  0  0  0  0  0  0
    1.6547   -1.5613    0.4653 C   0  0  0  0  0  0  0  0  0  0  0  0
    2.0428   -0.3967   -0.3155 C   0  0  0  0  0  0  0  0  0  0  0  0
    1.3509    0.0814   -1.4406 C   0  0  0  0  0  0  0  0  0  0  0  0
    1.9798    1.1727   -1.9071 N   0  0  0  0  0  0  0  0  0  0  0  0
    3.0557    1.4508   -1.1540 C   0  0  0  0  0  0  0  0  0  0  0  0
    4.0075    2.4485   -1.2151 C   0  0  0  0  0  0  0  0  0  0  0  0
    5.0006    2.4564   -0.2678 C   0  0  0  0  0  0  0  0  0  0  0  0
    5.0604    1.5050    0.7207 C   0  0  0  0  0  0  0  0  0  0  0  0
    4.1021    0.5135    0.7685 C   0  0  0  0  0  0  0  0  0  0  0  0
    3.0933    0.4773   -0.1673 C   0  0  0  0  0  0  0  0  0  0  0  0
    2.4807   -2.6459    0.9617 C   0  0  0  0  0  0  0  0  0  0  0  0
    3.7175   -2.7494    0.7906 O   0  0  0  0  0  0  0  0  0  0  0  0
    1.6481   -3.5716    1.6733 N   0  0  0  0  0  0  0  0  0  0  0  0
    0.3331   -3.0577    1.6101 C   0  0  0  0  0  0  0  0  0  0  0  0
   -0.6695   -3.6029    2.1250 O   0  0  0  0  0  0  0  0  0  0  0  0
   -0.8592    0.3521    0.6965 C   0  0  0  0  0  0  0  0  0  0  0  0
   -2.0156    1.0693    0.4778 C   0  0  0  0  0  0  0  0  0  0  0  0
   -2.1278    2.4304    0.5917 O   0  0  0  0  0  0  0  0  0  0  0  0
   -1.1185    3.3437    0.9082 C   0  0  0  0  0  0  0  0  0  0  0  0
   -3.1378    0.3220    0.1148 C   0  0  0  0  0  0  0  0  0  0  0  0
   -4.3114    1.0178   -0.1110 O   0  0  0  0  0  0  0  0  0  0  0  0
   -4.5652    1.4742   -1.4417 C   0  0  0  0  0  0  0  0  0  0  0  0
   -3.9685   -3.6342    0.4410 H   0  0  0  0  0  0  0  0  0  0  0  0
   -5.1660   -3.5054   -0.8727 H   0  0  0  0  0  0  0  0  0  0  0  0
   -3.3563   -3.4252   -1.2073 H   0  0  0  0  0  0  0  0  0  0  0  0
   -1.9046   -2.7427    0.1095 H   0  0  0  0  0  0  0  0  0  0  0  0
    0.4591   -0.3992   -1.8215 H   0  0  0  0  0  0  0  0  0  0  0  0
    1.6642    1.7316   -2.7539 H   0  0  0  0  0  0  0  0  0  0  0  0
    3.9927    3.2126   -1.9775 H   0  0  0  0  0  0  0  0  0  0  0  0
    5.7742    3.2290   -0.2798 H   0  0  0  0  0  0  0  0  0  0  0  0
    5.8345    1.4894    1.4811 H   0  0  0  0  0  0  0  0  0  0  0  0
    4.1660   -0.2174    1.5596 H   0  0  0  0  0  0  0  0  0  0  0  0
    2.0151   -4.4371    2.1256 H   0  0  0  0  0  0  0  0  0  0  0  0
    0.0285    0.9046    0.9831 H   0  0  0  0  0  0  0  0  0  0  0  0
   -1.5563    4.1498    1.5397 H   0  0  0  0  0  0  0  0  0  0  0  0
   -0.3509    2.8267    1.5195 H   0  0  0  0  0  0  0  0  0  0  0  0
   -0.6023    3.7650    0.0148 H   0  0  0  0  0  0  0  0  0  0  0  0
   -4.7449    0.6631   -2.1562 H   0  0  0  0  0  0  0  0  0  0  0  0
   -5.4367    2.1742   -1.4670 H   0  0  0  0  0  0  0  0  0  0  0  0
   -3.6701    2.0498   -1.8207 H   0  0  0  0  0  0  0  0  0  0  0  0
  1  2  1  0
  2  3  1  0
  3  4  2  0
  4  5  1  0
  5  6  1  0
  6  7  2  0
  7  8  1  0
  8  9  2  0
  9 10  1  0
 10 11  1  0
 11 12  2  0
 12 13  1  0
 13 14  2  0
 14 15  1  0
 15 16  2  0
  7 17  1  0
 17 18  2  0
 17 19  1  0
 19 20  1  0
 20 21  2  0
  5 22  2  0
 22 23  1  0
 23 24  1  0
 24 25  1  0
 23 26  2  0
 26 27  1  0
 27 28  1  0
 26  3  1  0
 20  6  1  0
 16  8  1  0
 16 11  1  0
  1 29  1  0
  1 30  1  0
  1 31  1  0
  4 32  1  0
  9 33  1  0
 10 34  1  0
 12 35  1  0
 13 36  1  0
 14 37  1  0
 15 38  1  0
 19 39  1  0
 22 40  1  0
 25 41  1  0
 25 42  1  0
 25 43  1  0
 28 44  1  0
 28 45  1  0
 28 46  1  0
M  END
$$$$
