@<TRIPOS>MOLECULE
*****
 46 49 0 0 0
SMALL
GASTEIGER

@<TRIPOS>ATOM
      1 C          -4.1907   -3.1264   -0.5163 C.3     1  UNL1        0.0790
      2 O          -4.2627   -1.7254   -0.3859 O.3     1  UNL1       -0.4913
      3 C          -3.1269   -1.0305   -0.0234 C.ar    1  UNL1        0.1657
      4 C          -1.9467   -1.6842    0.2091 C.ar    1  UNL1       -0.0082
      5 C          -0.7832   -0.9998    0.5761 C.ar    1  UNL1       -0.0050
      6 C           0.4105   -1.7982    0.8389 C.2     1  UNL1        0.0572
      7 C           1.6547   -1.5613    0.4653 C.2     1  UNL1        0.0589
      8 C           2.0428   -0.3967   -0.3155 C.ar    1  UNL1        0.0129
      9 C           1.3509    0.0814   -1.4406 C.ar    1  UNL1        0.0106
     10 N           1.9798    1.1727   -1.9071 N.ar    1  UNL1       -0.3600
     11 C           3.0557    1.4508   -1.1540 C.ar    1  UNL1        0.0471
     12 C           4.0075    2.4485   -1.2151 C.ar    1  UNL1       -0.0378
     13 C           5.0006    2.4564   -0.2678 C.ar    1  UNL1       -0.0598
     14 C           5.0604    1.5050    0.7207 C.ar    1  UNL1       -0.0611
     15 C           4.1021    0.5135    0.7685 C.ar    1  UNL1       -0.0520
     16 C           3.0933    0.4773   -0.1673 C.ar    1  UNL1        0.0075
     17 C           2.4807   -2.6459    0.9617 C.2     1  UNL1        0.2519
     18 O           3.7175   -2.7494    0.7906 O.2     1  UNL1       -0.2697
     19 N           1.6481   -3.5716    1.6733 N.am    1  UNL1       -0.2483
     20 C           0.3331   -3.0577    1.6101 C.2     1  UNL1        0.2518
     21 O          -0.6695   -3.6029    2.1250 O.2     1  UNL1       -0.2697
     22 C          -0.8592    0.3521    0.6965 C.ar    1  UNL1       -0.0082
     23 C          -2.0156    1.0693    0.4778 C.ar    1  UNL1        0.1657
     24 O          -2.1278    2.4304    0.5917 O.3     1  UNL1       -0.4913
     25 C          -1.1185    3.3437    0.9082 C.3     1  UNL1        0.0790
     26 C          -3.1378    0.3220    0.1148 C.ar    1  UNL1        0.2035
     27 O          -4.3114    1.0178   -0.1110 O.3     1  UNL1       -0.4885
     28 C          -4.5652    1.4742   -1.4417 C.3     1  UNL1        0.0791
     29 H          -3.9685   -3.6342    0.4410 H       1  UNL1        0.0660
     30 H          -5.1660   -3.5054   -0.8727 H       1  UNL1        0.0660
     31 H          -3.3563   -3.4252   -1.2073 H       1  UNL1        0.0660
     32 H          -1.9046   -2.7427    0.1095 H       1  UNL1        0.0661
     33 H           0.4591   -0.3992   -1.8215 H       1  UNL1        0.0813
     34 H           1.6642    1.7316   -2.7539 H       1  UNL1        0.1654
     35 H           3.9927    3.2126   -1.9775 H       1  UNL1        0.0638
     36 H           5.7742    3.2290   -0.2798 H       1  UNL1        0.0618
     37 H           5.8345    1.4894    1.4811 H       1  UNL1        0.0618
     38 H           4.1660   -0.2174    1.5596 H       1  UNL1        0.0624
     39 H           2.0151   -4.4371    2.1256 H       1  UNL1        0.1581
     40 H           0.0285    0.9046    0.9831 H       1  UNL1        0.0661
     41 H          -1.5563    4.1498    1.5397 H       1  UNL1        0.0660
     42 H          -0.3509    2.8267    1.5195 H       1  UNL1        0.0660
     43 H          -0.6023    3.7650    0.0148 H       1  UNL1        0.0660
     44 H          -4.7449    0.6631   -2.1562 H       1  UNL1        0.0660
     45 H          -5.4367    2.1742   -1.4670 H       1  UNL1        0.0660
     46 H          -3.6701    2.0498   -1.8207 H       1  UNL1        0.0660
@<TRIPOS>BOND
     1     1     2    1
     2     2     3    1
     3     3     4   ar
     4     4     5   ar
     5     5     6    1
     6     6     7    2
     7     7     8    1
     8     8     9   ar
     9     9    10   ar
    10    10    11   ar
    11    11    12   ar
    12    12    13   ar
    13    13    14   ar
    14    14    15   ar
    15    15    16   ar
    16     7    17    1
    17    17    18    2
    18    17    19   am
    19    19    20   am
    20    20    21    2
    21     5    22   ar
    22    22    23   ar
    23    23    24    1
    24    24    25    1
    25    23    26   ar
    26    26    27    1
    27    27    28    1
    28    26     3   ar
    29    20     6    1
    30    16     8   ar
    31    16    11   ar
    32     1    29    1
    33     1    30    1
    34     1    31    1
    35     4    32    1
    36     9    33    1
    37    10    34    1
    38    12    35    1
    39    13    36    1
    40    14    37    1
    41    15    38    1
    42    19    39    1
    43    22    40    1
    44    25    41    1
    45    25    42    1
    46    25    43    1
    47    28    44    1
    48    28    45    1
    49    28    46    1
