@<TRIPOS>MOLECULE
*****
 55 59 0 0 0
SMALL
GASTEIGER

@<TRIPOS>ATOM
      1 C          -6.8995   -2.4821   -0.6135 C.3     1  UNL1       -0.0396
      2 C          -5.5786   -1.7927   -0.8156 C.ar    1  UNL1       -0.0483
      3 C          -4.6679   -2.3904   -1.6633 C.ar    1  UNL1       -0.0580
      4 C          -3.4565   -1.7455   -1.8403 C.ar    1  UNL1       -0.0473
      5 C          -3.1625   -0.5570   -1.2019 C.ar    1  UNL1        0.0640
      6 C          -1.8860    0.1089   -1.3975 C.2     1  UNL1        0.2491
      7 O          -1.6868    0.9598   -2.3022 O.2     1  UNL1       -0.2699
      8 N          -0.8050   -0.2100   -0.5299 N.am    1  UNL1       -0.2897
      9 C          -0.9639   -1.1674    0.5178 C.3     1  UNL1        0.0388
     10 C          -0.1362   -0.8952    1.7350 C.3     1  UNL1        0.0635
     11 O           0.8894   -0.0314    1.5846 O.3     1  UNL1       -0.3764
     12 C           0.7815    0.9956    0.7030 C.3     1  UNL1        0.0666
     13 C           0.4992    0.4143   -0.6640 C.3     1  UNL1        0.0537
     14 C           1.5284   -0.6711   -0.9246 C.3     1  UNL1       -0.0067
     15 C           2.9008   -0.1529   -1.0923 C.ar    1  UNL1       -0.0421
     16 C           3.3396    0.2241   -2.3456 C.ar    1  UNL1       -0.0400
     17 C           4.6015    0.7094   -2.5831 C.ar    1  UNL1        0.0433
     18 CL          5.1099    1.1734   -4.1883 Cl      1  UNL1       -0.0835
     19 C           5.4943    0.8337   -1.5191 C.ar    1  UNL1       -0.0162
     20 C           5.0878    0.4699   -0.2767 C.ar    1  UNL1        0.0878
     21 N           5.9761    0.5833    0.8397 N.ar    1  UNL1       -0.1503
     22 N           6.9072    1.5164    0.9747 N.ar    1  UNL1       -0.1556
     23 C           7.5293    1.2902    2.1451 C.ar    1  UNL1        0.0697
     24 C           6.9401    0.1856    2.7133 C.ar    1  UNL1        0.0697
     25 N           5.9891   -0.2222    1.8822 N.ar    1  UNL1       -0.1556
     26 C           3.7948   -0.0233   -0.0569 C.ar    1  UNL1       -0.0312
     27 C          -4.0875    0.0210   -0.3601 C.ar    1  UNL1        0.0985
     28 N          -3.7463    1.2442    0.2777 N.ar    1  UNL1       -0.1496
     29 N          -3.7080    1.3973    1.6025 N.ar    1  UNL1       -0.1556
     30 C          -3.3593    2.6435    1.9269 C.ar    1  UNL1        0.0697
     31 C          -3.1673    3.3128    0.7406 C.ar    1  UNL1        0.0697
     32 N          -3.4170    2.4113   -0.2266 N.ar    1  UNL1       -0.1556
     33 C          -5.3200   -0.6020   -0.1582 C.ar    1  UNL1       -0.0309
     34 H          -6.7624   -3.5741   -0.4932 H       1  UNL1        0.0278
     35 H          -7.5220   -2.2651   -1.4846 H       1  UNL1        0.0278
     36 H          -7.3709   -2.1153    0.3127 H       1  UNL1        0.0278
     37 H          -4.9080   -3.3282   -2.1630 H       1  UNL1        0.0620
     38 H          -2.7131   -2.1832   -2.4991 H       1  UNL1        0.0626
     39 H          -2.0203   -1.2758    0.8417 H       1  UNL1        0.0487
     40 H          -0.6950   -2.1731    0.0768 H       1  UNL1        0.0487
     41 H           0.2634   -1.8682    2.0947 H       1  UNL1        0.0575
     42 H          -0.7896   -0.5246    2.5765 H       1  UNL1        0.0575
     43 H           1.7956    1.4785    0.6285 H       1  UNL1        0.0578
     44 H           0.0229    1.7615    0.9837 H       1  UNL1        0.0578
     45 H           0.5107    1.1858   -1.4572 H       1  UNL1        0.0526
     46 H           1.5523   -1.4128   -0.0994 H       1  UNL1        0.0332
     47 H           1.2104   -1.2743   -1.8275 H       1  UNL1        0.0332
     48 H           2.6816    0.1468   -3.2105 H       1  UNL1        0.0635
     49 H           6.4982    1.2125   -1.6666 H       1  UNL1        0.0654
     50 H           8.3485    1.8965    2.5367 H       1  UNL1        0.0864
     51 H           7.2241   -0.2573    3.6796 H       1  UNL1        0.0864
     52 H           3.5047   -0.3048    0.9305 H       1  UNL1        0.0642
     53 H          -3.2314    3.1111    2.8971 H       1  UNL1        0.0864
     54 H          -2.8746    4.3540    0.6327 H       1  UNL1        0.0864
     55 H          -6.0459   -0.1412    0.5072 H       1  UNL1        0.0642
@<TRIPOS>BOND
     1     1     2    1
     2     2     3   ar
     3     3     4   ar
     4     4     5   ar
     5     5     6    1
     6     6     7    2
     7     6     8   am
     8     8     9    1
     9     9    10    1
    10    10    11    1
    11    11    12    1
    12    12    13    1
    13    13    14    1
    14    14    15    1
    15    15    16   ar
    16    16    17   ar
    17    17    18    1
    18    17    19   ar
    19    19    20   ar
    20    20    21    1
    21    21    22   ar
    22    22    23   ar
    23    23    24   ar
    24    24    25   ar
    25    20    26   ar
    26     5    27   ar
    27    27    28    1
    28    28    29   ar
    29    29    30   ar
    30    30    31   ar
    31    31    32   ar
    32    27    33   ar
    33    33     2   ar
    34    13     8    1
    35    26    15   ar
    36    32    28   ar
    37    25    21   ar
    38     1    34    1
    39     1    35    1
    40     1    36    1
    41     3    37    1
    42     4    38    1
    43     9    39    1
    44     9    40    1
    45    10    41    1
    46    10    42    1
    47    12    43    1
    48    12    44    1
    49    13    45    1
    50    14    46    1
    51    14    47    1
    52    16    48    1
    53    19    49    1
    54    23    50    1
    55    24    51    1
    56    26    52    1
    57    30    53    1
    58    31    54    1
    59    33    55    1
