@<TRIPOS>MOLECULE
*****
 38 41 0 0 0
SMALL
GASTEIGER

@<TRIPOS>ATOM
      1 N          -2.9737    3.8573    1.9035 N.1     1  UNL1       -0.1892
      2 C          -2.9945    2.6636    1.9489 C.1     1  UNL1        0.1208
      3 C          -3.0296    1.2405    1.9912 C.ar    1  UNL1        0.1618
      4 C          -3.8283    0.4071    2.7460 C.ar    1  UNL1        0.0659
      5 N          -3.5254   -0.8779    2.4500 N.ar    1  UNL1       -0.2333
      6 C          -2.5462   -0.8785    1.5189 C.ar    1  UNL1        0.1555
      7 C          -1.8510   -1.8669    0.8557 C.ar    1  UNL1       -0.0153
      8 C          -0.8802   -1.5224   -0.0597 C.ar    1  UNL1       -0.0290
      9 C          -0.5809   -0.1808   -0.3336 C.ar    1  UNL1        0.1103
     10 C           0.4512    0.1634   -1.2708 C.ar    1  UNL1        0.0968
     11 C           1.7836   -0.1849   -1.0320 C.ar    1  UNL1        0.0982
     12 C           2.2970   -0.8958    0.1197 C.ar    1  UNL1        0.0025
     13 C           2.5243   -2.2396    0.1477 C.ar    1  UNL1       -0.0525
     14 C           3.0050   -2.9326    1.2311 C.ar    1  UNL1       -0.0611
     15 C           3.2805   -2.2066    2.3870 C.ar    1  UNL1       -0.0617
     16 C           3.0736   -0.8493    2.4238 C.ar    1  UNL1       -0.0611
     17 C           2.5938   -0.2149    1.3153 C.ar    1  UNL1       -0.0525
     18 N           2.4910    0.2609   -2.0813 N.ar    1  UNL1       -0.2351
     19 C           1.6464    0.8707   -2.9584 C.ar    1  UNL1        0.0973
     20 N           0.3842    0.7954   -2.4294 N.ar    1  UNL1       -0.3229
     21 C          -0.7782    1.3457   -3.0689 C.3     1  UNL1        0.0852
     22 C          -1.0072    2.7955   -2.8065 C.3     1  UNL1        0.2569
     23 F          -2.1643    3.1581   -3.4867 F       1  UNL1       -0.2073
     24 F          -1.0978    3.0301   -1.4643 F       1  UNL1       -0.2073
     25 N          -1.3249    0.6844    0.3733 N.ar    1  UNL1       -0.1623
     26 N          -2.2471    0.3982    1.2425 N.ar    1  UNL1       -0.2023
     27 H          -4.5753    0.7897    3.4613 H       1  UNL1        0.0859
     28 H          -2.0910   -2.9113    1.0739 H       1  UNL1        0.0655
     29 H          -0.3451   -2.3264   -0.5685 H       1  UNL1        0.0641
     30 H           2.3083   -2.7985   -0.7493 H       1  UNL1        0.0624
     31 H           3.1611   -4.0163    1.1736 H       1  UNL1        0.0618
     32 H           3.6584   -2.7026    3.2611 H       1  UNL1        0.0618
     33 H           3.2993   -0.3322    3.3453 H       1  UNL1        0.0618
     34 H           2.4437    0.8696    1.3753 H       1  UNL1        0.0624
     35 H           1.9373    1.3270   -3.8934 H       1  UNL1        0.1029
     36 H          -1.6659    0.7156   -2.7760 H       1  UNL1        0.0548
     37 H          -0.6942    1.1717   -4.1882 H       1  UNL1        0.0548
     38 H          -0.1379    3.3931   -3.1782 H       1  UNL1        0.1037
@<TRIPOS>BOND
     1     1     2    3
     2     2     3    1
     3     3     4   ar
     4     4     5   ar
     5     5     6   ar
     6     6     7   ar
     7     7     8   ar
     8     8     9   ar
     9     9    10    1
    10    10    11   ar
    11    11    12    1
    12    12    13   ar
    13    13    14   ar
    14    14    15   ar
    15    15    16   ar
    16    16    17   ar
    17    11    18   ar
    18    18    19   ar
    19    19    20   ar
    20    20    21    1
    21    21    22    1
    22    22    23    1
    23    22    24    1
    24     9    25   ar
    25    25    26   ar
    26    26     3   ar
    27    26     6   ar
    28    20    10   ar
    29    17    12   ar
    30     4    27    1
    31     7    28    1
    32     8    29    1
    33    13    30    1
    34    14    31    1
    35    15    32    1
    36    16    33    1
    37    17    34    1
    38    19    35    1
    39    21    36    1
    40    21    37    1
    41    22    38    1
