
     RDKit          3D

 38 41  0  0  0  0  0  0  0  0999 V2000
   -2.9737    3.8573    1.9035 N   0  0  0  0  0  0  0  0  0  0  0  0
   -2.9945    2.6636    1.9489 C   0  0  0  0  0  0  0  0  0  0  0  0
   -3.0296    1.2405    1.9912 C   0  0  0  0  0  0  0  0  0  0  0  0
   -3.8283    0.4071    2.7460 C   0  0  0  0  0  0  0  0  0  0  0  0
   -3.5254   -0.8779    2.4500 N   0  0  0  0  0  0  0  0  0  0  0  0
   -2.5462   -0.8785    1.5189 C   0  0  0  0  0  0  0  0  0  0  0  0
   -1.8510   -1.8669    0.8557 C   0  0  0  0  0  0  0  0  0  0  0  0
   -0.8802   -1.5224   -0.0597 C   0  0  0  0  0  0  0  0  0  0  0  0
   -0.5809   -0.1808   -0.3336 C   0  0  0  0  0  0  0  0  0  0  0  0
    0.4512    0.1634   -1.2708 C   0  0  0  0  0  0  0  0  0  0  0  0
    1.7836   -0.1849   -1.0320 C   0  0  0  0  0  0  0  0  0  0  0  0
    2.2970   -0.8958    0.1197 C   0  0  0  0  0  0  0  0  0  0  0  0
    2.5243   -2.2396    0.1477 C   0  0  0  0  0  0  0  0  0  0  0  0
    3.0050   -2.9326    1.2311 C   0  0  0  0  0  0  0  0  0  0  0  0
    3.2805   -2.2066    2.3870 C   0  0  0  0  0  0  0  0  0  0  0  0
    3.0736   -0.8493    2.4238 C   0  0  0  0  0  0  0  0  0  0  0  0
    2.5938   -0.2149    1.3153 C   0  0  0  0  0  0  0  0  0  0  0  0
    2.4910    0.2609   -2.0813 N   0  0  0  0  0  0  0  0  0  0  0  0
    1.6464    0.8707   -2.9584 C   0  0  0  0  0  0  0  0  0  0  0  0
    0.3842    0.7954   -2.4294 N   0  0  0  0  0  0  0  0  0  0  0  0
   -0.7782    1.3457   -3.0689 C   0  0  0  0  0  0  0  0  0  0  0  0
   -1.0072    2.7955   -2.8065 C   0  0  0  0  0  0  0  0  0  0  0  0
   -2.1643    3.1581   -3.4867 F   0  0  0  0  0  0  0  0  0  0  0  0
   -1.0978    3.0301   -1.4643 F   0  0  0  0  0  0  0  0  0  0  0  0
   -1.3249    0.6844    0.3733 N   0  0  0  0  0  0  0  0  0  0  0  0
   -2.2471    0.3982    1.2425 N   0  0  0  0  0  0  0  0  0  0  0  0
   -4.5753    0.7897    3.4613 H   0  0  0  0  0  0  0  0  0  0  0  0
   -2.0910   -2.9113    1.0739 H   0  0  0  0  0  0  0  0  0  0  0  0
   -0.3451   -2.3264   -0.5685 H   0  0  0  0  0  0  0  0  0  0  0  0
    2.3083   -2.7985   -0.7493 H   0  0  0  0  0  0  0  0  0  0  0  0
    3.1611   -4.0163    1.1736 H   0  0  0  0  0  0  0  0  0  0  0  0
    3.6584   -2.7026    3.2611 H   0  0  0  0  0  0  0  0  0  0  0  0
    3.2993   -0.3322    3.3453 H   0  0  0  0  0  0  0  0  0  0  0  0
    2.4437    0.8696    1.3753 H   0  0  0  0  0  0  0  0  0  0  0  0
    1.9373    1.3270   -3.8934 H   0  0  0  0  0  0  0  0  0  0  0  0
   -1.6659    0.7156   -2.7760 H   0  0  0  0  0  0  0  0  0  0  0  0
   -0.6942    1.1717   -4.1882 H   0  0  0  0  0  0  0  0  0  0  0  0
   -0.1379    3.3931   -3.1782 H   0  0  0  0  0  0  0  0  0  0  0  0
  1  2  3  0
  2  3  1  0
  3  4  2  0
  4  5  1  0
  5  6  2  0
  6  7  1  0
  7  8  2  0
  8  9  1  0
  9 10  1  0
 10 11  2  0
 11 12  1  0
 12 13  2  0
 13 14  1  0
 14 15  2  0
 15 16  1  0
 16 17  2  0
 11 18  1  0
 18 19  2  0
 19 20  1  0
 20 21  1  0
 21 22  1  0
 22 23  1  0
 22 24  1  0
  9 25  2  0
 25 26  1  0
 26  3  1  0
 26  6  1  0
 20 10  1  0
 17 12  1  0
  4 27  1  0
  7 28  1  0
  8 29  1  0
 13 30  1  0
 14 31  1  0
 15 32  1  0
 16 33  1  0
 17 34  1  0
 19 35  1  0
 21 36  1  0
 21 37  1  0
 22 38  1  0
M  END
$$$$
