@<TRIPOS>MOLECULE
*****
 44 46 0 0 0
SMALL
GASTEIGER

@<TRIPOS>ATOM
      1 C          -2.9484    3.8976   -1.0715 C.3     1  UNL1        0.0790
      2 O          -2.7957    2.5257   -0.8274 O.3     1  UNL1       -0.4915
      3 C          -1.5573    1.9487   -0.5924 C.ar    1  UNL1        0.1616
      4 C          -0.4250    2.7329   -0.5942 C.ar    1  UNL1       -0.0156
      5 C           0.8113    2.1321   -0.3555 C.ar    1  UNL1       -0.0459
      6 C           0.9080    0.7783   -0.1207 C.ar    1  UNL1        0.0407
      7 C           2.1777    0.1119    0.1327 C.2     1  UNL1        0.2484
      8 O           2.1866   -1.1322    0.3388 O.2     1  UNL1       -0.2698
      9 N           3.3909    0.8497    0.1483 N.am    1  UNL1       -0.2791
     10 C           4.5922    0.0968    0.4082 C.ar    1  UNL1        0.0707
     11 C           5.3139   -0.4637   -0.6191 C.ar    1  UNL1        0.0636
     12 CL          4.7956   -0.2817   -2.2934 Cl      1  UNL1       -0.0816
     13 C           6.4723   -1.1893   -0.3639 C.ar    1  UNL1       -0.0415
     14 C           6.8764   -1.3299    0.9555 C.ar    1  UNL1       -0.0589
     15 C           6.1502   -0.7651    1.9965 C.ar    1  UNL1       -0.0415
     16 C           5.0188   -0.0599    1.7104 C.ar    1  UNL1        0.0636
     17 CL          4.1184    0.6458    3.0620 Cl      1  UNL1       -0.0816
     18 C          -0.2827    0.0413   -0.1332 C.ar    1  UNL1       -0.0042
     19 C          -1.5100    0.5765   -0.3602 C.ar    1  UNL1        0.1630
     20 O          -2.6643   -0.1658   -0.3677 O.3     1  UNL1       -0.4851
     21 C          -2.7564   -1.5258   -0.1531 C.3     1  UNL1        0.1004
     22 C          -3.6539   -1.7685    1.0682 C.3     1  UNL1       -0.0158
     23 C          -5.0426   -1.9501    0.5428 C.3     1  UNL1       -0.0496
     24 C          -4.9653   -1.6501   -0.9322 C.3     1  UNL1       -0.0496
     25 C          -3.5794   -2.1656   -1.2788 C.3     1  UNL1       -0.0158
     26 H          -4.0303    4.1786   -0.9470 H       1  UNL1        0.0660
     27 H          -2.3157    4.5395   -0.4208 H       1  UNL1        0.0660
     28 H          -2.6675    4.0949   -2.1345 H       1  UNL1        0.0660
     29 H          -0.4478    3.7996   -0.7732 H       1  UNL1        0.0655
     30 H           1.6768    2.7658   -0.3626 H       1  UNL1        0.0626
     31 H           3.4477    1.8769   -0.0147 H       1  UNL1        0.1552
     32 H           7.0666   -1.6439   -1.1337 H       1  UNL1        0.0633
     33 H           7.7744   -1.8882    1.1985 H       1  UNL1        0.0618
     34 H           6.4660   -0.8745    3.0333 H       1  UNL1        0.0633
     35 H          -0.1633   -1.0147    0.0548 H       1  UNL1        0.0663
     36 H          -1.8433   -2.0806    0.0421 H       1  UNL1        0.0733
     37 H          -3.5430   -0.9009    1.7506 H       1  UNL1        0.0301
     38 H          -3.3453   -2.6873    1.6103 H       1  UNL1        0.0301
     39 H          -5.7655   -1.3173    1.0822 H       1  UNL1        0.0266
     40 H          -5.3584   -3.0310    0.6216 H       1  UNL1        0.0266
     41 H          -5.7635   -2.1584   -1.4967 H       1  UNL1        0.0266
     42 H          -4.9461   -0.5477   -1.1211 H       1  UNL1        0.0266
     43 H          -3.2984   -1.7441   -2.2604 H       1  UNL1        0.0301
     44 H          -3.5750   -3.2561   -1.2274 H       1  UNL1        0.0301
@<TRIPOS>BOND
     1     1     2    1
     2     2     3    1
     3     3     4   ar
     4     4     5   ar
     5     5     6   ar
     6     6     7    1
     7     7     8    2
     8     7     9   am
     9     9    10    1
    10    10    11   ar
    11    11    12    1
    12    11    13   ar
    13    13    14   ar
    14    14    15   ar
    15    15    16   ar
    16    16    17    1
    17     6    18   ar
    18    18    19   ar
    19    19    20    1
    20    20    21    1
    21    21    22    1
    22    22    23    1
    23    23    24    1
    24    24    25    1
    25    19     3   ar
    26    25    21    1
    27    16    10   ar
    28     1    26    1
    29     1    27    1
    30     1    28    1
    31     4    29    1
    32     5    30    1
    33     9    31    1
    34    13    32    1
    35    14    33    1
    36    15    34    1
    37    18    35    1
    38    21    36    1
    39    22    37    1
    40    22    38    1
    41    23    39    1
    42    23    40    1
    43    24    41    1
    44    24    42    1
    45    25    43    1
    46    25    44    1
