
     RDKit          3D

 64 69  0  0  0  0  0  0  0  0999 V2000
   -2.1774   -0.7806   -2.5748 C   0  0  0  0  0  0  0  0  0  0  0  0
   -1.8260   -0.4710   -1.0516 C   0  0  2  0  0  0  0  0  0  0  0  0
   -2.9893    0.2405   -0.6145 N   0  0  0  0  0  0  0  0  0  0  0  0
   -4.1693   -0.5953   -0.4446 C   0  0  0  0  0  0  0  0  0  0  0  0
   -3.9686   -1.8577   -0.7012 O   0  0  0  0  0  0  0  0  0  0  0  0
   -5.4615   -0.1854   -0.0673 C   0  0  0  0  0  0  0  0  0  0  0  0
   -6.5865   -1.0097   -0.2609 C   0  0  0  0  0  0  0  0  0  0  0  0
   -6.5412   -2.2603   -0.9595 N   0  0  0  0  0  0  0  0  0  0  0  0
   -7.6114   -0.3575    0.2616 N   0  0  0  0  0  0  0  0  0  0  0  0
   -7.2192    0.7931    0.7582 N   0  0  0  0  0  0  0  0  0  0  0  0
   -7.8797    1.7915    1.3615 C   0  0  0  0  0  0  0  0  0  0  0  0
   -7.2190    2.9133    1.7637 C   0  0  0  0  0  0  0  0  0  0  0  0
   -5.8478    3.0781    1.5728 C   0  0  0  0  0  0  0  0  0  0  0  0
   -5.2366    2.0118    0.9527 N   0  0  0  0  0  0  0  0  0  0  0  0
   -5.9047    0.9405    0.5732 C   0  0  0  0  0  0  0  0  0  0  0  0
   -0.5262    0.0132   -1.0305 C   0  0  0  0  0  0  0  0  0  0  0  0
   -0.1320    1.2375   -1.8197 C   0  0  0  0  0  0  0  0  0  0  0  0
    1.1274    1.5486   -1.9036 C   0  0  0  0  0  0  0  0  0  0  0  0
    1.5040    2.6785   -2.6523 C   0  0  0  0  0  0  0  0  0  0  0  0
    2.8104    3.0777   -2.8023 C   0  0  0  0  0  0  0  0  0  0  0  0
    3.8082    2.3812   -2.2108 C   0  0  0  0  0  0  0  0  0  0  0  0
    3.3888    1.2166   -1.4399 C   0  0  0  0  0  0  0  0  0  0  0  0
    4.5466    0.8726   -0.4964 C   0  0  0  0  0  0  0  0  0  0  0  0
    5.5488    0.5697    0.2918 C   0  0  0  0  0  0  0  0  0  0  0  0
    6.6404    0.2605    1.1282 C   0  0  0  0  0  0  0  0  0  0  0  0
    7.6860   -0.5503    0.7320 C   0  0  0  0  0  0  0  0  0  0  0  0
    8.5480   -0.7432    1.7551 N   0  0  0  0  0  0  0  0  0  0  0  0
    7.9982   -0.0393    2.7813 N   0  0  0  0  0  0  0  0  0  0  0  0
    8.5844   -0.0570    4.0885 C   0  0  0  0  0  0  0  0  0  0  0  0
    6.8197    0.5929    2.4170 C   0  0  0  0  0  0  0  0  0  0  0  0
    2.2650    0.8249   -1.2938 C   0  0  0  0  0  0  0  0  0  0  0  0
    1.7898   -0.3148   -0.5622 C   0  0  0  0  0  0  0  0  0  0  0  0
    2.7562   -0.9518   -0.0194 O   0  0  0  0  0  0  0  0  0  0  0  0
    0.5736   -0.5218   -0.5538 N   0  0  0  0  0  0  0  0  0  0  0  0
    0.3164   -1.9504   -0.0257 C   0  0  0  0  0  0  0  0  0  0  0  0
    0.6093   -2.2500    1.2480 C   0  0  0  0  0  0  0  0  0  0  0  0
    0.6647   -3.5340    1.7102 C   0  0  0  0  0  0  0  0  0  0  0  0
    0.3677   -4.5841    0.6641 C   0  0  0  0  0  0  0  0  0  0  0  0
    0.0835   -4.2171   -0.5718 C   0  0  0  0  0  0  0  0  0  0  0  0
    0.0368   -2.8790   -0.9805 C   0  0  0  0  0  0  0  0  0  0  0  0
   -2.9129   -0.0242   -2.8800 H   0  0  0  0  0  0  0  0  0  0  0  0
   -2.6276   -1.7673   -2.5872 H   0  0  0  0  0  0  0  0  0  0  0  0
   -1.1921   -0.7525   -3.0962 H   0  0  0  0  0  0  0  0  0  0  0  0
   -1.9082   -1.5237   -0.6454 H   0  0  0  0  0  0  0  0  0  0  0  0
   -3.0935    1.2491   -0.4516 H   0  0  0  0  0  0  0  0  0  0  0  0
   -7.1023   -2.4182   -1.8596 H   0  0  0  0  0  0  0  0  0  0  0  0
   -5.9824   -3.0532   -0.6309 H   0  0  0  0  0  0  0  0  0  0  0  0
   -8.9474    1.7156    1.5645 H   0  0  0  0  0  0  0  0  0  0  0  0
   -7.7810    3.7237    2.2634 H   0  0  0  0  0  0  0  0  0  0  0  0
   -5.3221    3.9592    1.8705 H   0  0  0  0  0  0  0  0  0  0  0  0
   -0.9946    1.7117   -2.2394 H   0  0  0  0  0  0  0  0  0  0  0  0
    0.7518    3.2817   -3.1315 H   0  0  0  0  0  0  0  0  0  0  0  0
    3.0598    3.9931   -3.3744 H   0  0  0  0  0  0  0  0  0  0  0  0
    4.8444    2.6212   -2.2792 H   0  0  0  0  0  0  0  0  0  0  0  0
    7.8119   -1.0048   -0.2736 H   0  0  0  0  0  0  0  0  0  0  0  0
    9.4457    0.6107    4.2517 H   0  0  0  0  0  0  0  0  0  0  0  0
    7.8378    0.0429    4.9149 H   0  0  0  0  0  0  0  0  0  0  0  0
    9.0248   -1.0965    4.2973 H   0  0  0  0  0  0  0  0  0  0  0  0
    6.1777    1.2106    2.9958 H   0  0  0  0  0  0  0  0  0  0  0  0
    0.7919   -1.4159    1.9710 H   0  0  0  0  0  0  0  0  0  0  0  0
    0.9089   -3.8650    2.6715 H   0  0  0  0  0  0  0  0  0  0  0  0
    0.4226   -5.5803    0.9925 H   0  0  0  0  0  0  0  0  0  0  0  0
   -0.1780   -4.9854   -1.3613 H   0  0  0  0  0  0  0  0  0  0  0  0
   -0.2129   -2.6934   -2.0057 H   0  0  0  0  0  0  0  0  0  0  0  0
  1  2  1  0
  2  3  1  0
  3  4  1  0
  4  5  2  0
  4  6  1  0
  6  7  1  0
  7  8  1  0
  7  9  2  0
  9 10  1  0
 10 11  1  0
 11 12  2  0
 12 13  1  0
 13 14  2  0
 14 15  1  0
  2 16  1  0
 16 17  2  0
 17 18  1  0
 18 19  2  0
 19 20  1  0
 20 21  2  0
 21 22  1  0
 22 23  1  0
 23 24  3  0
 24 25  1  0
 25 26  1  0
 26 27  2  0
 27 28  1  0
 28 29  1  0
 28 30  1  0
 22 31  2  0
 31 32  1  0
 32 33  2  0
 32 34  1  0
 34 35  1  0
 35 36  2  0
 36 37  1  0
 37 38  2  0
 38 39  1  0
 39 40  2  0
 15  6  2  0
 34 16  1  0
 40 35  1  0
 15 10  1  0
 31 18  1  0
 30 25  2  0
  1 41  1  0
  1 42  1  0
  1 43  1  0
  2 44  1  1
  3 45  1  0
  8 46  1  0
  8 47  1  0
 11 48  1  0
 12 49  1  0
 13 50  1  0
 17 51  1  0
 19 52  1  0
 20 53  1  0
 21 54  1  0
 26 55  1  0
 29 56  1  0
 29 57  1  0
 29 58  1  0
 30 59  1  0
 36 60  1  0
 37 61  1  0
 38 62  1  0
 39 63  1  0
 40 64  1  0
M  END
$$$$
