@<TRIPOS>MOLECULE
*****
 64 69 0 0 0
SMALL
GASTEIGER

@<TRIPOS>ATOM
      1 C          -2.1774   -0.7806   -2.5748 C.3     1  UNL1       -0.0411
      2 C          -1.8260   -0.4710   -1.0516 C.3     1  UNL1        0.0614
      3 N          -2.9893    0.2405   -0.6145 N.am    1  UNL1       -0.3032
      4 C          -4.1693   -0.5953   -0.4446 C.2     1  UNL1        0.2516
      5 O          -3.9686   -1.8577   -0.7012 O.2     1  UNL1       -0.2699
      6 C          -5.4615   -0.1854   -0.0673 C.ar    1  UNL1        0.1218
      7 C          -6.5865   -1.0097   -0.2609 C.ar    1  UNL1        0.1529
      8 N          -6.5412   -2.2603   -0.9595 N.pl3   1  UNL1       -0.3411
      9 N          -7.6114   -0.3575    0.2616 N.ar    1  UNL1       -0.1495
     10 N          -7.2192    0.7931    0.7582 N.ar    1  UNL1       -0.2192
     11 C          -7.8797    1.7915    1.3615 C.ar    1  UNL1        0.0329
     12 C          -7.2190    2.9133    1.7637 C.ar    1  UNL1       -0.0253
     13 C          -5.8478    3.0781    1.5728 C.ar    1  UNL1        0.0314
     14 N          -5.2366    2.0118    0.9527 N.ar    1  UNL1       -0.2354
     15 C          -5.9047    0.9405    0.5732 C.ar    1  UNL1        0.1695
     16 C          -0.5262    0.0132   -1.0305 C.ar    1  UNL1        0.0477
     17 C          -0.1320    1.2375   -1.8197 C.ar    1  UNL1       -0.0321
     18 C           1.1274    1.5486   -1.9036 C.ar    1  UNL1       -0.0098
     19 C           1.5040    2.6785   -2.6523 C.ar    1  UNL1       -0.0537
     20 C           2.8104    3.0777   -2.8023 C.ar    1  UNL1       -0.0600
     21 C           3.8082    2.3812   -2.2108 C.ar    1  UNL1       -0.0455
     22 C           3.3888    1.2166   -1.4399 C.ar    1  UNL1        0.0382
     23 C           4.5466    0.8726   -0.4964 C.1     1  UNL1       -0.0602
     24 C           5.5488    0.5697    0.2918 C.1     1  UNL1       -0.0579
     25 C           6.6404    0.2605    1.1282 C.ar    1  UNL1        0.0626
     26 C           7.6860   -0.5503    0.7320 C.ar    1  UNL1        0.0648
     27 N           8.5480   -0.7432    1.7551 N.ar    1  UNL1       -0.1787
     28 N           7.9982   -0.0393    2.7813 N.ar    1  UNL1       -0.2733
     29 C           8.5844   -0.0570    4.0885 C.3     1  UNL1        0.0302
     30 C           6.8197    0.5929    2.4170 C.ar    1  UNL1        0.0406
     31 C           2.2650    0.8249   -1.2938 C.ar    1  UNL1        0.0624
     32 C           1.7898   -0.3148   -0.5622 C.ar    1  UNL1        0.2649
     33 O           2.7562   -0.9518   -0.0194 O.2     1  UNL1       -0.2666
     34 N           0.5736   -0.5218   -0.5538 N.ar    1  UNL1       -0.2789
     35 C           0.3164   -1.9504   -0.0257 C.ar    1  UNL1        0.0498
     36 C           0.6093   -2.2500    1.2480 C.ar    1  UNL1       -0.0377
     37 C           0.6647   -3.5340    1.7102 C.ar    1  UNL1       -0.0598
     38 C           0.3677   -4.5841    0.6641 C.ar    1  UNL1       -0.0616
     39 C           0.0835   -4.2171   -0.5718 C.ar    1  UNL1       -0.0598
     40 C           0.0368   -2.8790   -0.9805 C.ar    1  UNL1       -0.0377
     41 H          -2.9129   -0.0242   -2.8800 H       1  UNL1        0.0251
     42 H          -2.6276   -1.7673   -2.5872 H       1  UNL1        0.0251
     43 H          -1.1921   -0.7525   -3.0962 H       1  UNL1        0.0251
     44 H          -1.9082   -1.5237   -0.6454 H       1  UNL1        0.0560
     45 H          -3.0935    1.2491   -0.4516 H       1  UNL1        0.1497
     46 H          -7.1023   -2.4182   -1.8596 H       1  UNL1        0.1438
     47 H          -5.9824   -3.0532   -0.6309 H       1  UNL1        0.1438
     48 H          -8.9474    1.7156    1.5645 H       1  UNL1        0.0831
     49 H          -7.7810    3.7237    2.2634 H       1  UNL1        0.0648
     50 H          -5.3221    3.9592    1.8705 H       1  UNL1        0.0831
     51 H          -0.9946    1.7117   -2.2394 H       1  UNL1        0.0642
     52 H           0.7518    3.2817   -3.1315 H       1  UNL1        0.0624
     53 H           3.0598    3.9931   -3.3744 H       1  UNL1        0.0618
     54 H           4.8444    2.6212   -2.2792 H       1  UNL1        0.0630
     55 H           7.8119   -1.0048   -0.2736 H       1  UNL1        0.0860
     56 H           9.4457    0.6107    4.2517 H       1  UNL1        0.0473
     57 H           7.8378    0.0429    4.9149 H       1  UNL1        0.0473
     58 H           9.0248   -1.0965    4.2973 H       1  UNL1        0.0473
     59 H           6.1777    1.2106    2.9958 H       1  UNL1        0.0838
     60 H           0.7919   -1.4159    1.9710 H       1  UNL1        0.0638
     61 H           0.9089   -3.8650    2.6715 H       1  UNL1        0.0618
     62 H           0.4226   -5.5803    0.9925 H       1  UNL1        0.0618
     63 H          -0.1780   -4.9854   -1.3613 H       1  UNL1        0.0618
     64 H          -0.2129   -2.6934   -2.0057 H       1  UNL1        0.0638
@<TRIPOS>BOND
     1     1     2    1
     2     2     3    1
     3     3     4   am
     4     4     5    2
     5     4     6    1
     6     6     7   ar
     7     7     8    1
     8     7     9   ar
     9     9    10   ar
    10    10    11   ar
    11    11    12   ar
    12    12    13   ar
    13    13    14   ar
    14    14    15   ar
    15     2    16    1
    16    16    17   ar
    17    17    18   ar
    18    18    19   ar
    19    19    20   ar
    20    20    21   ar
    21    21    22   ar
    22    22    23    1
    23    23    24    3
    24    24    25    1
    25    25    26   ar
    26    26    27   ar
    27    27    28   ar
    28    28    29    1
    29    28    30   ar
    30    22    31   ar
    31    31    32   ar
    32    32    33    2
    33    32    34   ar
    34    34    35    1
    35    35    36   ar
    36    36    37   ar
    37    37    38   ar
    38    38    39   ar
    39    39    40   ar
    40    15     6   ar
    41    34    16   ar
    42    40    35   ar
    43    15    10   ar
    44    31    18   ar
    45    30    25   ar
    46     1    41    1
    47     1    42    1
    48     1    43    1
    49     2    44    1
    50     3    45    1
    51     8    46    1
    52     8    47    1
    53    11    48    1
    54    12    49    1
    55    13    50    1
    56    17    51    1
    57    19    52    1
    58    20    53    1
    59    21    54    1
    60    26    55    1
    61    29    56    1
    62    29    57    1
    63    29    58    1
    64    30    59    1
    65    36    60    1
    66    37    61    1
    67    38    62    1
    68    39    63    1
    69    40    64    1
