@<TRIPOS>MOLECULE
*****
 23 22 0 0 0
SMALL
GASTEIGER

@<TRIPOS>ATOM
      1 N          -3.2100    1.3563    0.4104 N.am    0  UNK0       -0.3133
      2 C          -2.2323    0.6948   -0.3928 C.2     0  UNK0        0.2977
      3 O          -2.2013    0.8148   -1.6397 O.2     0  UNK0       -0.2531
      4 N          -1.2472   -0.1375    0.2348 N.am    1  GLU1       -0.2864
      5 CA         -0.2182   -0.8460   -0.5031 C.3     1  GLU1        0.1219
      6 CB          1.1669   -0.4073   -0.0221 C.3     1  GLU1       -0.0140
      7 CG          1.3081    1.0675   -0.2508 C.3     1  GLU1        0.0470
      8 CD          2.6524    1.5176    0.2113 C.2     1  GLU1        0.3048
      9 OE1         3.6266    0.7060    0.7670 O.3     1  GLU1       -0.4806
     10 OE2         2.8631    2.7658    0.0552 O.2     1  GLU1       -0.2510
     11 C          -0.3997   -2.3097   -0.3046 C.2     1  GLU1        0.3253
     12 O          -1.2765   -3.1351    0.3855 O.3     1  GLU1       -0.4793
     13 OXT         0.4725   -2.9937   -0.9263 O.2     1  GLU1       -0.2489
     14 H          -4.2101    1.4041    0.1030 H       0  UNK0        0.1465
     15 H          -2.9916    1.8149    1.3200 H       0  UNK0        0.1465
     16 H          -1.2116   -0.2852    1.2776 H       1  GLU1        0.1511
     17 HA         -0.3292   -0.6357   -1.5829 H       1  GLU1        0.0615
     18 HB1         1.9327   -0.9664   -0.5934 H       1  GLU1        0.0294
     19 HB2         1.2479   -0.5865    1.0578 H       1  GLU1        0.0294
     20 HG1         0.5302    1.5990    0.3352 H       1  GLU1        0.0378
     21 HG2         1.1869    1.3296   -1.3149 H       1  GLU1        0.0378
     22 HE1         4.2901    1.1443    1.3986 H       1  GLU1        0.2951
     23 H          -1.7499   -3.9117   -0.0259 H       1  GLU1        0.2951
@<TRIPOS>BOND
     1     1     2   am
     2     2     3    2
     3     2     4   am
     4     4     5    1
     5     5     6    1
     6     6     7    1
     7     7     8    1
     8     8     9    1
     9     8    10    2
    10     5    11    1
    11    11    12    1
    12    11    13    2
    13     1    14    1
    14     1    15    1
    15     4    16    1
    16     5    17    1
    17     6    18    1
    18     6    19    1
    19     7    20    1
    20     7    21    1
    21     9    22    1
    22    12    23    1
