
     RDKit          3D

 61 64  0  0  0  0  0  0  0  0999 V2000
   -5.0176    3.1205    0.0704 C   0  0  0  0  0  0  0  0  0  0  0  0
   -3.7022    3.0593   -0.4887 N   0  0  0  0  0  0  0  0  0  0  0  0
   -2.6647    2.7531    0.4463 C   0  0  0  0  0  0  0  0  0  0  0  0
   -2.4466    1.2587    0.3851 C   0  0  2  0  0  0  0  0  0  0  0  0
   -0.9906    0.9927    0.3382 C   0  0  0  0  0  0  0  0  0  0  0  0
   -0.4242    0.2753    1.3685 C   0  0  0  0  0  0  0  0  0  0  0  0
    0.9259    0.0093    1.3586 C   0  0  0  0  0  0  0  0  0  0  0  0
    1.7640    0.4399    0.3352 C   0  0  0  0  0  0  0  0  0  0  0  0
    3.1679    0.1068    0.4214 C   0  0  0  0  0  0  0  0  0  0  0  0
    4.0044    0.4845   -0.5105 C   0  0  0  0  0  0  0  0  0  0  0  0
    5.4418    0.1660   -0.4606 C   0  0  0  0  0  0  0  0  0  0  0  0
    6.2074    0.5506   -1.3801 O   0  0  0  0  0  0  0  0  0  0  0  0
    6.0056   -0.5652    0.5935 N   0  0  0  0  0  0  0  0  0  0  0  0
    7.4227   -0.8449    0.5841 C   0  0  0  0  0  0  0  0  0  0  0  0
    7.9218   -1.9835   -0.0068 C   0  0  0  0  0  0  0  0  0  0  0  0
    9.2910   -2.2303   -0.0025 C   0  0  0  0  0  0  0  0  0  0  0  0
   10.1742   -1.3390    0.5939 C   0  0  0  0  0  0  0  0  0  0  0  0
    9.6793   -0.2147    1.1772 C   0  0  0  0  0  0  0  0  0  0  0  0
    8.3178    0.0230    1.1685 C   0  0  0  0  0  0  0  0  0  0  0  0
    7.8394    1.1969    1.7816 N   0  0  0  0  0  0  0  0  0  0  0  0
    1.1991    1.1492   -0.6817 C   0  0  0  0  0  0  0  0  0  0  0  0
   -0.1735    1.4225   -0.6766 C   0  0  0  0  0  0  0  0  0  0  0  0
   -3.1409    0.7867   -0.8773 C   0  0  1  0  0  0  0  0  0  0  0  0
   -4.2687   -0.0769   -0.4981 C   0  0  0  0  0  0  0  0  0  0  0  0
   -4.5308   -0.3229    0.7292 O   0  0  0  0  0  0  0  0  0  0  0  0
   -5.1428   -0.6971   -1.4354 N   0  0  0  0  0  0  0  0  0  0  0  0
   -6.2262   -1.5283   -1.0317 C   0  0  0  0  0  0  0  0  0  0  0  0
   -7.4797   -1.0000   -0.7919 C   0  0  0  0  0  0  0  0  0  0  0  0
   -8.5445   -1.7967   -0.3980 C   0  0  0  0  0  0  0  0  0  0  0  0
   -8.3938   -3.1569   -0.2289 C   0  0  0  0  0  0  0  0  0  0  0  0
   -9.7459   -4.1691    0.2713 Cl  0  0  0  0  0  0  0  0  0  0  0  0
   -7.1445   -3.6907   -0.4667 C   0  0  0  0  0  0  0  0  0  0  0  0
   -6.0878   -2.8909   -0.8590 C   0  0  0  0  0  0  0  0  0  0  0  0
   -3.5481    2.0705   -1.5252 C   0  0  0  0  0  0  0  0  0  0  0  0
   -5.3280    4.1965    0.2041 H   0  0  0  0  0  0  0  0  0  0  0  0
   -5.7564    2.6939   -0.6674 H   0  0  0  0  0  0  0  0  0  0  0  0
   -5.1081    2.6372    1.0647 H   0  0  0  0  0  0  0  0  0  0  0  0
   -1.7346    3.2711    0.1220 H   0  0  0  0  0  0  0  0  0  0  0  0
   -2.9216    3.0905    1.4891 H   0  0  0  0  0  0  0  0  0  0  0  0
   -2.9074    0.8253    1.2952 H   0  0  0  0  0  0  0  0  0  0  0  0
   -0.9953   -0.1007    2.2067 H   0  0  0  0  0  0  0  0  0  0  0  0
    1.3682   -0.5563    2.1724 H   0  0  0  0  0  0  0  0  0  0  0  0
    3.5275   -0.4578    1.2615 H   0  0  0  0  0  0  0  0  0  0  0  0
    3.6768    1.0647   -1.3882 H   0  0  0  0  0  0  0  0  0  0  0  0
    5.4557   -0.9258    1.3978 H   0  0  0  0  0  0  0  0  0  0  0  0
    7.2704   -2.7019   -0.4812 H   0  0  0  0  0  0  0  0  0  0  0  0
    9.7206   -3.1161   -0.4579 H   0  0  0  0  0  0  0  0  0  0  0  0
   11.2406   -1.5573    0.5825 H   0  0  0  0  0  0  0  0  0  0  0  0
   10.3596    0.5019    1.6536 H   0  0  0  0  0  0  0  0  0  0  0  0
    7.0148    1.1234    2.4087 H   0  0  0  0  0  0  0  0  0  0  0  0
    8.3218    2.0896    1.5889 H   0  0  0  0  0  0  0  0  0  0  0  0
    1.7786    1.5165   -1.5081 H   0  0  0  0  0  0  0  0  0  0  0  0
   -0.6227    1.9845   -1.4819 H   0  0  0  0  0  0  0  0  0  0  0  0
   -2.4015    0.2779   -1.5268 H   0  0  0  0  0  0  0  0  0  0  0  0
   -4.9915   -0.5430   -2.4442 H   0  0  0  0  0  0  0  0  0  0  0  0
   -7.6163    0.0823   -0.9222 H   0  0  0  0  0  0  0  0  0  0  0  0
   -9.5377   -1.3769   -0.2081 H   0  0  0  0  0  0  0  0  0  0  0  0
   -7.0056   -4.7567   -0.3395 H   0  0  0  0  0  0  0  0  0  0  0  0
   -5.0958   -3.2934   -1.0513 H   0  0  0  0  0  0  0  0  0  0  0  0
   -4.5634    1.9110   -1.9660 H   0  0  0  0  0  0  0  0  0  0  0  0
   -2.8380    2.4048   -2.3074 H   0  0  0  0  0  0  0  0  0  0  0  0
  1  2  1  0
  2  3  1  0
  3  4  1  0
  4  5  1  0
  5  6  2  0
  6  7  1  0
  7  8  2  0
  8  9  1  0
  9 10  2  0
 10 11  1  0
 11 12  2  0
 11 13  1  0
 13 14  1  0
 14 15  2  0
 15 16  1  0
 16 17  2  0
 17 18  1  0
 18 19  2  0
 19 20  1  0
  8 21  1  0
 21 22  2  0
  4 23  1  0
 23 24  1  0
 24 25  2  0
 24 26  1  0
 26 27  1  0
 27 28  2  0
 28 29  1  0
 29 30  2  0
 30 31  1  0
 30 32  1  0
 32 33  2  0
 23 34  1  0
 34  2  1  0
 22  5  1  0
 33 27  1  0
 19 14  1  0
  1 35  1  0
  1 36  1  0
  1 37  1  0
  3 38  1  0
  3 39  1  0
  4 40  1  1
  6 41  1  0
  7 42  1  0
  9 43  1  0
 10 44  1  0
 13 45  1  0
 15 46  1  0
 16 47  1  0
 17 48  1  0
 18 49  1  0
 20 50  1  0
 20 51  1  0
 21 52  1  0
 22 53  1  0
 23 54  1  6
 26 55  1  0
 28 56  1  0
 29 57  1  0
 32 58  1  0
 33 59  1  0
 34 60  1  0
 34 61  1  0
M  END
$$$$
