@<TRIPOS>MOLECULE
*****
 61 64 0 0 0
SMALL
GASTEIGER

@<TRIPOS>ATOM
      1 C          -5.0176    3.1205    0.0704 C.3     1  UNL1       -0.0127
      2 N          -3.7022    3.0593   -0.4887 N.3     1  UNL1       -0.3040
      3 C          -2.6647    2.7531    0.4463 C.3     1  UNL1        0.0062
      4 C          -2.4466    1.2587    0.3851 C.3     1  UNL1        0.0092
      5 C          -0.9906    0.9927    0.3382 C.ar    1  UNL1       -0.0423
      6 C          -0.4242    0.2753    1.3685 C.ar    1  UNL1       -0.0577
      7 C           0.9259    0.0093    1.3586 C.ar    1  UNL1       -0.0543
      8 C           1.7640    0.4399    0.3352 C.ar    1  UNL1       -0.0249
      9 C           3.1679    0.1068    0.4214 C.2     1  UNL1       -0.0497
     10 C           4.0044    0.4845   -0.5105 C.2     1  UNL1        0.0010
     11 C           5.4418    0.1660   -0.4606 C.2     1  UNL1        0.2411
     12 O           6.2074    0.5506   -1.3801 O.2     1  UNL1       -0.2705
     13 N           6.0056   -0.5652    0.5935 N.am    1  UNL1       -0.2804
     14 C           7.4227   -0.8449    0.5841 C.ar    1  UNL1        0.0545
     15 C           7.9218   -1.9835   -0.0068 C.ar    1  UNL1       -0.0387
     16 C           9.2910   -2.2303   -0.0025 C.ar    1  UNL1       -0.0599
     17 C          10.1742   -1.3390    0.5939 C.ar    1  UNL1       -0.0599
     18 C           9.6793   -0.2147    1.1772 C.ar    1  UNL1       -0.0392
     19 C           8.3178    0.0230    1.1685 C.ar    1  UNL1        0.0461
     20 N           7.8394    1.1969    1.7816 N.pl3   1  UNL1       -0.3565
     21 C           1.1991    1.1492   -0.6817 C.ar    1  UNL1       -0.0543
     22 C          -0.1735    1.4225   -0.6766 C.ar    1  UNL1       -0.0577
     23 C          -3.1409    0.7867   -0.8773 C.3     1  UNL1        0.0565
     24 C          -4.2687   -0.0769   -0.4981 C.2     1  UNL1        0.2221
     25 O          -4.5308   -0.3229    0.7292 O.2     1  UNL1       -0.2751
     26 N          -5.1428   -0.6971   -1.4354 N.am    1  UNL1       -0.2852
     27 C          -6.2262   -1.5283   -1.0317 C.ar    1  UNL1        0.0335
     28 C          -7.4797   -1.0000   -0.7919 C.ar    1  UNL1       -0.0391
     29 C          -8.5445   -1.7967   -0.3980 C.ar    1  UNL1       -0.0416
     30 C          -8.3938   -3.1569   -0.2289 C.ar    1  UNL1        0.0411
     31 CL         -9.7459   -4.1691    0.2713 Cl      1  UNL1       -0.0835
     32 C          -7.1445   -3.6907   -0.4667 C.ar    1  UNL1       -0.0416
     33 C          -6.0878   -2.8909   -0.8590 C.ar    1  UNL1       -0.0391
     34 C          -3.5481    2.0705   -1.5252 C.3     1  UNL1        0.0103
     35 H          -5.3280    4.1965    0.2041 H       1  UNL1        0.0391
     36 H          -5.7564    2.6939   -0.6674 H       1  UNL1        0.0391
     37 H          -5.1081    2.6372    1.0647 H       1  UNL1        0.0391
     38 H          -1.7346    3.2711    0.1220 H       1  UNL1        0.0433
     39 H          -2.9216    3.0905    1.4891 H       1  UNL1        0.0433
     40 H          -2.9074    0.8253    1.2952 H       1  UNL1        0.0369
     41 H          -0.9953   -0.1007    2.2067 H       1  UNL1        0.0621
     42 H           1.3682   -0.5563    2.1724 H       1  UNL1        0.0624
     43 H           3.5275   -0.4578    1.2615 H       1  UNL1        0.0625
     44 H           3.6768    1.0647   -1.3882 H       1  UNL1        0.0670
     45 H           5.4557   -0.9258    1.3978 H       1  UNL1        0.1552
     46 H           7.2704   -2.7019   -0.4812 H       1  UNL1        0.0637
     47 H           9.7206   -3.1161   -0.4579 H       1  UNL1        0.0618
     48 H          11.2406   -1.5573    0.5825 H       1  UNL1        0.0618
     49 H          10.3596    0.5019    1.6536 H       1  UNL1        0.0636
     50 H           7.0148    1.1234    2.4087 H       1  UNL1        0.1424
     51 H           8.3218    2.0896    1.5889 H       1  UNL1        0.1424
     52 H           1.7786    1.5165   -1.5081 H       1  UNL1        0.0624
     53 H          -0.6227    1.9845   -1.4819 H       1  UNL1        0.0621
     54 H          -2.4015    0.2779   -1.5268 H       1  UNL1        0.0413
     55 H          -4.9915   -0.5430   -2.4442 H       1  UNL1        0.1548
     56 H          -7.6163    0.0823   -0.9222 H       1  UNL1        0.0636
     57 H          -9.5377   -1.3769   -0.2081 H       1  UNL1        0.0633
     58 H          -7.0056   -4.7567   -0.3395 H       1  UNL1        0.0633
     59 H          -5.0958   -3.2934   -1.0513 H       1  UNL1        0.0636
     60 H          -4.5634    1.9110   -1.9660 H       1  UNL1        0.0434
     61 H          -2.8380    2.4048   -2.3074 H       1  UNL1        0.0434
@<TRIPOS>BOND
     1     1     2    1
     2     2     3    1
     3     3     4    1
     4     4     5    1
     5     5     6   ar
     6     6     7   ar
     7     7     8   ar
     8     8     9    1
     9     9    10    2
    10    10    11    1
    11    11    12    2
    12    11    13   am
    13    13    14    1
    14    14    15   ar
    15    15    16   ar
    16    16    17   ar
    17    17    18   ar
    18    18    19   ar
    19    19    20    1
    20     8    21   ar
    21    21    22   ar
    22     4    23    1
    23    23    24    1
    24    24    25    2
    25    24    26   am
    26    26    27    1
    27    27    28   ar
    28    28    29   ar
    29    29    30   ar
    30    30    31    1
    31    30    32   ar
    32    32    33   ar
    33    23    34    1
    34    34     2    1
    35    22     5   ar
    36    33    27   ar
    37    19    14   ar
    38     1    35    1
    39     1    36    1
    40     1    37    1
    41     3    38    1
    42     3    39    1
    43     4    40    1
    44     6    41    1
    45     7    42    1
    46     9    43    1
    47    10    44    1
    48    13    45    1
    49    15    46    1
    50    16    47    1
    51    17    48    1
    52    18    49    1
    53    20    50    1
    54    20    51    1
    55    21    52    1
    56    22    53    1
    57    23    54    1
    58    26    55    1
    59    28    56    1
    60    29    57    1
    61    32    58    1
    62    33    59    1
    63    34    60    1
    64    34    61    1
