@<TRIPOS>MOLECULE
*****
 91 97 0 0 0
SMALL
GASTEIGER

@<TRIPOS>ATOM
      1 C          12.8052   -0.2521   -0.0247 C.3     1  UNL1       -0.0497
      2 C          12.2270    1.1236   -0.0571 C.3     1  UNL1        0.0049
      3 C          13.1556    2.0202   -0.8667 C.3     1  UNL1       -0.0497
      4 N          10.9162    1.2018   -0.6684 N.3     1  UNL1       -0.2969
      5 C           9.9440    0.3912    0.0336 C.3     1  UNL1        0.0150
      6 C           8.8075   -0.0338   -0.8744 C.3     1  UNL1        0.0278
      7 N           8.5577    0.9339   -1.9125 N.am    1  UNL1       -0.2951
      8 C           7.2753    1.4555   -2.1415 C.2     1  UNL1        0.2467
      9 O           7.0707    2.2837   -3.0430 O.2     1  UNL1       -0.2700
     10 C           6.1752    1.0135   -1.3034 C.ar    1  UNL1        0.0370
     11 C           5.7493   -0.2949   -1.3347 C.ar    1  UNL1       -0.0479
     12 C           4.6866   -0.7197   -0.5148 C.ar    1  UNL1       -0.0397
     13 C           4.0626    0.1681    0.3258 C.ar    1  UNL1        0.0348
     14 N           3.0147   -0.2609    1.1495 N.am    1  UNL1       -0.2692
     15 C           1.6373   -0.2890    0.8215 C.2     1  UNL1        0.3081
     16 O           1.3030    0.0942   -0.3222 O.2     1  UNL1       -0.2522
     17 N           0.6400   -0.7296    1.7357 N.am    1  UNL1       -0.2692
     18 C          -0.7479   -0.7786    1.4485 C.ar    1  UNL1        0.0348
     19 C          -1.5837    0.2900    1.6274 C.ar    1  UNL1       -0.0398
     20 C          -2.9259    0.1475    1.3435 C.ar    1  UNL1       -0.0493
     21 C          -3.4817   -1.0299    0.8826 C.ar    1  UNL1        0.0194
     22 C          -4.9209   -1.1352    0.6167 C.ar    1  UNL1        0.1652
     23 N          -5.4952   -2.2820    0.2320 N.ar    1  UNL1       -0.2122
     24 C          -6.8282   -2.3850   -0.0094 C.ar    1  UNL1        0.1382
     25 C          -7.4547   -3.6639   -0.4354 C.3     1  UNL1        0.0233
     26 C          -8.1146   -3.5904   -1.7723 C.3     1  UNL1       -0.0197
     27 C          -9.4430   -2.8773   -1.6648 C.3     1  UNL1        0.0483
     28 O         -10.2635   -3.6198   -0.8195 O.3     1  UNL1       -0.3797
     29 C          -9.7880   -3.6671    0.4850 C.3     1  UNL1        0.0483
     30 C          -8.4024   -4.2037    0.6085 C.3     1  UNL1       -0.0197
     31 N          -7.5531   -1.2612    0.1596 N.ar    1  UNL1       -0.1991
     32 C          -7.0064   -0.0898    0.5460 C.ar    1  UNL1        0.2220
     33 N          -7.7375    1.0871    0.7366 N.pl3   1  UNL1       -0.2891
     34 C          -7.2130    2.4129    0.9196 C.3     1  UNL1        0.0500
     35 C          -8.0661    3.1760   -0.1097 C.3     1  UNL1       -0.0304
     36 C          -9.3897    2.4169   -0.1086 C.3     1  UNL1       -0.0304
     37 C          -9.1720    1.2023    0.8004 C.3     1  UNL1        0.0500
     38 C          -9.4951    1.6475    2.2192 C.3     1  UNL1        0.0663
     39 O          -8.9979    2.9393    2.3579 O.3     1  UNL1       -0.3761
     40 C          -7.6170    2.9090    2.2924 C.3     1  UNL1        0.0663
     41 N          -5.6694   -0.0538    0.7713 N.ar    1  UNL1       -0.1945
     42 C          -2.6319   -2.0969    0.7062 C.ar    1  UNL1       -0.0493
     43 C          -1.2689   -1.9708    0.9884 C.ar    1  UNL1       -0.0398
     44 C           4.4803    1.4770    0.3639 C.ar    1  UNL1       -0.0397
     45 C           5.5234    1.8894   -0.4421 C.ar    1  UNL1       -0.0479
     46 C           9.6604    1.3739   -2.7257 C.3     1  UNL1        0.0278
     47 C          10.9379    0.9318   -2.0849 C.3     1  UNL1        0.0150
     48 H          13.8767   -0.2566   -0.3504 H       1  UNL1        0.0245
     49 H          12.2450   -1.0105   -0.6005 H       1  UNL1        0.0245
     50 H          12.8466   -0.6032    1.0452 H       1  UNL1        0.0245
     51 H          12.1067    1.5326    0.9867 H       1  UNL1        0.0457
     52 H          13.9258    2.4060   -0.1510 H       1  UNL1        0.0245
     53 H          12.5567    2.8909   -1.1905 H       1  UNL1        0.0245
     54 H          13.5996    1.4569   -1.7043 H       1  UNL1        0.0245
     55 H          10.4528   -0.5386    0.3658 H       1  UNL1        0.0442
     56 H           9.5207    0.9066    0.8958 H       1  UNL1        0.0442
     57 H           7.9326   -0.2309   -0.2219 H       1  UNL1        0.0477
     58 H           9.0340   -0.9988   -1.3785 H       1  UNL1        0.0477
     59 H           6.2196   -1.0224   -1.9877 H       1  UNL1        0.0626
     60 H           4.4106   -1.7617   -0.5962 H       1  UNL1        0.0636
     61 H           3.2573   -0.6047    2.1250 H       1  UNL1        0.1564
     62 H           0.9756   -1.0353    2.6844 H       1  UNL1        0.1564
     63 H          -1.1403    1.2124    1.9896 H       1  UNL1        0.0636
     64 H          -3.5734    0.9965    1.4881 H       1  UNL1        0.0625
     65 H          -6.6268   -4.4161   -0.5018 H       1  UNL1        0.0381
     66 H          -7.4529   -3.1462   -2.5244 H       1  UNL1        0.0294
     67 H          -8.3496   -4.6351   -2.0812 H       1  UNL1        0.0294
     68 H          -9.9227   -2.9344   -2.6801 H       1  UNL1        0.0560
     69 H          -9.3037   -1.8497   -1.3313 H       1  UNL1        0.0560
     70 H          -9.9355   -2.7076    1.0215 H       1  UNL1        0.0560
     71 H         -10.4631   -4.4005    1.0190 H       1  UNL1        0.0560
     72 H          -8.4409   -5.3037    0.4921 H       1  UNL1        0.0294
     73 H          -8.0470   -3.9998    1.6421 H       1  UNL1        0.0294
     74 H          -6.1464    2.5109    0.7192 H       1  UNL1        0.0523
     75 H          -8.1629    4.2305    0.1458 H       1  UNL1        0.0284
     76 H          -7.5332    3.0119   -1.0933 H       1  UNL1        0.0284
     77 H          -9.5940    2.0435   -1.1180 H       1  UNL1        0.0284
     78 H         -10.2093    3.0633    0.2673 H       1  UNL1        0.0284
     79 H          -9.7230    0.3219    0.4747 H       1  UNL1        0.0523
     80 H          -8.9861    0.9676    2.9377 H       1  UNL1        0.0578
     81 H         -10.5824    1.6842    2.3153 H       1  UNL1        0.0578
     82 H          -7.2223    2.2820    3.1024 H       1  UNL1        0.0578
     83 H          -7.1908    3.9353    2.4103 H       1  UNL1        0.0578
     84 H          -3.0349   -3.0190    0.3514 H       1  UNL1        0.0625
     85 H          -0.6651   -2.8434    0.8273 H       1  UNL1        0.0636
     86 H           3.9679    2.1485    1.0353 H       1  UNL1        0.0636
     87 H           5.8674    2.9047   -0.4305 H       1  UNL1        0.0626
     88 H           9.6742    2.4966   -2.7264 H       1  UNL1        0.0477
     89 H           9.5206    0.9650   -3.7472 H       1  UNL1        0.0477
     90 H          11.7444    1.5724   -2.5217 H       1  UNL1        0.0442
     91 H          11.2099   -0.1129   -2.3411 H       1  UNL1        0.0442
@<TRIPOS>BOND
     1     1     2    1
     2     2     3    1
     3     2     4    1
     4     4     5    1
     5     5     6    1
     6     6     7    1
     7     7     8   am
     8     8     9    2
     9     8    10    1
    10    10    11   ar
    11    11    12   ar
    12    12    13   ar
    13    13    14    1
    14    14    15   am
    15    15    16    2
    16    15    17   am
    17    17    18    1
    18    18    19   ar
    19    19    20   ar
    20    20    21   ar
    21    21    22    1
    22    22    23   ar
    23    23    24   ar
    24    24    25    1
    25    25    26    1
    26    26    27    1
    27    27    28    1
    28    28    29    1
    29    29    30    1
    30    24    31   ar
    31    31    32   ar
    32    32    33    1
    33    33    34    1
    34    34    35    1
    35    35    36    1
    36    36    37    1
    37    37    38    1
    38    38    39    1
    39    39    40    1
    40    32    41   ar
    41    21    42   ar
    42    42    43   ar
    43    13    44   ar
    44    44    45   ar
    45     7    46    1
    46    46    47    1
    47    47     4    1
    48    45    10   ar
    49    43    18   ar
    50    41    22   ar
    51    30    25    1
    52    37    33    1
    53    40    34    1
    54     1    48    1
    55     1    49    1
    56     1    50    1
    57     2    51    1
    58     3    52    1
    59     3    53    1
    60     3    54    1
    61     5    55    1
    62     5    56    1
    63     6    57    1
    64     6    58    1
    65    11    59    1
    66    12    60    1
    67    14    61    1
    68    17    62    1
    69    19    63    1
    70    20    64    1
    71    25    65    1
    72    26    66    1
    73    26    67    1
    74    27    68    1
    75    27    69    1
    76    29    70    1
    77    29    71    1
    78    30    72    1
    79    30    73    1
    80    34    74    1
    81    35    75    1
    82    35    76    1
    83    36    77    1
    84    36    78    1
    85    37    79    1
    86    38    80    1
    87    38    81    1
    88    40    82    1
    89    40    83    1
    90    42    84    1
    91    43    85    1
    92    44    86    1
    93    45    87    1
    94    46    88    1
    95    46    89    1
    96    47    90    1
    97    47    91    1
