
     RDKit          3D

 91 97  0  0  0  0  0  0  0  0999 V2000
   12.8052   -0.2521   -0.0247 C   0  0  0  0  0  0  0  0  0  0  0  0
   12.2270    1.1236   -0.0571 C   0  0  0  0  0  0  0  0  0  0  0  0
   13.1556    2.0202   -0.8667 C   0  0  0  0  0  0  0  0  0  0  0  0
   10.9162    1.2018   -0.6684 N   0  0  0  0  0  0  0  0  0  0  0  0
    9.9440    0.3912    0.0336 C   0  0  0  0  0  0  0  0  0  0  0  0
    8.8075   -0.0338   -0.8744 C   0  0  0  0  0  0  0  0  0  0  0  0
    8.5577    0.9339   -1.9125 N   0  0  0  0  0  0  0  0  0  0  0  0
    7.2753    1.4555   -2.1415 C   0  0  0  0  0  0  0  0  0  0  0  0
    7.0707    2.2837   -3.0430 O   0  0  0  0  0  0  0  0  0  0  0  0
    6.1752    1.0135   -1.3034 C   0  0  0  0  0  0  0  0  0  0  0  0
    5.7493   -0.2949   -1.3347 C   0  0  0  0  0  0  0  0  0  0  0  0
    4.6866   -0.7197   -0.5148 C   0  0  0  0  0  0  0  0  0  0  0  0
    4.0626    0.1681    0.3258 C   0  0  0  0  0  0  0  0  0  0  0  0
    3.0147   -0.2609    1.1495 N   0  0  0  0  0  0  0  0  0  0  0  0
    1.6373   -0.2890    0.8215 C   0  0  0  0  0  0  0  0  0  0  0  0
    1.3030    0.0942   -0.3222 O   0  0  0  0  0  0  0  0  0  0  0  0
    0.6400   -0.7296    1.7357 N   0  0  0  0  0  0  0  0  0  0  0  0
   -0.7479   -0.7786    1.4485 C   0  0  0  0  0  0  0  0  0  0  0  0
   -1.5837    0.2900    1.6274 C   0  0  0  0  0  0  0  0  0  0  0  0
   -2.9259    0.1475    1.3435 C   0  0  0  0  0  0  0  0  0  0  0  0
   -3.4817   -1.0299    0.8826 C   0  0  0  0  0  0  0  0  0  0  0  0
   -4.9209   -1.1352    0.6167 C   0  0  0  0  0  0  0  0  0  0  0  0
   -5.4952   -2.2820    0.2320 N   0  0  0  0  0  0  0  0  0  0  0  0
   -6.8282   -2.3850   -0.0094 C   0  0  0  0  0  0  0  0  0  0  0  0
   -7.4547   -3.6639   -0.4354 C   0  0  0  0  0  0  0  0  0  0  0  0
   -8.1146   -3.5904   -1.7723 C   0  0  0  0  0  0  0  0  0  0  0  0
   -9.4430   -2.8773   -1.6648 C   0  0  0  0  0  0  0  0  0  0  0  0
  -10.2635   -3.6198   -0.8195 O   0  0  0  0  0  0  0  0  0  0  0  0
   -9.7880   -3.6671    0.4850 C   0  0  0  0  0  0  0  0  0  0  0  0
   -8.4024   -4.2037    0.6085 C   0  0  0  0  0  0  0  0  0  0  0  0
   -7.5531   -1.2612    0.1596 N   0  0  0  0  0  0  0  0  0  0  0  0
   -7.0064   -0.0898    0.5460 C   0  0  0  0  0  0  0  0  0  0  0  0
   -7.7375    1.0871    0.7366 N   0  0  0  0  0  0  0  0  0  0  0  0
   -7.2130    2.4129    0.9196 C   0  0  0  0  0  0  0  0  0  0  0  0
   -8.0661    3.1760   -0.1097 C   0  0  0  0  0  0  0  0  0  0  0  0
   -9.3897    2.4169   -0.1086 C   0  0  0  0  0  0  0  0  0  0  0  0
   -9.1720    1.2023    0.8004 C   0  0  0  0  0  0  0  0  0  0  0  0
   -9.4951    1.6475    2.2192 C   0  0  0  0  0  0  0  0  0  0  0  0
   -8.9979    2.9393    2.3579 O   0  0  0  0  0  0  0  0  0  0  0  0
   -7.6170    2.9090    2.2924 C   0  0  0  0  0  0  0  0  0  0  0  0
   -5.6694   -0.0538    0.7713 N   0  0  0  0  0  0  0  0  0  0  0  0
   -2.6319   -2.0969    0.7062 C   0  0  0  0  0  0  0  0  0  0  0  0
   -1.2689   -1.9708    0.9884 C   0  0  0  0  0  0  0  0  0  0  0  0
    4.4803    1.4770    0.3639 C   0  0  0  0  0  0  0  0  0  0  0  0
    5.5234    1.8894   -0.4421 C   0  0  0  0  0  0  0  0  0  0  0  0
    9.6604    1.3739   -2.7257 C   0  0  0  0  0  0  0  0  0  0  0  0
   10.9379    0.9318   -2.0849 C   0  0  0  0  0  0  0  0  0  0  0  0
   13.8767   -0.2566   -0.3504 H   0  0  0  0  0  0  0  0  0  0  0  0
   12.2450   -1.0105   -0.6005 H   0  0  0  0  0  0  0  0  0  0  0  0
   12.8466   -0.6032    1.0452 H   0  0  0  0  0  0  0  0  0  0  0  0
   12.1067    1.5326    0.9867 H   0  0  0  0  0  0  0  0  0  0  0  0
   13.9258    2.4060   -0.1510 H   0  0  0  0  0  0  0  0  0  0  0  0
   12.5567    2.8909   -1.1905 H   0  0  0  0  0  0  0  0  0  0  0  0
   13.5996    1.4569   -1.7043 H   0  0  0  0  0  0  0  0  0  0  0  0
   10.4528   -0.5386    0.3658 H   0  0  0  0  0  0  0  0  0  0  0  0
    9.5207    0.9066    0.8958 H   0  0  0  0  0  0  0  0  0  0  0  0
    7.9326   -0.2309   -0.2219 H   0  0  0  0  0  0  0  0  0  0  0  0
    9.0340   -0.9988   -1.3785 H   0  0  0  0  0  0  0  0  0  0  0  0
    6.2196   -1.0224   -1.9877 H   0  0  0  0  0  0  0  0  0  0  0  0
    4.4106   -1.7617   -0.5962 H   0  0  0  0  0  0  0  0  0  0  0  0
    3.2573   -0.6047    2.1250 H   0  0  0  0  0  0  0  0  0  0  0  0
    0.9756   -1.0353    2.6844 H   0  0  0  0  0  0  0  0  0  0  0  0
   -1.1403    1.2124    1.9896 H   0  0  0  0  0  0  0  0  0  0  0  0
   -3.5734    0.9965    1.4881 H   0  0  0  0  0  0  0  0  0  0  0  0
   -6.6268   -4.4161   -0.5018 H   0  0  0  0  0  0  0  0  0  0  0  0
   -7.4529   -3.1462   -2.5244 H   0  0  0  0  0  0  0  0  0  0  0  0
   -8.3496   -4.6351   -2.0812 H   0  0  0  0  0  0  0  0  0  0  0  0
   -9.9227   -2.9344   -2.6801 H   0  0  0  0  0  0  0  0  0  0  0  0
   -9.3037   -1.8497   -1.3313 H   0  0  0  0  0  0  0  0  0  0  0  0
   -9.9355   -2.7076    1.0215 H   0  0  0  0  0  0  0  0  0  0  0  0
  -10.4631   -4.4005    1.0190 H   0  0  0  0  0  0  0  0  0  0  0  0
   -8.4409   -5.3037    0.4921 H   0  0  0  0  0  0  0  0  0  0  0  0
   -8.0470   -3.9998    1.6421 H   0  0  0  0  0  0  0  0  0  0  0  0
   -6.1464    2.5109    0.7192 H   0  0  0  0  0  0  0  0  0  0  0  0
   -8.1629    4.2305    0.1458 H   0  0  0  0  0  0  0  0  0  0  0  0
   -7.5332    3.0119   -1.0933 H   0  0  0  0  0  0  0  0  0  0  0  0
   -9.5940    2.0435   -1.1180 H   0  0  0  0  0  0  0  0  0  0  0  0
  -10.2093    3.0633    0.2673 H   0  0  0  0  0  0  0  0  0  0  0  0
   -9.7230    0.3219    0.4747 H   0  0  0  0  0  0  0  0  0  0  0  0
   -8.9861    0.9676    2.9377 H   0  0  0  0  0  0  0  0  0  0  0  0
  -10.5824    1.6842    2.3153 H   0  0  0  0  0  0  0  0  0  0  0  0
   -7.2223    2.2820    3.1024 H   0  0  0  0  0  0  0  0  0  0  0  0
   -7.1908    3.9353    2.4103 H   0  0  0  0  0  0  0  0  0  0  0  0
   -3.0349   -3.0190    0.3514 H   0  0  0  0  0  0  0  0  0  0  0  0
   -0.6651   -2.8434    0.8273 H   0  0  0  0  0  0  0  0  0  0  0  0
    3.9679    2.1485    1.0353 H   0  0  0  0  0  0  0  0  0  0  0  0
    5.8674    2.9047   -0.4305 H   0  0  0  0  0  0  0  0  0  0  0  0
    9.6742    2.4966   -2.7264 H   0  0  0  0  0  0  0  0  0  0  0  0
    9.5206    0.9650   -3.7472 H   0  0  0  0  0  0  0  0  0  0  0  0
   11.7444    1.5724   -2.5217 H   0  0  0  0  0  0  0  0  0  0  0  0
   11.2099   -0.1129   -2.3411 H   0  0  0  0  0  0  0  0  0  0  0  0
  1  2  1  0
  2  3  1  0
  2  4  1  0
  4  5  1  0
  5  6  1  0
  6  7  1  0
  7  8  1  0
  8  9  2  0
  8 10  1  0
 10 11  2  0
 11 12  1  0
 12 13  2  0
 13 14  1  0
 14 15  1  0
 15 16  2  0
 15 17  1  0
 17 18  1  0
 18 19  2  0
 19 20  1  0
 20 21  2  0
 21 22  1  0
 22 23  2  0
 23 24  1  0
 24 25  1  0
 25 26  1  0
 26 27  1  0
 27 28  1  0
 28 29  1  0
 29 30  1  0
 24 31  2  0
 31 32  1  0
 32 33  1  0
 33 34  1  0
 34 35  1  0
 35 36  1  0
 36 37  1  0
 37 38  1  0
 38 39  1  0
 39 40  1  0
 32 41  2  0
 21 42  1  0
 42 43  2  0
 13 44  1  0
 44 45  2  0
  7 46  1  0
 46 47  1  0
 47  4  1  0
 45 10  1  0
 43 18  1  0
 41 22  1  0
 30 25  1  0
 37 33  1  0
 40 34  1  0
  1 48  1  0
  1 49  1  0
  1 50  1  0
  2 51  1  0
  3 52  1  0
  3 53  1  0
  3 54  1  0
  5 55  1  0
  5 56  1  0
  6 57  1  0
  6 58  1  0
 11 59  1  0
 12 60  1  0
 14 61  1  0
 17 62  1  0
 19 63  1  0
 20 64  1  0
 25 65  1  0
 26 66  1  0
 26 67  1  0
 27 68  1  0
 27 69  1  0
 29 70  1  0
 29 71  1  0
 30 72  1  0
 30 73  1  0
 34 74  1  0
 35 75  1  0
 35 76  1  0
 36 77  1  0
 36 78  1  0
 37 79  1  0
 38 80  1  0
 38 81  1  0
 40 82  1  0
 40 83  1  0
 42 84  1  0
 43 85  1  0
 44 86  1  0
 45 87  1  0
 46 88  1  0
 46 89  1  0
 47 90  1  0
 47 91  1  0
M  END
$$$$
