@<TRIPOS>MOLECULE
*****
 72 77 0 0 0
SMALL
GASTEIGER

@<TRIPOS>ATOM
      1 C           7.8938    2.3409   -1.0318 C.3     1  UNL1       -0.0235
      2 C           7.6595    0.9190   -0.4805 C.3     1  UNL1        0.1238
      3 O           6.9553    0.2009   -1.4262 O.3     1  UNL1       -0.4831
      4 C           5.6392   -0.3146   -1.2375 C.ar    1  UNL1        0.1426
      5 C           4.8761   -0.1841   -0.1361 C.ar    1  UNL1        0.0121
      6 C           3.6621   -0.7145   -0.0889 C.ar    1  UNL1        0.0901
      7 N           2.6718   -0.7029    0.9705 N.ar    1  UNL1       -0.2924
      8 C           2.8833   -0.8124    2.2911 C.ar    1  UNL1        0.1019
      9 N           1.7315   -0.7596    2.9754 N.ar    1  UNL1       -0.2353
     10 C           0.7565   -0.6123    2.0648 C.ar    1  UNL1        0.0899
     11 C          -0.6085   -0.5053    2.2292 C.ar    1  UNL1       -0.0265
     12 C          -1.3937   -0.3593    1.1002 C.ar    1  UNL1       -0.0143
     13 C          -2.8188   -0.2479    1.2826 C.ar    1  UNL1        0.0004
     14 C          -3.5762    0.4893    0.4135 C.ar    1  UNL1       -0.0493
     15 C          -4.9530    0.5615    0.6396 C.ar    1  UNL1       -0.0213
     16 C          -5.5458   -0.0811    1.6957 C.ar    1  UNL1        0.1189
     17 N          -6.9404    0.0102    1.8802 N.pl3   1  UNL1       -0.3261
     18 C          -7.8625    0.7127    1.0197 C.3     1  UNL1        0.0243
     19 C          -9.2664    0.7190    1.6135 C.3     1  UNL1       -0.0217
     20 C         -10.2680    1.0670    0.5012 C.3     1  UNL1        0.0003
     21 N         -10.3482   -0.1052   -0.3162 N.3     1  UNL1       -0.3052
     22 C         -11.3184   -0.0127   -1.3651 C.3     1  UNL1       -0.0128
     23 C          -9.0993   -0.6247   -0.7377 C.3     1  UNL1        0.0003
     24 C          -7.8791    0.1450   -0.3811 C.3     1  UNL1       -0.0217
     25 N          -4.7755   -0.7953    2.5291 N.ar    1  UNL1       -0.2399
     26 C          -3.4290   -0.8808    2.3296 C.ar    1  UNL1        0.0374
     27 C          -0.8007   -0.3233   -0.1674 C.ar    1  UNL1       -0.0519
     28 C           0.5664   -0.4319   -0.3115 C.ar    1  UNL1       -0.0351
     29 C           1.3422   -0.5770    0.8167 C.ar    1  UNL1        0.0738
     30 S           3.4747   -1.4782   -1.6562 S.2     1  UNL1       -0.0624
     31 C           5.0921   -1.0194   -2.2918 C.ar    1  UNL1        0.1172
     32 C           5.6269   -1.3472   -3.6087 C.2     1  UNL1        0.2518
     33 N           4.8959   -2.0940   -4.5589 N.am    1  UNL1       -0.3248
     34 O           6.7792   -0.9529   -3.9114 O.2     1  UNL1       -0.2697
     35 C           8.9970    0.3386   -0.1871 C.ar    1  UNL1        0.0107
     36 C           9.7421   -0.3710   -1.1017 C.ar    1  UNL1       -0.0537
     37 C          10.9851   -0.8904   -0.7839 C.ar    1  UNL1       -0.0613
     38 C          11.4665   -0.6777    0.4892 C.ar    1  UNL1       -0.0604
     39 C          10.7628    0.0166    1.4208 C.ar    1  UNL1       -0.0430
     40 C           9.5191    0.5247    1.0701 C.ar    1  UNL1        0.0476
     41 CL          8.6424    1.4158    2.3042 Cl      1  UNL1       -0.0831
     42 H           7.1116    2.9981   -0.5958 H       1  UNL1        0.0269
     43 H           7.7799    2.3198   -2.1354 H       1  UNL1        0.0269
     44 H           8.8770    2.7300   -0.7130 H       1  UNL1        0.0269
     45 H           7.1121    1.0159    0.4743 H       1  UNL1        0.0782
     46 H           5.2668    0.3800    0.7555 H       1  UNL1        0.0681
     47 H           3.8647   -0.9275    2.7269 H       1  UNL1        0.1033
     48 H          -1.0764   -0.5324    3.2050 H       1  UNL1        0.0645
     49 H          -3.1379    1.0043   -0.4247 H       1  UNL1        0.0625
     50 H          -5.4893    1.1693   -0.0842 H       1  UNL1        0.0652
     51 H          -7.3592   -0.4800    2.7277 H       1  UNL1        0.1477
     52 H          -7.5448    1.7677    0.9488 H       1  UNL1        0.0499
     53 H          -9.3525    1.4027    2.4680 H       1  UNL1        0.0295
     54 H          -9.4997   -0.3219    1.9123 H       1  UNL1        0.0295
     55 H          -9.9597    1.9769   -0.0409 H       1  UNL1        0.0427
     56 H         -11.2595    1.1933    1.0139 H       1  UNL1        0.0427
     57 H         -11.1861   -0.8673   -2.0600 H       1  UNL1        0.0391
     58 H         -11.2572    0.9651   -1.8556 H       1  UNL1        0.0391
     59 H         -12.3317   -0.0828   -0.8721 H       1  UNL1        0.0391
     60 H          -9.0316   -1.7092   -0.4495 H       1  UNL1        0.0427
     61 H          -9.1283   -0.6651   -1.8678 H       1  UNL1        0.0427
     62 H          -7.6277    0.9309   -1.1192 H       1  UNL1        0.0295
     63 H          -7.0204   -0.5951   -0.4224 H       1  UNL1        0.0295
     64 H          -2.9027   -1.4828    3.0612 H       1  UNL1        0.0836
     65 H          -1.4187   -0.2095   -1.0485 H       1  UNL1        0.0624
     66 H           1.0707   -0.4098   -1.2680 H       1  UNL1        0.0639
     67 H           5.3657   -2.7475   -5.1934 H       1  UNL1        0.1453
     68 H           3.8624   -2.0018   -4.6407 H       1  UNL1        0.1453
     69 H           9.3424   -0.5255   -2.1004 H       1  UNL1        0.0622
     70 H          11.5960   -1.4491   -1.4711 H       1  UNL1        0.0618
     71 H          12.4471   -1.0675    0.7958 H       1  UNL1        0.0618
     72 H          11.1490    0.1777    2.4162 H       1  UNL1        0.0632
@<TRIPOS>BOND
     1     1     2    1
     2     2     3    1
     3     3     4    1
     4     4     5   ar
     5     5     6   ar
     6     6     7    1
     7     7     8   ar
     8     8     9   ar
     9     9    10   ar
    10    10    11   ar
    11    11    12   ar
    12    12    13    1
    13    13    14   ar
    14    14    15   ar
    15    15    16   ar
    16    16    17    1
    17    17    18    1
    18    18    19    1
    19    19    20    1
    20    20    21    1
    21    21    22    1
    22    21    23    1
    23    23    24    1
    24    16    25   ar
    25    25    26   ar
    26    12    27   ar
    27    27    28   ar
    28    28    29   ar
    29     6    30   ar
    30    30    31   ar
    31    31    32    1
    32    32    33   am
    33    32    34    2
    34     2    35    1
    35    35    36   ar
    36    36    37   ar
    37    37    38   ar
    38    38    39   ar
    39    39    40   ar
    40    40    41    1
    41    31     4   ar
    42    40    35   ar
    43    29     7   ar
    44    29    10   ar
    45    26    13   ar
    46    24    18    1
    47     1    42    1
    48     1    43    1
    49     1    44    1
    50     2    45    1
    51     5    46    1
    52     8    47    1
    53    11    48    1
    54    14    49    1
    55    15    50    1
    56    17    51    1
    57    18    52    1
    58    19    53    1
    59    19    54    1
    60    20    55    1
    61    20    56    1
    62    22    57    1
    63    22    58    1
    64    22    59    1
    65    23    60    1
    66    23    61    1
    67    24    62    1
    68    24    63    1
    69    26    64    1
    70    27    65    1
    71    28    66    1
    72    33    67    1
    73    33    68    1
    74    36    69    1
    75    37    70    1
    76    38    71    1
    77    39    72    1
