@<TRIPOS>MOLECULE
*****
 54 60 0 0 0
SMALL
GASTEIGER

@<TRIPOS>ATOM
      1 C          -7.6125    2.3837    0.0806 C.ar    1  UNL1       -0.0597
      2 C          -6.4844    2.2275    0.8363 C.ar    1  UNL1       -0.0611
      3 C          -5.7708    1.0526    0.7731 C.ar    1  UNL1       -0.0520
      4 C          -6.1910    0.0326   -0.0505 C.ar    1  UNL1        0.0082
      5 C          -5.4754   -1.1422   -0.1120 C.ar    1  UNL1       -0.0022
      6 C          -4.2796   -1.3118    0.6868 C.ar    1  UNL1        0.0467
      7 C          -4.1954   -1.8192    1.9649 C.ar    1  UNL1        0.0597
      8 N          -2.9104   -1.8077    2.3463 N.ar    1  UNL1       -0.1727
      9 N          -2.1374   -1.3106    1.3675 N.ar    1  UNL1       -0.2206
     10 C          -0.8091   -1.1096    1.2947 C.ar    1  UNL1        0.0406
     11 C          -0.3071   -0.5725    0.1293 C.ar    1  UNL1        0.0184
     12 C           1.1374   -0.3581    0.0549 C.ar    1  UNL1       -0.0149
     13 C           2.0236   -1.1866    0.7105 C.ar    1  UNL1       -0.0522
     14 C           3.3862   -0.9884    0.6431 C.ar    1  UNL1       -0.0401
     15 C           3.9300    0.0667   -0.0968 C.ar    1  UNL1        0.0300
     16 N           5.3095    0.2919   -0.1831 N.pl3   1  UNL1       -0.3241
     17 C           6.3876   -0.4819    0.4550 C.3     1  UNL1        0.0280
     18 C           7.6402    0.2969    0.1804 C.3     1  UNL1        0.0251
     19 C           7.0608    1.7220    0.1022 C.3     1  UNL1       -0.0163
     20 C           5.9690    1.3251   -0.9121 C.3     1  UNL1        0.0375
     21 C           6.8451    0.6583   -1.9523 C.3     1  UNL1        0.0148
     22 N           7.9825    0.1033   -1.2199 N.3     1  UNL1       -0.3099
     23 C           3.0395    0.8891   -0.7483 C.ar    1  UNL1       -0.0401
     24 C           1.6573    0.6863   -0.6785 C.ar    1  UNL1       -0.0522
     25 C          -1.1560   -0.2585   -0.9154 C.ar    1  UNL1        0.0391
     26 N          -2.4774   -0.4794   -0.7911 N.ar    1  UNL1       -0.2350
     27 C          -2.9610   -1.0042    0.3495 C.ar    1  UNL1        0.1632
     28 C          -5.8846   -2.1660   -0.9292 C.ar    1  UNL1       -0.0351
     29 C          -7.0437   -1.9680   -1.6867 C.ar    1  UNL1        0.0288
     30 N          -7.7423   -0.8265   -1.6294 N.ar    1  UNL1       -0.2549
     31 C          -7.3309    0.1863   -0.8161 C.ar    1  UNL1        0.0715
     32 C          -8.0403    1.3607   -0.7502 C.ar    1  UNL1       -0.0357
     33 H          -8.1402    3.3277    0.1655 H       1  UNL1        0.0618
     34 H          -6.1040    2.9991    1.5053 H       1  UNL1        0.0618
     35 H          -4.8609    0.9438    1.3906 H       1  UNL1        0.0624
     36 H          -5.0234   -2.1793    2.5884 H       1  UNL1        0.0855
     37 H          -0.1492   -1.3538    2.1085 H       1  UNL1        0.0837
     38 H           1.5935   -2.0143    1.2900 H       1  UNL1        0.0624
     39 H           4.0574   -1.6521    1.1655 H       1  UNL1        0.0636
     40 H           6.4678   -1.4819   -0.0170 H       1  UNL1        0.0479
     41 H           6.1857   -0.6384    1.5303 H       1  UNL1        0.0479
     42 H           8.4424    0.1927    0.8752 H       1  UNL1        0.0476
     43 H           6.6378    2.0446    1.0520 H       1  UNL1        0.0299
     44 H           7.7584    2.4129   -0.3688 H       1  UNL1        0.0299
     45 H           5.3898    2.1518   -1.2553 H       1  UNL1        0.0513
     46 H           6.2651   -0.2371   -2.3204 H       1  UNL1        0.0442
     47 H           7.1518    1.3282   -2.7559 H       1  UNL1        0.0442
     48 H           8.7871    0.7492   -1.4119 H       1  UNL1        0.1223
     49 H           3.4026    1.7245   -1.3379 H       1  UNL1        0.0636
     50 H           0.9860    1.3555   -1.2056 H       1  UNL1        0.0624
     51 H          -0.7241    0.1682   -1.8304 H       1  UNL1        0.0837
     52 H          -5.3383   -3.0834   -0.9861 H       1  UNL1        0.0639
     53 H          -7.4099   -2.7551   -2.3533 H       1  UNL1        0.0830
     54 H          -8.9352    1.5057   -1.3390 H       1  UNL1        0.0639
@<TRIPOS>BOND
     1     1     2   ar
     2     2     3   ar
     3     3     4   ar
     4     4     5   ar
     5     5     6    1
     6     6     7   ar
     7     7     8   ar
     8     8     9   ar
     9     9    10   ar
    10    10    11   ar
    11    11    12    1
    12    12    13   ar
    13    13    14   ar
    14    14    15   ar
    15    15    16    1
    16    16    17    1
    17    17    18    1
    18    18    19    1
    19    19    20    1
    20    20    21    1
    21    21    22    1
    22    15    23   ar
    23    23    24   ar
    24    11    25   ar
    25    25    26   ar
    26    26    27   ar
    27     5    28   ar
    28    28    29   ar
    29    29    30   ar
    30    30    31   ar
    31    31    32   ar
    32    32     1   ar
    33    31     4   ar
    34    27     6   ar
    35    27     9   ar
    36    24    12   ar
    37    20    16    1
    38    22    18    1
    39     1    33    1
    40     2    34    1
    41     3    35    1
    42     7    36    1
    43    10    37    1
    44    13    38    1
    45    14    39    1
    46    17    40    1
    47    17    41    1
    48    18    42    1
    49    19    43    1
    50    19    44    1
    51    20    45    1
    52    21    46    1
    53    21    47    1
    54    22    48    1
    55    23    49    1
    56    24    50    1
    57    25    51    1
    58    28    52    1
    59    29    53    1
    60    32    54    1
