
     RDKit          3D

 64 69  0  0  0  0  0  0  0  0999 V2000
   10.7770    0.1613    2.0615 C   0  0  0  0  0  0  0  0  0  0  0  0
    9.9818    0.8836    1.1736 O   0  0  0  0  0  0  0  0  0  0  0  0
    8.6983    0.5032    0.7976 C   0  0  0  0  0  0  0  0  0  0  0  0
    7.9509    1.2529   -0.0853 C   0  0  0  0  0  0  0  0  0  0  0  0
    6.6918    0.8692   -0.4470 N   0  0  0  0  0  0  0  0  0  0  0  0
    6.1506   -0.2534    0.0521 C   0  0  0  0  0  0  0  0  0  0  0  0
    4.8036   -0.6978   -0.3117 C   0  0  0  0  0  0  0  0  0  0  0  0
    4.3523   -1.7582    0.1894 O   0  0  0  0  0  0  0  0  0  0  0  0
    3.9765    0.0085   -1.2044 N   0  0  0  0  0  0  0  0  0  0  0  0
    2.6620   -0.4210   -1.5623 C   0  0  0  0  0  0  0  0  0  0  0  0
    2.4771   -1.2556   -2.6519 C   0  0  0  0  0  0  0  0  0  0  0  0
    1.2266   -1.6867   -3.0223 C   0  0  0  0  0  0  0  0  0  0  0  0
    0.1274   -1.2498   -2.2524 C   0  0  0  0  0  0  0  0  0  0  0  0
    0.2662   -0.4392   -1.1885 C   0  0  0  0  0  0  0  0  0  0  0  0
    1.5653   -0.0165   -0.8371 C   0  0  0  0  0  0  0  0  0  0  0  0
   -0.8875    0.0480   -0.3722 C   0  0  0  0  0  0  0  0  0  0  0  0
   -0.9324    1.5525   -0.6675 C   0  0  0  0  0  0  0  0  0  0  0  0
   -1.5613    2.3890    0.3716 C   0  0  0  0  0  0  0  0  0  0  0  0
   -1.2905    1.9327    1.6563 O   0  0  0  0  0  0  0  0  0  0  0  0
   -0.8640    0.6351    1.9482 C   0  0  0  0  0  0  0  0  0  0  0  0
   -0.6437    0.3135    3.3198 N   0  0  0  0  0  0  0  0  0  0  0  0
   -0.6788   -0.2296    1.0214 N   0  0  0  0  0  0  0  0  0  0  0  0
   -2.1365   -0.5209   -0.8876 C   0  0  0  0  0  0  0  0  0  0  0  0
   -3.3265   -0.2038   -0.2481 C   0  0  0  0  0  0  0  0  0  0  0  0
   -4.5625   -0.6557   -0.6352 C   0  0  0  0  0  0  0  0  0  0  0  0
   -5.8120   -0.3043    0.0605 C   0  0  0  0  0  0  0  0  0  0  0  0
   -6.0964    1.1708    0.0794 C   0  0  0  0  0  0  0  0  0  0  0  0
   -7.0042    1.4374    1.2805 C   0  0  0  0  0  0  0  0  0  0  0  0
   -7.8923    0.3957    1.4967 O   0  0  0  0  0  0  0  0  0  0  0  0
   -7.2678   -0.7627    1.9531 C   0  0  0  0  0  0  0  0  0  0  0  0
   -5.8236   -0.8089    1.4966 C   0  0  0  0  0  0  0  0  0  0  0  0
   -4.6327   -1.4830   -1.7354 C   0  0  0  0  0  0  0  0  0  0  0  0
   -3.4822   -1.8273   -2.4029 C   0  0  0  0  0  0  0  0  0  0  0  0
   -3.5194   -2.6370   -3.4849 F   0  0  0  0  0  0  0  0  0  0  0  0
   -2.2470   -1.3509   -1.9820 C   0  0  0  0  0  0  0  0  0  0  0  0
   -1.0962   -1.7189   -2.6736 O   0  0  0  0  0  0  0  0  0  0  0  0
    6.9102   -0.9921    0.9334 C   0  0  0  0  0  0  0  0  0  0  0  0
    8.1622   -0.6229    1.3016 N   0  0  0  0  0  0  0  0  0  0  0  0
   11.3766   -0.6310    1.5905 H   0  0  0  0  0  0  0  0  0  0  0  0
   11.4969    0.8631    2.5594 H   0  0  0  0  0  0  0  0  0  0  0  0
   10.1701   -0.3319    2.8741 H   0  0  0  0  0  0  0  0  0  0  0  0
    8.3867    2.1640   -0.4920 H   0  0  0  0  0  0  0  0  0  0  0  0
    4.3450    0.8901   -1.6244 H   0  0  0  0  0  0  0  0  0  0  0  0
    3.3714   -1.5435   -3.1875 H   0  0  0  0  0  0  0  0  0  0  0  0
    1.0890   -2.3376   -3.8731 H   0  0  0  0  0  0  0  0  0  0  0  0
    1.6495    0.6313    0.0185 H   0  0  0  0  0  0  0  0  0  0  0  0
   -1.4815    1.6680   -1.6344 H   0  0  0  0  0  0  0  0  0  0  0  0
    0.1124    1.9239   -0.8619 H   0  0  0  0  0  0  0  0  0  0  0  0
   -2.6308    2.6377    0.1753 H   0  0  0  0  0  0  0  0  0  0  0  0
   -1.0635    3.4142    0.3118 H   0  0  0  0  0  0  0  0  0  0  0  0
    0.1402    0.7848    3.8020 H   0  0  0  0  0  0  0  0  0  0  0  0
   -1.2295   -0.3567    3.8253 H   0  0  0  0  0  0  0  0  0  0  0  0
   -3.3422    0.4434    0.6413 H   0  0  0  0  0  0  0  0  0  0  0  0
   -6.6573   -0.7979   -0.4526 H   0  0  0  0  0  0  0  0  0  0  0  0
   -6.6240    1.5319   -0.8267 H   0  0  0  0  0  0  0  0  0  0  0  0
   -5.2134    1.8018    0.2119 H   0  0  0  0  0  0  0  0  0  0  0  0
   -6.4173    1.6788    2.1793 H   0  0  0  0  0  0  0  0  0  0  0  0
   -7.6058    2.3328    1.0383 H   0  0  0  0  0  0  0  0  0  0  0  0
   -7.7837   -1.6166    1.4607 H   0  0  0  0  0  0  0  0  0  0  0  0
   -7.3639   -0.9074    3.0427 H   0  0  0  0  0  0  0  0  0  0  0  0
   -5.5103   -1.8793    1.5298 H   0  0  0  0  0  0  0  0  0  0  0  0
   -5.1558   -0.2304    2.1439 H   0  0  0  0  0  0  0  0  0  0  0  0
   -5.5706   -1.8879   -2.1132 H   0  0  0  0  0  0  0  0  0  0  0  0
    6.4894   -1.9029    1.3474 H   0  0  0  0  0  0  0  0  0  0  0  0
  1  2  1  0
  2  3  1  0
  3  4  2  0
  4  5  1  0
  5  6  2  0
  6  7  1  0
  7  8  2  0
  7  9  1  0
  9 10  1  0
 10 11  2  0
 11 12  1  0
 12 13  2  0
 13 14  1  0
 14 15  2  0
 14 16  1  0
 16 17  1  0
 17 18  1  0
 18 19  1  0
 19 20  1  0
 20 21  1  0
 20 22  2  0
 16 23  1  0
 23 24  2  0
 24 25  1  0
 25 26  1  0
 26 27  1  0
 27 28  1  0
 28 29  1  0
 29 30  1  0
 30 31  1  0
 25 32  2  0
 32 33  1  0
 33 34  1  0
 33 35  2  0
 35 36  1  0
  6 37  1  0
 37 38  2  0
 38  3  1  0
 15 10  1  0
 22 16  1  0
 35 23  1  0
 36 13  1  0
 31 26  1  0
  1 39  1  0
  1 40  1  0
  1 41  1  0
  4 42  1  0
  9 43  1  0
 11 44  1  0
 12 45  1  0
 15 46  1  0
 17 47  1  0
 17 48  1  0
 18 49  1  0
 18 50  1  0
 21 51  1  0
 21 52  1  0
 24 53  1  0
 26 54  1  0
 27 55  1  0
 27 56  1  0
 28 57  1  0
 28 58  1  0
 30 59  1  0
 30 60  1  0
 31 61  1  0
 31 62  1  0
 32 63  1  0
 37 64  1  0
M  END
$$$$
