@<TRIPOS>MOLECULE
*****
 64 69 0 0 0
SMALL
GASTEIGER

@<TRIPOS>ATOM
      1 C          10.7770    0.1613    2.0615 C.3     1  UNL1        0.0805
      2 O           9.9818    0.8836    1.1736 O.3     1  UNL1       -0.4786
      3 C           8.6983    0.5032    0.7976 C.ar    1  UNL1        0.2332
      4 C           7.9509    1.2529   -0.0853 C.ar    1  UNL1        0.0899
      5 N           6.6918    0.8692   -0.4470 N.ar    1  UNL1       -0.2435
      6 C           6.1506   -0.2534    0.0521 C.ar    1  UNL1        0.1439
      7 C           4.8036   -0.6978   -0.3117 C.2     1  UNL1        0.2681
      8 O           4.3523   -1.7582    0.1894 O.2     1  UNL1       -0.2681
      9 N           3.9765    0.0085   -1.2044 N.am    1  UNL1       -0.2802
     10 C           2.6620   -0.4210   -1.5623 C.ar    1  UNL1        0.0343
     11 C           2.4771   -1.2556   -2.6519 C.ar    1  UNL1       -0.0370
     12 C           1.2266   -1.6867   -3.0223 C.ar    1  UNL1       -0.0172
     13 C           0.1274   -1.2498   -2.2524 C.ar    1  UNL1        0.1345
     14 C           0.2662   -0.4392   -1.1885 C.ar    1  UNL1        0.0287
     15 C           1.5653   -0.0165   -0.8371 C.ar    1  UNL1       -0.0312
     16 C          -0.8875    0.0480   -0.3722 C.3     1  UNL1        0.1264
     17 C          -0.9324    1.5525   -0.6675 C.3     1  UNL1        0.0155
     18 C          -1.5613    2.3890    0.3716 C.3     1  UNL1        0.0953
     19 O          -1.2905    1.9327    1.6563 O.2     1  UNL1       -0.4658
     20 C          -0.8640    0.6351    1.9482 C.2     1  UNL1        0.2763
     21 N          -0.6437    0.3135    3.3198 N.pl3   1  UNL1       -0.3134
     22 N          -0.6788   -0.2296    1.0214 N.2     1  UNL1       -0.2205
     23 C          -2.1365   -0.5209   -0.8876 C.ar    1  UNL1        0.0300
     24 C          -3.3265   -0.2038   -0.2481 C.ar    1  UNL1       -0.0488
     25 C          -4.5625   -0.6557   -0.6352 C.ar    1  UNL1       -0.0408
     26 C          -5.8120   -0.3043    0.0605 C.3     1  UNL1       -0.0116
     27 C          -6.0964    1.1708    0.0794 C.3     1  UNL1       -0.0226
     28 C          -7.0042    1.4374    1.2805 C.3     1  UNL1        0.0482
     29 O          -7.8923    0.3957    1.4967 O.3     1  UNL1       -0.3797
     30 C          -7.2678   -0.7627    1.9531 C.3     1  UNL1        0.0482
     31 C          -5.8236   -0.8089    1.4966 C.3     1  UNL1       -0.0226
     32 C          -4.6327   -1.4830   -1.7354 C.ar    1  UNL1       -0.0193
     33 C          -3.4822   -1.8273   -2.4029 C.ar    1  UNL1        0.1660
     34 F          -3.5194   -2.6370   -3.4849 F       1  UNL1       -0.2016
     35 C          -2.2470   -1.3509   -1.9820 C.ar    1  UNL1        0.1692
     36 O          -1.0962   -1.7189   -2.6736 O.3     1  UNL1       -0.4524
     37 C           6.9102   -0.9921    0.9334 C.ar    1  UNL1        0.0619
     38 N           8.1622   -0.6229    1.3016 N.ar    1  UNL1       -0.2178
     39 H          11.3766   -0.6310    1.5905 H       1  UNL1        0.0660
     40 H          11.4969    0.8631    2.5594 H       1  UNL1        0.0660
     41 H          10.1701   -0.3319    2.8741 H       1  UNL1        0.0660
     42 H           8.3867    2.1640   -0.4920 H       1  UNL1        0.0884
     43 H           4.3450    0.8901   -1.6244 H       1  UNL1        0.1552
     44 H           3.3714   -1.5435   -3.1875 H       1  UNL1        0.0637
     45 H           1.0890   -2.3376   -3.8731 H       1  UNL1        0.0655
     46 H           1.6495    0.6313    0.0185 H       1  UNL1        0.0641
     47 H          -1.4815    1.6680   -1.6344 H       1  UNL1        0.0328
     48 H           0.1124    1.9239   -0.8619 H       1  UNL1        0.0328
     49 H          -2.6308    2.6377    0.1753 H       1  UNL1        0.0698
     50 H          -1.0635    3.4142    0.3118 H       1  UNL1        0.0698
     51 H           0.1402    0.7848    3.8020 H       1  UNL1        0.1466
     52 H          -1.2295   -0.3567    3.8253 H       1  UNL1        0.1466
     53 H          -3.3422    0.4434    0.6413 H       1  UNL1        0.0625
     54 H          -6.6573   -0.7979   -0.4526 H       1  UNL1        0.0350
     55 H          -6.6240    1.5319   -0.8267 H       1  UNL1        0.0293
     56 H          -5.2134    1.8018    0.2119 H       1  UNL1        0.0293
     57 H          -6.4173    1.6788    2.1793 H       1  UNL1        0.0560
     58 H          -7.6058    2.3328    1.0383 H       1  UNL1        0.0560
     59 H          -7.7837   -1.6166    1.4607 H       1  UNL1        0.0560
     60 H          -7.3639   -0.9074    3.0427 H       1  UNL1        0.0560
     61 H          -5.5103   -1.8793    1.5298 H       1  UNL1        0.0293
     62 H          -5.1558   -0.2304    2.1439 H       1  UNL1        0.0293
     63 H          -5.5706   -1.8879   -2.1132 H       1  UNL1        0.0650
     64 H           6.4894   -1.9029    1.3474 H       1  UNL1        0.0854
@<TRIPOS>BOND
     1     1     2    1
     2     2     3    1
     3     3     4   ar
     4     4     5   ar
     5     5     6   ar
     6     6     7    1
     7     7     8    2
     8     7     9   am
     9     9    10    1
    10    10    11   ar
    11    11    12   ar
    12    12    13   ar
    13    13    14   ar
    14    14    15   ar
    15    14    16    1
    16    16    17    1
    17    17    18    1
    18    18    19    1
    19    19    20    1
    20    20    21    1
    21    20    22    2
    22    16    23    1
    23    23    24   ar
    24    24    25   ar
    25    25    26    1
    26    26    27    1
    27    27    28    1
    28    28    29    1
    29    29    30    1
    30    30    31    1
    31    25    32   ar
    32    32    33   ar
    33    33    34    1
    34    33    35   ar
    35    35    36    1
    36     6    37   ar
    37    37    38   ar
    38    38     3   ar
    39    15    10   ar
    40    22    16    1
    41    35    23   ar
    42    36    13    1
    43    31    26    1
    44     1    39    1
    45     1    40    1
    46     1    41    1
    47     4    42    1
    48     9    43    1
    49    11    44    1
    50    12    45    1
    51    15    46    1
    52    17    47    1
    53    17    48    1
    54    18    49    1
    55    18    50    1
    56    21    51    1
    57    21    52    1
    58    24    53    1
    59    26    54    1
    60    27    55    1
    61    27    56    1
    62    28    57    1
    63    28    58    1
    64    30    59    1
    65    30    60    1
    66    31    61    1
    67    31    62    1
    68    32    63    1
    69    37    64    1
