@<TRIPOS>MOLECULE
*****
 49 53 0 0 0
SMALL
GASTEIGER

@<TRIPOS>ATOM
      1 C          -8.0252    0.6081   -0.3563 C.3     1  UNL1       -0.0281
      2 C          -7.0346   -0.4890    0.0073 C.3     1  UNL1        0.0946
      3 C          -7.8071   -1.8014   -0.1280 C.3     1  UNL1       -0.0281
      4 O          -5.9260   -0.4825   -0.8392 O.3     1  UNL1       -0.4894
      5 C          -4.6075   -0.3202   -0.5141 C.ar    1  UNL1        0.1209
      6 C          -4.1332   -0.1280    0.7559 C.ar    1  UNL1       -0.0194
      7 C          -2.7869    0.0286    1.0080 C.ar    1  UNL1       -0.0505
      8 C          -1.8669   -0.0038   -0.0219 C.ar    1  UNL1       -0.0148
      9 C          -0.4268    0.1608    0.2250 C.ar    1  UNL1        0.0184
     10 C           0.3760    0.7489   -0.7278 C.ar    1  UNL1        0.0391
     11 N           1.7115    0.9196   -0.5398 N.ar    1  UNL1       -0.2350
     12 C           2.2208    0.4911    0.6157 C.ar    1  UNL1        0.1632
     13 C           3.5147    0.5057    1.1275 C.ar    1  UNL1        0.0467
     14 C           4.7313    1.0204    0.5109 C.ar    1  UNL1       -0.0022
     15 C           5.0859    2.3359    0.7243 C.ar    1  UNL1       -0.0351
     16 C           6.2454    2.8366    0.1411 C.ar    1  UNL1        0.0288
     17 N           7.0123    2.0447   -0.6233 N.ar    1  UNL1       -0.2549
     18 C           6.7094    0.7570   -0.8610 C.ar    1  UNL1        0.0715
     19 C           7.5032   -0.0505   -1.6485 C.ar    1  UNL1       -0.0357
     20 C           7.1511   -1.3557   -1.8607 C.ar    1  UNL1       -0.0597
     21 C           5.9912   -1.8472   -1.2741 C.ar    1  UNL1       -0.0611
     22 C           5.1824   -1.0589   -0.4833 C.ar    1  UNL1       -0.0520
     23 C           5.5541    0.2611   -0.2789 C.ar    1  UNL1        0.0082
     24 C           3.4606   -0.0720    2.3723 C.ar    1  UNL1        0.0597
     25 N           2.2101   -0.4220    2.6147 N.ar    1  UNL1       -0.1727
     26 N           1.4602   -0.0904    1.5718 N.ar    1  UNL1       -0.2206
     27 C           0.1394   -0.2647    1.3978 C.ar    1  UNL1        0.0406
     28 C          -2.3508   -0.1980   -1.3010 C.ar    1  UNL1       -0.0505
     29 C          -3.6909   -0.3550   -1.5611 C.ar    1  UNL1       -0.0194
     30 H          -8.8368    0.5562    0.4139 H       1  UNL1        0.0265
     31 H          -8.5023    0.3922   -1.3276 H       1  UNL1        0.0265
     32 H          -7.5320    1.6129   -0.3282 H       1  UNL1        0.0265
     33 H          -6.7212   -0.3439    1.0395 H       1  UNL1        0.0727
     34 H          -8.1376   -2.1143    0.8834 H       1  UNL1        0.0265
     35 H          -8.7191   -1.6733   -0.7526 H       1  UNL1        0.0265
     36 H          -7.1220   -2.5378   -0.6039 H       1  UNL1        0.0265
     37 H          -4.8124   -0.0955    1.5883 H       1  UNL1        0.0654
     38 H          -2.4146    0.1818    2.0231 H       1  UNL1        0.0625
     39 H          -0.0494    1.0952   -1.6676 H       1  UNL1        0.0837
     40 H           4.4999    3.0079    1.3311 H       1  UNL1        0.0639
     41 H           6.5210    3.8660    0.3096 H       1  UNL1        0.0830
     42 H           8.4013    0.3221   -2.1054 H       1  UNL1        0.0639
     43 H           7.7326   -2.0500   -2.4723 H       1  UNL1        0.0618
     44 H           5.7120   -2.8810   -1.4419 H       1  UNL1        0.0618
     45 H           4.2723   -1.4566   -0.0270 H       1  UNL1        0.0624
     46 H           4.3008   -0.2070    3.0216 H       1  UNL1        0.0855
     47 H          -0.5086   -0.7230    2.1310 H       1  UNL1        0.0837
     48 H          -1.6460   -0.2270   -2.1253 H       1  UNL1        0.0625
     49 H          -4.0419   -0.5041   -2.5606 H       1  UNL1        0.0654
@<TRIPOS>BOND
     1     1     2    1
     2     2     3    1
     3     2     4    1
     4     4     5    1
     5     5     6   ar
     6     6     7   ar
     7     7     8   ar
     8     8     9    1
     9     9    10   ar
    10    10    11   ar
    11    11    12   ar
    12    12    13   ar
    13    13    14    1
    14    14    15   ar
    15    15    16   ar
    16    16    17   ar
    17    17    18   ar
    18    18    19   ar
    19    19    20   ar
    20    20    21   ar
    21    21    22   ar
    22    22    23   ar
    23    13    24   ar
    24    24    25   ar
    25    25    26   ar
    26    26    27   ar
    27     8    28   ar
    28    28    29   ar
    29    29     5   ar
    30    27     9   ar
    31    26    12   ar
    32    23    14   ar
    33    23    18   ar
    34     1    30    1
    35     1    31    1
    36     1    32    1
    37     2    33    1
    38     3    34    1
    39     3    35    1
    40     3    36    1
    41     6    37    1
    42     7    38    1
    43    10    39    1
    44    15    40    1
    45    16    41    1
    46    19    42    1
    47    20    43    1
    48    21    44    1
    49    22    45    1
    50    24    46    1
    51    27    47    1
    52    28    48    1
    53    29    49    1
