
     RDKit          3D

 49 53  0  0  0  0  0  0  0  0999 V2000
   -8.0252    0.6081   -0.3563 C   0  0  0  0  0  0  0  0  0  0  0  0
   -7.0346   -0.4890    0.0073 C   0  0  0  0  0  0  0  0  0  0  0  0
   -7.8071   -1.8014   -0.1280 C   0  0  0  0  0  0  0  0  0  0  0  0
   -5.9260   -0.4825   -0.8392 O   0  0  0  0  0  0  0  0  0  0  0  0
   -4.6075   -0.3202   -0.5141 C   0  0  0  0  0  0  0  0  0  0  0  0
   -4.1332   -0.1280    0.7559 C   0  0  0  0  0  0  0  0  0  0  0  0
   -2.7869    0.0286    1.0080 C   0  0  0  0  0  0  0  0  0  0  0  0
   -1.8669   -0.0038   -0.0219 C   0  0  0  0  0  0  0  0  0  0  0  0
   -0.4268    0.1608    0.2250 C   0  0  0  0  0  0  0  0  0  0  0  0
    0.3760    0.7489   -0.7278 C   0  0  0  0  0  0  0  0  0  0  0  0
    1.7115    0.9196   -0.5398 N   0  0  0  0  0  0  0  0  0  0  0  0
    2.2208    0.4911    0.6157 C   0  0  0  0  0  0  0  0  0  0  0  0
    3.5147    0.5057    1.1275 C   0  0  0  0  0  0  0  0  0  0  0  0
    4.7313    1.0204    0.5109 C   0  0  0  0  0  0  0  0  0  0  0  0
    5.0859    2.3359    0.7243 C   0  0  0  0  0  0  0  0  0  0  0  0
    6.2454    2.8366    0.1411 C   0  0  0  0  0  0  0  0  0  0  0  0
    7.0123    2.0447   -0.6233 N   0  0  0  0  0  0  0  0  0  0  0  0
    6.7094    0.7570   -0.8610 C   0  0  0  0  0  0  0  0  0  0  0  0
    7.5032   -0.0505   -1.6485 C   0  0  0  0  0  0  0  0  0  0  0  0
    7.1511   -1.3557   -1.8607 C   0  0  0  0  0  0  0  0  0  0  0  0
    5.9912   -1.8472   -1.2741 C   0  0  0  0  0  0  0  0  0  0  0  0
    5.1824   -1.0589   -0.4833 C   0  0  0  0  0  0  0  0  0  0  0  0
    5.5541    0.2611   -0.2789 C   0  0  0  0  0  0  0  0  0  0  0  0
    3.4606   -0.0720    2.3723 C   0  0  0  0  0  0  0  0  0  0  0  0
    2.2101   -0.4220    2.6147 N   0  0  0  0  0  0  0  0  0  0  0  0
    1.4602   -0.0904    1.5718 N   0  0  0  0  0  0  0  0  0  0  0  0
    0.1394   -0.2647    1.3978 C   0  0  0  0  0  0  0  0  0  0  0  0
   -2.3508   -0.1980   -1.3010 C   0  0  0  0  0  0  0  0  0  0  0  0
   -3.6909   -0.3550   -1.5611 C   0  0  0  0  0  0  0  0  0  0  0  0
   -8.8368    0.5562    0.4139 H   0  0  0  0  0  0  0  0  0  0  0  0
   -8.5023    0.3922   -1.3276 H   0  0  0  0  0  0  0  0  0  0  0  0
   -7.5320    1.6129   -0.3282 H   0  0  0  0  0  0  0  0  0  0  0  0
   -6.7212   -0.3439    1.0395 H   0  0  0  0  0  0  0  0  0  0  0  0
   -8.1376   -2.1143    0.8834 H   0  0  0  0  0  0  0  0  0  0  0  0
   -8.7191   -1.6733   -0.7526 H   0  0  0  0  0  0  0  0  0  0  0  0
   -7.1220   -2.5378   -0.6039 H   0  0  0  0  0  0  0  0  0  0  0  0
   -4.8124   -0.0955    1.5883 H   0  0  0  0  0  0  0  0  0  0  0  0
   -2.4146    0.1818    2.0231 H   0  0  0  0  0  0  0  0  0  0  0  0
   -0.0494    1.0952   -1.6676 H   0  0  0  0  0  0  0  0  0  0  0  0
    4.4999    3.0079    1.3311 H   0  0  0  0  0  0  0  0  0  0  0  0
    6.5210    3.8660    0.3096 H   0  0  0  0  0  0  0  0  0  0  0  0
    8.4013    0.3221   -2.1054 H   0  0  0  0  0  0  0  0  0  0  0  0
    7.7326   -2.0500   -2.4723 H   0  0  0  0  0  0  0  0  0  0  0  0
    5.7120   -2.8810   -1.4419 H   0  0  0  0  0  0  0  0  0  0  0  0
    4.2723   -1.4566   -0.0270 H   0  0  0  0  0  0  0  0  0  0  0  0
    4.3008   -0.2070    3.0216 H   0  0  0  0  0  0  0  0  0  0  0  0
   -0.5086   -0.7230    2.1310 H   0  0  0  0  0  0  0  0  0  0  0  0
   -1.6460   -0.2270   -2.1253 H   0  0  0  0  0  0  0  0  0  0  0  0
   -4.0419   -0.5041   -2.5606 H   0  0  0  0  0  0  0  0  0  0  0  0
  1  2  1  0
  2  3  1  0
  2  4  1  0
  4  5  1  0
  5  6  2  0
  6  7  1  0
  7  8  2  0
  8  9  1  0
  9 10  1  0
 10 11  2  0
 11 12  1  0
 12 13  2  0
 13 14  1  0
 14 15  2  0
 15 16  1  0
 16 17  2  0
 17 18  1  0
 18 19  2  0
 19 20  1  0
 20 21  2  0
 21 22  1  0
 22 23  2  0
 13 24  1  0
 24 25  2  0
 25 26  1  0
 26 27  1  0
  8 28  1  0
 28 29  2  0
 29  5  1  0
 27  9  2  0
 26 12  1  0
 23 14  1  0
 23 18  1  0
  1 30  1  0
  1 31  1  0
  1 32  1  0
  2 33  1  0
  3 34  1  0
  3 35  1  0
  3 36  1  0
  6 37  1  0
  7 38  1  0
 10 39  1  0
 15 40  1  0
 16 41  1  0
 19 42  1  0
 20 43  1  0
 21 44  1  0
 22 45  1  0
 24 46  1  0
 27 47  1  0
 28 48  1  0
 29 49  1  0
M  END
$$$$
