@<TRIPOS>MOLECULE
*****
 37 39 0 0 0
SMALL
GASTEIGER

@<TRIPOS>ATOM
      1 C          -0.6271    0.6798   -3.8761 C.3     1  UNL1       -0.0222
      2 C          -0.6803    0.7855   -2.3849 C.ar    1  UNL1        0.0426
      3 C          -1.8164    1.2454   -1.7567 C.ar    1  UNL1        0.0018
      4 C          -1.8358    1.3317   -0.3817 C.ar    1  UNL1        0.1324
      5 O          -2.9913    1.7993    0.2548 O.3     1  UNL1       -0.4543
      6 C          -4.0055    0.9405    0.6503 C.ar    1  UNL1        0.1478
      7 C          -5.0177    0.6795   -0.2477 C.ar    1  UNL1        0.0699
      8 N          -6.0432   -0.1540    0.0768 N.ar    1  UNL1       -0.2582
      9 C          -6.0848   -0.7445    1.2973 C.ar    1  UNL1        0.0461
     10 C          -5.0922   -0.5084    2.2208 C.ar    1  UNL1        0.0625
     11 CL         -5.1398   -1.2591    3.7799 Cl      1  UNL1       -0.0819
     12 C          -4.0481    0.3393    1.8926 C.ar    1  UNL1        0.0020
     13 C          -0.7269    0.9599    0.3445 C.ar    1  UNL1        0.0112
     14 C           0.4051    0.5012   -0.2914 C.ar    1  UNL1        0.1295
     15 C           1.6041    0.0970    0.4560 C.2     1  UNL1        0.2678
     16 O           1.6290    0.1589    1.6926 O.2     1  UNL1       -0.2681
     17 N           2.7271   -0.3623   -0.2457 N.am    1  UNL1       -0.2651
     18 C           3.9373   -0.7789    0.3586 C.ar    1  UNL1        0.1253
     19 C           4.9453    0.1194    0.5929 C.ar    1  UNL1       -0.0188
     20 C           6.1183   -0.3007    1.1822 C.ar    1  UNL1       -0.0217
     21 C           6.2770   -1.6339    1.5378 C.ar    1  UNL1        0.1415
     22 F           7.4282   -2.0500    2.1169 F       1  UNL1       -0.2039
     23 C           5.2488   -2.5181    1.2918 C.ar    1  UNL1        0.0649
     24 N           4.1161   -2.0817    0.7161 N.ar    1  UNL1       -0.2373
     25 N           0.3762    0.4348   -1.6321 N.ar    1  UNL1       -0.2470
     26 H          -0.7459   -0.3651   -4.2240 H       1  UNL1        0.0293
     27 H           0.3053    1.1249   -4.2738 H       1  UNL1        0.0293
     28 H          -1.4708    1.2561   -4.2860 H       1  UNL1        0.0293
     29 H          -2.6723    1.5300   -2.3563 H       1  UNL1        0.0672
     30 H          -5.0375    1.1141   -1.2188 H       1  UNL1        0.0867
     31 H          -6.9003   -1.4187    1.5798 H       1  UNL1        0.0844
     32 H          -3.2589    0.5310    2.6182 H       1  UNL1        0.0670
     33 H          -0.7105    1.0158    1.4212 H       1  UNL1        0.0677
     34 H           2.6963   -0.4115   -1.3008 H       1  UNL1        0.1566
     35 H           4.8075    1.1585    0.3098 H       1  UNL1        0.0653
     36 H           6.9423    0.3654    1.3885 H       1  UNL1        0.0648
     37 H           5.3413   -3.5811    1.5609 H       1  UNL1        0.0859
@<TRIPOS>BOND
     1     1     2    1
     2     2     3   ar
     3     3     4   ar
     4     4     5    1
     5     5     6    1
     6     6     7   ar
     7     7     8   ar
     8     8     9   ar
     9     9    10   ar
    10    10    11    1
    11    10    12   ar
    12     4    13   ar
    13    13    14   ar
    14    14    15    1
    15    15    16    2
    16    15    17   am
    17    17    18    1
    18    18    19   ar
    19    19    20   ar
    20    20    21   ar
    21    21    22    1
    22    21    23   ar
    23    23    24   ar
    24    14    25   ar
    25    25     2   ar
    26    12     6   ar
    27    24    18   ar
    28     1    26    1
    29     1    27    1
    30     1    28    1
    31     3    29    1
    32     7    30    1
    33     9    31    1
    34    12    32    1
    35    13    33    1
    36    17    34    1
    37    19    35    1
    38    20    36    1
    39    23    37    1
