@<TRIPOS>MOLECULE
*****
 49 52 0 0 0
SMALL
GASTEIGER

@<TRIPOS>ATOM
      1 N           8.4968   -1.6713    1.9907 N.am    1  UNL1       -0.3253
      2 C           7.9509   -0.6183    1.2231 C.2     1  UNL1        0.2415
      3 O           8.7016    0.2654    0.7479 O.2     1  UNL1       -0.2704
      4 C           6.4847   -0.6845    1.0618 C.ar    1  UNL1        0.0366
      5 C           5.6781   -1.6474    1.5814 C.ar    1  UNL1       -0.0479
      6 C           4.3315   -1.6273    1.3801 C.ar    1  UNL1       -0.0398
      7 C           3.6871   -0.6518    0.6494 C.ar    1  UNL1        0.0336
      8 N           2.2820   -0.6762    0.4690 N.pl3   1  UNL1       -0.2835
      9 C           1.4594    0.2351   -0.2432 C.ar    1  UNL1        0.2246
     10 N           0.1356    0.0087   -0.2797 N.ar    1  UNL1       -0.1773
     11 C          -0.7596    0.7790   -0.9096 C.ar    1  UNL1        0.2476
     12 O          -2.1083    0.4488   -0.8815 O.3     1  UNL1       -0.4745
     13 C          -2.6650   -0.6584   -0.2337 C.3     1  UNL1        0.0941
     14 C          -4.1788   -0.6367   -0.4593 C.3     1  UNL1       -0.0067
     15 C          -4.6543    0.6641    0.1371 C.3     1  UNL1       -0.0471
     16 C          -6.1299    0.8742   -0.0341 C.3     1  UNL1       -0.0527
     17 C          -6.9136   -0.3967    0.2085 C.3     1  UNL1       -0.0530
     18 C          -6.0506   -1.3273    1.0626 C.3     1  UNL1       -0.0527
     19 C          -4.8846   -1.7833    0.1843 C.3     1  UNL1       -0.0471
     20 C          -0.2977    1.8926   -1.5749 C.ar    1  UNL1        0.1690
     21 N          -0.8893    2.8479   -2.2834 N.ar    1  UNL1       -0.2289
     22 C           0.0576    3.7214   -2.7234 C.ar    1  UNL1        0.0958
     23 N           1.2418    3.2581   -2.2546 N.ar    1  UNL1       -0.3291
     24 C           1.0589    2.1183   -1.5333 C.ar    1  UNL1        0.1665
     25 N           1.8932    1.3215   -0.8946 N.ar    1  UNL1       -0.1946
     26 C           4.5408    0.3015    0.1427 C.ar    1  UNL1       -0.0398
     27 C           5.9019    0.3196    0.3209 C.ar    1  UNL1       -0.0479
     28 H           8.8626   -2.4452    2.5433 H       1  UNL1        0.1453
     29 H           9.5125   -1.6285    2.3000 H       1  UNL1        0.1453
     30 H           6.1405   -2.4334    2.1621 H       1  UNL1        0.0626
     31 H           3.7627   -2.4349    1.8310 H       1  UNL1        0.0636
     32 H           1.7964   -1.4940    0.9369 H       1  UNL1        0.1550
     33 H          -2.4998   -0.5264    0.8619 H       1  UNL1        0.0700
     34 H          -2.2152   -1.6292   -0.5316 H       1  UNL1        0.0700
     35 H          -4.3541   -0.6538   -1.5462 H       1  UNL1        0.0334
     36 H          -4.3237    0.6660    1.2061 H       1  UNL1        0.0269
     37 H          -4.1148    1.4992   -0.3499 H       1  UNL1        0.0269
     38 H          -6.4456    1.6294    0.7157 H       1  UNL1        0.0265
     39 H          -6.2867    1.2862   -1.0556 H       1  UNL1        0.0265
     40 H          -7.8619   -0.1858    0.7393 H       1  UNL1        0.0265
     41 H          -7.1199   -0.8921   -0.7432 H       1  UNL1        0.0265
     42 H          -5.7368   -0.8437    1.9870 H       1  UNL1        0.0265
     43 H          -6.6741   -2.2346    1.2398 H       1  UNL1        0.0265
     44 H          -5.3793   -2.4260   -0.6014 H       1  UNL1        0.0269
     45 H          -4.2309   -2.4188    0.8121 H       1  UNL1        0.0269
     46 H          -0.1006    4.6089   -3.3270 H       1  UNL1        0.1027
     47 H           2.1942    3.6867   -2.4024 H       1  UNL1        0.1682
     48 H           4.1529    1.1145   -0.4454 H       1  UNL1        0.0636
     49 H           6.5512    1.0788   -0.0869 H       1  UNL1        0.0626
@<TRIPOS>BOND
     1     1     2   am
     2     2     3    2
     3     2     4    1
     4     4     5   ar
     5     5     6   ar
     6     6     7   ar
     7     7     8    1
     8     8     9    1
     9     9    10   ar
    10    10    11   ar
    11    11    12    1
    12    12    13    1
    13    13    14    1
    14    14    15    1
    15    15    16    1
    16    16    17    1
    17    17    18    1
    18    18    19    1
    19    11    20   ar
    20    20    21   ar
    21    21    22   ar
    22    22    23   ar
    23    23    24   ar
    24    24    25   ar
    25     7    26   ar
    26    26    27   ar
    27    27     4   ar
    28    25     9   ar
    29    19    14    1
    30    24    20   ar
    31     1    28    1
    32     1    29    1
    33     5    30    1
    34     6    31    1
    35     8    32    1
    36    13    33    1
    37    13    34    1
    38    14    35    1
    39    15    36    1
    40    15    37    1
    41    16    38    1
    42    16    39    1
    43    17    40    1
    44    17    41    1
    45    18    42    1
    46    18    43    1
    47    19    44    1
    48    19    45    1
    49    22    46    1
    50    23    47    1
    51    26    48    1
    52    27    49    1
