
     RDKit          3D

 49 52  0  0  0  0  0  0  0  0999 V2000
    8.4968   -1.6713    1.9907 N   0  0  0  0  0  0  0  0  0  0  0  0
    7.9509   -0.6183    1.2231 C   0  0  0  0  0  0  0  0  0  0  0  0
    8.7016    0.2654    0.7479 O   0  0  0  0  0  0  0  0  0  0  0  0
    6.4847   -0.6845    1.0618 C   0  0  0  0  0  0  0  0  0  0  0  0
    5.6781   -1.6474    1.5814 C   0  0  0  0  0  0  0  0  0  0  0  0
    4.3315   -1.6273    1.3801 C   0  0  0  0  0  0  0  0  0  0  0  0
    3.6871   -0.6518    0.6494 C   0  0  0  0  0  0  0  0  0  0  0  0
    2.2820   -0.6762    0.4690 N   0  0  0  0  0  0  0  0  0  0  0  0
    1.4594    0.2351   -0.2432 C   0  0  0  0  0  0  0  0  0  0  0  0
    0.1356    0.0087   -0.2797 N   0  0  0  0  0  0  0  0  0  0  0  0
   -0.7596    0.7790   -0.9096 C   0  0  0  0  0  0  0  0  0  0  0  0
   -2.1083    0.4488   -0.8815 O   0  0  0  0  0  0  0  0  0  0  0  0
   -2.6650   -0.6584   -0.2337 C   0  0  0  0  0  0  0  0  0  0  0  0
   -4.1788   -0.6367   -0.4593 C   0  0  0  0  0  0  0  0  0  0  0  0
   -4.6543    0.6641    0.1371 C   0  0  0  0  0  0  0  0  0  0  0  0
   -6.1299    0.8742   -0.0341 C   0  0  0  0  0  0  0  0  0  0  0  0
   -6.9136   -0.3967    0.2085 C   0  0  0  0  0  0  0  0  0  0  0  0
   -6.0506   -1.3273    1.0626 C   0  0  0  0  0  0  0  0  0  0  0  0
   -4.8846   -1.7833    0.1843 C   0  0  0  0  0  0  0  0  0  0  0  0
   -0.2977    1.8926   -1.5749 C   0  0  0  0  0  0  0  0  0  0  0  0
   -0.8893    2.8479   -2.2834 N   0  0  0  0  0  0  0  0  0  0  0  0
    0.0576    3.7214   -2.7234 C   0  0  0  0  0  0  0  0  0  0  0  0
    1.2418    3.2581   -2.2546 N   0  0  0  0  0  0  0  0  0  0  0  0
    1.0589    2.1183   -1.5333 C   0  0  0  0  0  0  0  0  0  0  0  0
    1.8932    1.3215   -0.8946 N   0  0  0  0  0  0  0  0  0  0  0  0
    4.5408    0.3015    0.1427 C   0  0  0  0  0  0  0  0  0  0  0  0
    5.9019    0.3196    0.3209 C   0  0  0  0  0  0  0  0  0  0  0  0
    8.8626   -2.4452    2.5433 H   0  0  0  0  0  0  0  0  0  0  0  0
    9.5125   -1.6285    2.3000 H   0  0  0  0  0  0  0  0  0  0  0  0
    6.1405   -2.4334    2.1621 H   0  0  0  0  0  0  0  0  0  0  0  0
    3.7627   -2.4349    1.8310 H   0  0  0  0  0  0  0  0  0  0  0  0
    1.7964   -1.4940    0.9369 H   0  0  0  0  0  0  0  0  0  0  0  0
   -2.4998   -0.5264    0.8619 H   0  0  0  0  0  0  0  0  0  0  0  0
   -2.2152   -1.6292   -0.5316 H   0  0  0  0  0  0  0  0  0  0  0  0
   -4.3541   -0.6538   -1.5462 H   0  0  0  0  0  0  0  0  0  0  0  0
   -4.3237    0.6660    1.2061 H   0  0  0  0  0  0  0  0  0  0  0  0
   -4.1148    1.4992   -0.3499 H   0  0  0  0  0  0  0  0  0  0  0  0
   -6.4456    1.6294    0.7157 H   0  0  0  0  0  0  0  0  0  0  0  0
   -6.2867    1.2862   -1.0556 H   0  0  0  0  0  0  0  0  0  0  0  0
   -7.8619   -0.1858    0.7393 H   0  0  0  0  0  0  0  0  0  0  0  0
   -7.1199   -0.8921   -0.7432 H   0  0  0  0  0  0  0  0  0  0  0  0
   -5.7368   -0.8437    1.9870 H   0  0  0  0  0  0  0  0  0  0  0  0
   -6.6741   -2.2346    1.2398 H   0  0  0  0  0  0  0  0  0  0  0  0
   -5.3793   -2.4260   -0.6014 H   0  0  0  0  0  0  0  0  0  0  0  0
   -4.2309   -2.4188    0.8121 H   0  0  0  0  0  0  0  0  0  0  0  0
   -0.1006    4.6089   -3.3270 H   0  0  0  0  0  0  0  0  0  0  0  0
    2.1942    3.6867   -2.4024 H   0  0  0  0  0  0  0  0  0  0  0  0
    4.1529    1.1145   -0.4454 H   0  0  0  0  0  0  0  0  0  0  0  0
    6.5512    1.0788   -0.0869 H   0  0  0  0  0  0  0  0  0  0  0  0
  1  2  1  0
  2  3  2  0
  2  4  1  0
  4  5  2  0
  5  6  1  0
  6  7  2  0
  7  8  1  0
  8  9  1  0
  9 10  2  0
 10 11  1  0
 11 12  1  0
 12 13  1  0
 13 14  1  0
 14 15  1  0
 15 16  1  0
 16 17  1  0
 17 18  1  0
 18 19  1  0
 11 20  2  0
 20 21  1  0
 21 22  2  0
 22 23  1  0
 23 24  1  0
 24 25  2  0
  7 26  1  0
 26 27  2  0
 27  4  1  0
 25  9  1  0
 19 14  1  0
 24 20  1  0
  1 28  1  0
  1 29  1  0
  5 30  1  0
  6 31  1  0
  8 32  1  0
 13 33  1  0
 13 34  1  0
 14 35  1  0
 15 36  1  0
 15 37  1  0
 16 38  1  0
 16 39  1  0
 17 40  1  0
 17 41  1  0
 18 42  1  0
 18 43  1  0
 19 44  1  0
 19 45  1  0
 22 46  1  0
 23 47  1  0
 26 48  1  0
 27 49  1  0
M  END
$$$$
