@<TRIPOS>MOLECULE
*****
 54 58 0 0 0
SMALL
GASTEIGER

@<TRIPOS>ATOM
      1 C          -2.2547   -2.2638   -1.9866 C.3     1  UNL1       -0.0377
      2 C          -3.0170   -1.6174   -0.8853 C.ar    1  UNL1       -0.0250
      3 C          -4.3748   -1.4839   -1.0355 C.ar    1  UNL1       -0.0568
      4 C          -5.1207   -0.8924   -0.0480 C.ar    1  UNL1       -0.0614
      5 C          -4.5309   -0.4199    1.1128 C.ar    1  UNL1       -0.0597
      6 C          -3.1749   -0.5603    1.2485 C.ar    1  UNL1       -0.0359
      7 C          -2.4228   -1.1505    0.2657 C.ar    1  UNL1        0.0703
      8 N          -1.0151   -1.3086    0.4067 N.ar    1  UNL1       -0.2170
      9 N          -0.4746   -2.5214    0.4540 N.ar    1  UNL1       -0.1600
     10 C           0.8447   -2.4321    0.5978 C.ar    1  UNL1        0.1751
     11 C           1.8072   -3.5709    0.6920 C.3     1  UNL1        0.4366
     12 F           2.7139   -3.4766   -0.3482 F       1  UNL1       -0.1643
     13 F           2.4813   -3.5578    1.8934 F       1  UNL1       -0.1643
     14 F           1.1483   -4.7827    0.6213 F       1  UNL1       -0.1643
     15 C           1.1176   -1.0821    0.6398 C.ar    1  UNL1        0.0539
     16 C           2.4613   -0.5060    0.7909 C.ar    1  UNL1       -0.0104
     17 C           2.9839   -0.2402    2.0402 C.ar    1  UNL1       -0.0517
     18 C           4.2315    0.2964    2.2212 C.ar    1  UNL1       -0.0337
     19 C           5.0105    0.5889    1.1148 C.ar    1  UNL1        0.0892
     20 N           6.2557    1.1235    1.2609 N.ar    1  UNL1       -0.2519
     21 C           7.0138    1.4085    0.1892 C.ar    1  UNL1        0.0464
     22 C           6.5264    1.1570   -1.0746 C.ar    1  UNL1        0.0464
     23 N           5.2979    0.6294   -1.2210 N.ar    1  UNL1       -0.2519
     24 C           4.5280    0.3393   -0.1544 C.ar    1  UNL1        0.0897
     25 C           3.2540   -0.2072   -0.2966 C.ar    1  UNL1       -0.0264
     26 C          -0.0662   -0.3734    0.5179 C.ar    1  UNL1        0.1349
     27 N          -0.1951    1.0230    0.5108 N.pl3   1  UNL1       -0.2982
     28 C          -1.3486    1.7830    0.2575 C.ar    1  UNL1        0.0465
     29 C          -1.9075    2.5631    1.2457 C.ar    1  UNL1       -0.0397
     30 C          -3.0253    3.3397    1.0601 C.ar    1  UNL1       -0.0600
     31 C          -3.6357    3.3529   -0.1741 C.ar    1  UNL1       -0.0609
     32 C          -3.1034    2.5878   -1.1801 C.ar    1  UNL1       -0.0460
     33 C          -1.9542    1.7967   -0.9733 C.ar    1  UNL1        0.0799
     34 C          -1.4563    1.0915   -2.1199 C.2     1  UNL1        0.3386
     35 O          -2.0723    1.1194   -3.2104 O.2     1  UNL1       -0.2451
     36 O          -0.2922    0.3605   -2.0835 O.3     1  UNL1       -0.4771
     37 H          -2.4755   -1.6619   -2.8996 H       1  UNL1        0.0278
     38 H          -2.6403   -3.2986   -2.1502 H       1  UNL1        0.0278
     39 H          -1.1710   -2.3120   -1.7987 H       1  UNL1        0.0278
     40 H          -4.8645   -1.8429   -1.9300 H       1  UNL1        0.0621
     41 H          -6.2045   -0.7736   -0.1418 H       1  UNL1        0.0618
     42 H          -5.1448    0.0520    1.8943 H       1  UNL1        0.0618
     43 H          -2.7001   -0.2017    2.1388 H       1  UNL1        0.0639
     44 H           2.3802   -0.4664    2.9075 H       1  UNL1        0.0624
     45 H           4.6661    0.5148    3.1810 H       1  UNL1        0.0640
     46 H           8.0043    1.8327    0.2587 H       1  UNL1        0.0845
     47 H           7.1176    1.3777   -1.9498 H       1  UNL1        0.0845
     48 H           2.8530   -0.4108   -1.2685 H       1  UNL1        0.0645
     49 H           0.6731    1.6226    0.7213 H       1  UNL1        0.1536
     50 H          -1.4529    2.5748    2.2255 H       1  UNL1        0.0636
     51 H          -3.4581    3.9529    1.8514 H       1  UNL1        0.0618
     52 H          -4.5392    3.9707   -0.3475 H       1  UNL1        0.0618
     53 H          -3.5964    2.6128   -2.1381 H       1  UNL1        0.0626
     54 H           0.3195    0.3435   -2.9037 H       1  UNL1        0.2954
@<TRIPOS>BOND
     1     1     2    1
     2     2     3   ar
     3     3     4   ar
     4     4     5   ar
     5     5     6   ar
     6     6     7   ar
     7     7     8    1
     8     8     9   ar
     9     9    10   ar
    10    10    11    1
    11    11    12    1
    12    11    13    1
    13    11    14    1
    14    10    15   ar
    15    15    16    1
    16    16    17   ar
    17    17    18   ar
    18    18    19   ar
    19    19    20   ar
    20    20    21   ar
    21    21    22   ar
    22    22    23   ar
    23    23    24   ar
    24    24    25   ar
    25    15    26   ar
    26    26    27    1
    27    27    28    1
    28    28    29   ar
    29    29    30   ar
    30    30    31   ar
    31    31    32   ar
    32    32    33   ar
    33    33    34    1
    34    34    35    2
    35    34    36    1
    36     7     2   ar
    37    26     8   ar
    38    33    28   ar
    39    25    16   ar
    40    24    19   ar
    41     1    37    1
    42     1    38    1
    43     1    39    1
    44     3    40    1
    45     4    41    1
    46     5    42    1
    47     6    43    1
    48    17    44    1
    49    18    45    1
    50    21    46    1
    51    22    47    1
    52    25    48    1
    53    27    49    1
    54    29    50    1
    55    30    51    1
    56    31    52    1
    57    32    53    1
    58    36    54    1
