@<TRIPOS>MOLECULE
*****
 67 70 0 0 0
SMALL
GASTEIGER

@<TRIPOS>ATOM
      1 C           4.8428   -3.9216   -0.9311 C.3     1  UNL1       -0.0612
      2 C           5.7645   -3.2603    0.0993 C.3     1  UNL1       -0.0311
      3 C           7.0783   -4.0343    0.1348 C.3     1  UNL1       -0.0612
      4 C           6.0962   -1.8720   -0.3865 C.3     1  UNL1        0.0142
      5 N           4.9671   -1.0089   -0.5593 N.am    1  UNL1       -0.3111
      6 C           4.1138   -0.6586    0.5066 C.2     1  UNL1        0.2441
      7 O           4.2991   -1.0805    1.6692 O.2     1  UNL1       -0.2702
      8 C           2.9834    0.2183    0.2726 C.ar    1  UNL1        0.0375
      9 C           2.5219    0.5677   -0.9765 C.ar    1  UNL1       -0.0490
     10 C           1.4576    1.4182   -1.1711 C.ar    1  UNL1       -0.0525
     11 C           0.7898    1.9718   -0.0971 C.ar    1  UNL1       -0.0032
     12 C          -0.3367    2.8718   -0.2783 C.ar    1  UNL1       -0.0050
     13 C          -0.1718    4.2303   -0.4233 C.ar    1  UNL1       -0.0527
     14 C          -1.2573    5.0658   -0.6146 C.ar    1  UNL1       -0.0534
     15 C          -2.5317    4.5529   -0.6655 C.ar    1  UNL1       -0.0166
     16 C          -3.7243    5.4303   -0.8905 C.ar    1  UNL1       -0.0109
     17 C          -3.6684    6.5270   -1.6307 C.ar    1  UNL1       -0.0470
     18 C          -4.7951    7.2988   -1.8145 C.ar    1  UNL1       -0.0237
     19 S          -6.0157    6.3723   -0.8501 S.2     1  UNL1       -0.1045
     20 C          -4.9245    5.0684   -0.3048 C.ar    1  UNL1       -0.0166
     21 C          -2.7114    3.1931   -0.5210 C.ar    1  UNL1       -0.0413
     22 C          -1.6075    2.3493   -0.3261 C.ar    1  UNL1        0.0453
     23 C          -1.7672    0.9216   -0.1587 C.2     1  UNL1        0.2489
     24 O          -0.9538    0.1709    0.3862 O.2     1  UNL1       -0.2698
     25 N          -2.9732    0.3113   -0.6620 N.am    1  UNL1       -0.2815
     26 C          -3.1978   -1.0770   -0.5185 C.ar    1  UNL1        0.0337
     27 C          -3.8679   -1.5273    0.5966 C.ar    1  UNL1       -0.0397
     28 C          -4.0889   -2.8855    0.7527 C.ar    1  UNL1       -0.0451
     29 C          -3.6532   -3.8101   -0.1858 C.ar    1  UNL1        0.0648
     30 C          -3.9202   -5.2201    0.0314 C.2     1  UNL1        0.3081
     31 N          -3.9179   -6.0372   -0.9411 N.2     1  UNL1       -0.0994
     32 N          -4.1893   -5.6836    1.3352 N.pl3   1  UNL1       -0.2466
     33 C          -2.9883   -3.3588   -1.2919 C.ar    1  UNL1       -0.0451
     34 C          -2.7693   -1.9823   -1.4414 C.ar    1  UNL1       -0.0397
     35 C           1.2208    1.6479    1.1783 C.ar    1  UNL1        0.0672
     36 C           0.5279    2.2389    2.3264 C.2     1  UNL1        0.3374
     37 O          -0.4192    3.0224    2.1602 O.2     1  UNL1       -0.2451
     38 O           0.9695    1.8890    3.5893 O.3     1  UNL1       -0.4771
     39 C           2.2886    0.7938    1.3329 C.ar    1  UNL1       -0.0351
     40 H           5.0269   -5.0038   -0.8805 H       1  UNL1        0.0233
     41 H           5.0790   -3.4849   -1.9376 H       1  UNL1        0.0233
     42 H           3.8076   -3.6809   -0.6060 H       1  UNL1        0.0233
     43 H           5.2707   -3.3109    1.0660 H       1  UNL1        0.0311
     44 H           7.5946   -3.8467   -0.8492 H       1  UNL1        0.0233
     45 H           7.6690   -3.6959    0.9858 H       1  UNL1        0.0233
     46 H           6.8348   -5.1148    0.1463 H       1  UNL1        0.0233
     47 H           6.8063   -1.3678    0.2984 H       1  UNL1        0.0465
     48 H           6.6569   -1.9775   -1.3492 H       1  UNL1        0.0465
     49 H           4.8228   -0.6459   -1.5523 H       1  UNL1        0.1490
     50 H           3.0466    0.1233   -1.8357 H       1  UNL1        0.0625
     51 H           1.1190    1.6739   -2.1586 H       1  UNL1        0.0624
     52 H           0.8418    4.6592   -0.3875 H       1  UNL1        0.0624
     53 H          -1.1227    6.1416   -0.7275 H       1  UNL1        0.0624
     54 H          -2.7237    6.8923   -2.1466 H       1  UNL1        0.0629
     55 H          -4.9828    8.2097   -2.3599 H       1  UNL1        0.0693
     56 H          -5.1805    4.2197    0.3270 H       1  UNL1        0.0699
     57 H          -3.7204    2.7819   -0.5542 H       1  UNL1        0.0631
     58 H          -3.6990    0.8833   -1.1419 H       1  UNL1        0.1551
     59 H          -4.2224   -0.8285    1.3463 H       1  UNL1        0.0636
     60 H          -4.6089   -3.2623    1.6173 H       1  UNL1        0.0627
     61 H          -3.7291   -5.7565   -1.9387 H       1  UNL1        0.3633
     62 H          -3.6327   -6.4555    1.7422 H       1  UNL1        0.2884
     63 H          -4.9497   -5.2451    1.8800 H       1  UNL1        0.2884
     64 H          -2.6314   -4.0548   -2.0503 H       1  UNL1        0.0627
     65 H          -2.2423   -1.6440   -2.3192 H       1  UNL1        0.0636
     66 H           0.8207    2.4993    4.3727 H       1  UNL1        0.2954
     67 H           2.5780    0.5776    2.3597 H       1  UNL1        0.0633
@<TRIPOS>BOND
     1     1     2    1
     2     2     3    1
     3     2     4    1
     4     4     5    1
     5     5     6   am
     6     6     7    2
     7     6     8    1
     8     8     9   ar
     9     9    10   ar
    10    10    11   ar
    11    11    12    1
    12    12    13   ar
    13    13    14   ar
    14    14    15   ar
    15    15    16    1
    16    16    17   ar
    17    17    18   ar
    18    18    19   ar
    19    19    20   ar
    20    15    21   ar
    21    21    22   ar
    22    22    23    1
    23    23    24    2
    24    23    25   am
    25    25    26    1
    26    26    27   ar
    27    27    28   ar
    28    28    29   ar
    29    29    30    1
    30    30    31    2
    31    30    32    1
    32    29    33   ar
    33    33    34   ar
    34    11    35   ar
    35    35    36    1
    36    36    37    2
    37    36    38    1
    38    35    39   ar
    39    39     8   ar
    40    22    12   ar
    41    34    26   ar
    42    20    16   ar
    43     1    40    1
    44     1    41    1
    45     1    42    1
    46     2    43    1
    47     3    44    1
    48     3    45    1
    49     3    46    1
    50     4    47    1
    51     4    48    1
    52     5    49    1
    53     9    50    1
    54    10    51    1
    55    13    52    1
    56    14    53    1
    57    17    54    1
    58    18    55    1
    59    20    56    1
    60    21    57    1
    61    25    58    1
    62    27    59    1
    63    28    60    1
    64    31    61    1
    65    32    62    1
    66    32    63    1
    67    33    64    1
    68    34    65    1
    69    38    66    1
    70    39    67    1
