
     RDKit          3D

 50 52  0  0  0  0  0  0  0  0999 V2000
    0.0399    2.6464    0.9225 C   0  0  1  0  0  0  0  0  0  0  0  0
   -1.3128    2.6336    1.6473 C   0  0  0  0  0  0  0  0  0  0  0  0
   -2.3447    2.0267    0.7331 C   0  0  0  0  0  0  0  0  0  0  0  0
   -3.5106    2.3532    0.3843 O   0  0  0  0  0  0  0  0  0  0  0  0
   -1.8146    0.8250    0.1797 N   0  0  0  0  0  0  0  0  0  0  0  0
   -2.4285    0.0636   -0.9026 C   0  0  0  0  0  0  0  0  0  0  0  0
   -3.3425   -0.9268   -0.3193 C   0  0  0  0  0  0  0  0  0  0  0  0
   -4.6787   -0.7560   -0.0381 C   0  0  0  0  0  0  0  0  0  0  0  0
   -5.4536   -1.7626    0.5153 C   0  0  0  0  0  0  0  0  0  0  0  0
   -4.8846   -2.9687    0.7955 C   0  0  0  0  0  0  0  0  0  0  0  0
   -3.5610   -3.1966    0.5377 C   0  0  0  0  0  0  0  0  0  0  0  0
   -2.8108   -2.1744   -0.0148 C   0  0  0  0  0  0  0  0  0  0  0  0
   -0.5575    0.3058    0.7329 C   0  0  0  0  0  0  0  0  0  0  0  0
    0.4129    1.3305    0.5594 N   0  0  0  0  0  0  0  0  0  0  0  0
    1.5308    1.1405   -0.6848 S   0  0  0  0  0  0  0  0  0  0  0  0
    2.3661    2.3835   -0.7988 O   0  0  0  0  0  0  0  0  0  0  0  0
    0.7572    1.0263   -1.9928 O   0  0  0  0  0  0  0  0  0  0  0  0
    2.5365   -0.3008   -0.4763 C   0  0  0  0  0  0  0  0  0  0  0  0
    3.7103   -0.1267    0.2340 C   0  0  0  0  0  0  0  0  0  0  0  0
    4.5497   -1.2168    0.4366 C   0  0  0  0  0  0  0  0  0  0  0  0
    4.1819   -2.4472   -0.0815 C   0  0  0  0  0  0  0  0  0  0  0  0
    4.9339   -3.6051    0.0546 O   0  0  0  0  0  0  0  0  0  0  0  0
    6.1769   -3.5623    0.7714 C   0  0  0  0  0  0  0  0  0  0  0  0
    2.9934   -2.6133   -0.7981 C   0  0  0  0  0  0  0  0  0  0  0  0
    2.1542   -1.5221   -1.0004 C   0  0  0  0  0  0  0  0  0  0  0  0
   -0.1438    3.4921   -0.2852 C   0  0  0  0  0  0  0  0  0  0  0  0
   -0.0916    3.4739   -1.5409 O   0  0  0  0  0  0  0  0  0  0  0  0
   -0.5181    4.8193    0.1095 N   0  0  0  0  0  0  0  0  0  0  0  0
   -0.7530    5.8139   -0.8056 O   0  0  0  0  0  0  0  0  0  0  0  0
    0.7546    3.1409    1.6151 H   0  0  0  0  0  0  0  0  0  0  0  0
   -1.2810    1.9761    2.5416 H   0  0  0  0  0  0  0  0  0  0  0  0
   -1.6596    3.6368    1.9164 H   0  0  0  0  0  0  0  0  0  0  0  0
   -1.6888   -0.4341   -1.5332 H   0  0  0  0  0  0  0  0  0  0  0  0
   -3.0131    0.7375   -1.5791 H   0  0  0  0  0  0  0  0  0  0  0  0
   -5.0969    0.2032   -0.2697 H   0  0  0  0  0  0  0  0  0  0  0  0
   -6.5014   -1.5286    0.7005 H   0  0  0  0  0  0  0  0  0  0  0  0
   -5.5353   -3.7107    1.2237 H   0  0  0  0  0  0  0  0  0  0  0  0
   -3.1436   -4.1598    0.7710 H   0  0  0  0  0  0  0  0  0  0  0  0
   -1.7702   -2.4280   -0.1912 H   0  0  0  0  0  0  0  0  0  0  0  0
   -0.8053    0.1279    1.8205 H   0  0  0  0  0  0  0  0  0  0  0  0
   -0.2494   -0.6186    0.2535 H   0  0  0  0  0  0  0  0  0  0  0  0
    4.0290    0.8220    0.6534 H   0  0  0  0  0  0  0  0  0  0  0  0
    5.4826   -1.1460    0.9841 H   0  0  0  0  0  0  0  0  0  0  0  0
    6.7072   -2.6597    0.3573 H   0  0  0  0  0  0  0  0  0  0  0  0
    5.9356   -3.3428    1.8132 H   0  0  0  0  0  0  0  0  0  0  0  0
    6.7788   -4.4516    0.5926 H   0  0  0  0  0  0  0  0  0  0  0  0
    2.6886   -3.5772   -1.2137 H   0  0  0  0  0  0  0  0  0  0  0  0
    1.2221   -1.6110   -1.5520 H   0  0  0  0  0  0  0  0  0  0  0  0
   -0.6583    5.2028    1.0792 H   0  0  0  0  0  0  0  0  0  0  0  0
   -0.3328    6.6660   -0.5330 H   0  0  0  0  0  0  0  0  0  0  0  0
  1  2  1  0
  2  3  1  0
  3  4  2  0
  3  5  1  0
  5  6  1  0
  6  7  1  0
  7  8  2  0
  8  9  1  0
  9 10  2  0
 10 11  1  0
 11 12  2  0
  5 13  1  0
 13 14  1  0
 14 15  1  0
 15 16  2  0
 15 17  2  0
 15 18  1  0
 18 19  2  0
 19 20  1  0
 20 21  2  0
 21 22  1  0
 22 23  1  0
 21 24  1  0
 24 25  2  0
  1 26  1  0
 26 27  2  0
 26 28  1  0
 28 29  1  0
 14  1  1  0
 25 18  1  0
 12  7  1  0
  1 30  1  1
  2 31  1  0
  2 32  1  0
  6 33  1  0
  6 34  1  0
  8 35  1  0
  9 36  1  0
 10 37  1  0
 11 38  1  0
 12 39  1  0
 13 40  1  0
 13 41  1  0
 19 42  1  0
 20 43  1  0
 23 44  1  0
 23 45  1  0
 23 46  1  0
 24 47  1  0
 25 48  1  0
 28 49  1  0
 29 50  1  0
M  END
$$$$
