@<TRIPOS>MOLECULE
*****
 50 52 0 0 0
SMALL
GASTEIGER

@<TRIPOS>ATOM
      1 C           0.0399    2.6464    0.9225 C.3     1  UNL1        0.1196
      2 C          -1.3128    2.6336    1.6473 C.3     1  UNL1        0.0500
      3 C          -2.3447    2.0267    0.7331 C.2     1  UNL1        0.2189
      4 O          -3.5106    2.3532    0.3843 O.2     1  UNL1       -0.2755
      5 N          -1.8146    0.8250    0.1797 N.am    1  UNL1       -0.2826
      6 C          -2.4285    0.0636   -0.9026 C.3     1  UNL1        0.0410
      7 C          -3.3425   -0.9268   -0.3193 C.ar    1  UNL1       -0.0301
      8 C          -4.6787   -0.7560   -0.0381 C.ar    1  UNL1       -0.0571
      9 C          -5.4536   -1.7626    0.5153 C.ar    1  UNL1       -0.0615
     10 C          -4.8846   -2.9687    0.7955 C.ar    1  UNL1       -0.0617
     11 C          -3.5610   -3.1966    0.5377 C.ar    1  UNL1       -0.0615
     12 C          -2.8108   -2.1744   -0.0148 C.ar    1  UNL1       -0.0571
     13 C          -0.5575    0.3058    0.7329 C.3     1  UNL1        0.0890
     14 N           0.4129    1.3305    0.5594 N.3     1  UNL1       -0.1467
     15 S           1.5308    1.1405   -0.6848 S.O2    1  UNL1        0.0629
     16 O           2.3661    2.3835   -0.7988 O.2     1  UNL1       -0.1528
     17 O           0.7572    1.0263   -1.9928 O.2     1  UNL1       -0.1528
     18 C           2.5365   -0.3008   -0.4763 C.ar    1  UNL1        0.1058
     19 C           3.7103   -0.1267    0.2340 C.ar    1  UNL1       -0.0319
     20 C           4.5497   -1.2168    0.4366 C.ar    1  UNL1       -0.0181
     21 C           4.1819   -2.4472   -0.0815 C.ar    1  UNL1        0.1202
     22 O           4.9339   -3.6051    0.0546 O.3     1  UNL1       -0.4951
     23 C           6.1769   -3.5623    0.7714 C.3     1  UNL1        0.0788
     24 C           2.9934   -2.6133   -0.7981 C.ar    1  UNL1       -0.0181
     25 C           2.1542   -1.5221   -1.0004 C.ar    1  UNL1       -0.0319
     26 C          -0.1438    3.4921   -0.2852 C.2     1  UNL1        0.2549
     27 O          -0.0916    3.4739   -1.5409 O.2     1  UNL1       -0.2719
     28 N          -0.5181    4.8193    0.1095 N.am    1  UNL1       -0.1961
     29 O          -0.7530    5.8139   -0.8056 O.3     1  UNL1       -0.2951
     30 H           0.7546    3.1409    1.6151 H       1  UNL1        0.0582
     31 H          -1.2810    1.9761    2.5416 H       1  UNL1        0.0379
     32 H          -1.6596    3.6368    1.9164 H       1  UNL1        0.0379
     33 H          -1.6888   -0.4341   -1.5332 H       1  UNL1        0.0514
     34 H          -3.0131    0.7375   -1.5791 H       1  UNL1        0.0514
     35 H          -5.0969    0.2032   -0.2697 H       1  UNL1        0.0621
     36 H          -6.5014   -1.5286    0.7005 H       1  UNL1        0.0618
     37 H          -5.5353   -3.7107    1.2237 H       1  UNL1        0.0618
     38 H          -3.1436   -4.1598    0.7710 H       1  UNL1        0.0618
     39 H          -1.7702   -2.4280   -0.1912 H       1  UNL1        0.0621
     40 H          -0.8053    0.1279    1.8205 H       1  UNL1        0.0650
     41 H          -0.2494   -0.6186    0.2535 H       1  UNL1        0.0650
     42 H           4.0290    0.8220    0.6534 H       1  UNL1        0.0638
     43 H           5.4826   -1.1460    0.9841 H       1  UNL1        0.0655
     44 H           6.7072   -2.6597    0.3573 H       1  UNL1        0.0660
     45 H           5.9356   -3.3428    1.8132 H       1  UNL1        0.0660
     46 H           6.7788   -4.4516    0.5926 H       1  UNL1        0.0660
     47 H           2.6886   -3.5772   -1.2137 H       1  UNL1        0.0655
     48 H           1.2221   -1.6110   -1.5520 H       1  UNL1        0.0638
     49 H          -0.6583    5.2028    1.0792 H       1  UNL1        0.1822
     50 H          -0.3328    6.6660   -0.5330 H       1  UNL1        0.2414
@<TRIPOS>BOND
     1     1     2    1
     2     2     3    1
     3     3     4    2
     4     3     5   am
     5     5     6    1
     6     6     7    1
     7     7     8   ar
     8     8     9   ar
     9     9    10   ar
    10    10    11   ar
    11    11    12   ar
    12     5    13    1
    13    13    14    1
    14    14    15    1
    15    15    16    2
    16    15    17    2
    17    15    18    1
    18    18    19   ar
    19    19    20   ar
    20    20    21   ar
    21    21    22    1
    22    22    23    1
    23    21    24   ar
    24    24    25   ar
    25     1    26    1
    26    26    27    2
    27    26    28   am
    28    28    29    1
    29    14     1    1
    30    25    18   ar
    31    12     7   ar
    32     1    30    1
    33     2    31    1
    34     2    32    1
    35     6    33    1
    36     6    34    1
    37     8    35    1
    38     9    36    1
    39    10    37    1
    40    11    38    1
    41    12    39    1
    42    13    40    1
    43    13    41    1
    44    19    42    1
    45    20    43    1
    46    23    44    1
    47    23    45    1
    48    23    46    1
    49    24    47    1
    50    25    48    1
    51    28    49    1
    52    29    50    1
