
     RDKit          3D

 42 44  0  0  0  0  0  0  0  0999 V2000
   -1.4131    1.9913   -1.5432 O   0  0  0  0  0  0  0  0  0  0  0  0
   -0.9946    1.4007   -0.3134 C   0  0  0  0  0  0  0  0  0  0  0  0
   -1.9799    0.2837   -0.0861 C   0  0  0  0  0  0  0  0  0  0  0  0
   -3.3935    0.7315   -0.2298 C   0  0  0  0  0  0  0  0  0  0  0  0
   -4.3217   -0.1009    0.6678 C   0  0  0  0  0  0  0  0  0  0  0  0
   -3.8352   -1.5235    0.5550 C   0  0  0  0  0  0  0  0  0  0  0  0
   -2.5094   -1.6185    1.2733 C   0  0  0  0  0  0  0  0  0  0  0  0
   -1.7150   -0.4303    1.1280 N   0  0  0  0  0  0  0  0  0  0  0  0
    0.3511    0.8155   -0.5013 C   0  0  0  0  0  0  0  0  0  0  0  0
    0.6277    0.3537   -1.7955 C   0  0  0  0  0  0  0  0  0  0  0  0
    1.8406   -0.2256   -2.1022 C   0  0  0  0  0  0  0  0  0  0  0  0
    2.8186   -0.3816   -1.1943 N   0  0  0  0  0  0  0  0  0  0  0  0
    2.5724    0.0557    0.0536 C   0  0  0  0  0  0  0  0  0  0  0  0
    1.3697    0.6377    0.3854 C   0  0  0  0  0  0  0  0  0  0  0  0
    1.1120    1.0913    1.6612 C   0  0  0  0  0  0  0  0  0  0  0  0
    2.0667    0.9686    2.6429 C   0  0  0  0  0  0  0  0  0  0  0  0
    3.3092    0.3859    2.3709 C   0  0  0  0  0  0  0  0  0  0  0  0
    3.4941   -0.0459    1.0643 C   0  0  0  0  0  0  0  0  0  0  0  0
    4.8013   -0.6739    0.7245 C   0  0  0  0  0  0  0  0  0  0  0  0
    4.6257   -1.9740    0.2754 F   0  0  0  0  0  0  0  0  0  0  0  0
    5.3606    0.0217   -0.3419 F   0  0  0  0  0  0  0  0  0  0  0  0
    5.7092   -0.6345    1.7483 F   0  0  0  0  0  0  0  0  0  0  0  0
    2.1694   -0.7299   -3.4736 C   0  0  0  0  0  0  0  0  0  0  0  0
    2.7051   -2.0149   -3.3258 F   0  0  0  0  0  0  0  0  0  0  0  0
    3.0940    0.1058   -4.0667 F   0  0  0  0  0  0  0  0  0  0  0  0
    0.9854   -0.7954   -4.1709 F   0  0  0  0  0  0  0  0  0  0  0  0
   -0.6175    2.4289   -1.9482 H   0  0  0  0  0  0  0  0  0  0  0  0
   -0.9635    2.1643    0.4585 H   0  0  0  0  0  0  0  0  0  0  0  0
   -1.7972   -0.4662   -0.9134 H   0  0  0  0  0  0  0  0  0  0  0  0
   -3.7908    0.6076   -1.2587 H   0  0  0  0  0  0  0  0  0  0  0  0
   -3.5192    1.8107    0.0534 H   0  0  0  0  0  0  0  0  0  0  0  0
   -5.3503   -0.0154    0.2492 H   0  0  0  0  0  0  0  0  0  0  0  0
   -4.2408    0.2852    1.6853 H   0  0  0  0  0  0  0  0  0  0  0  0
   -3.6709   -1.7327   -0.5285 H   0  0  0  0  0  0  0  0  0  0  0  0
   -4.5965   -2.1915    0.9676 H   0  0  0  0  0  0  0  0  0  0  0  0
   -2.7327   -1.7871    2.3450 H   0  0  0  0  0  0  0  0  0  0  0  0
   -1.9859   -2.5231    0.9094 H   0  0  0  0  0  0  0  0  0  0  0  0
   -1.7233    0.1732    1.9791 H   0  0  0  0  0  0  0  0  0  0  0  0
   -0.0729    0.4212   -2.6101 H   0  0  0  0  0  0  0  0  0  0  0  0
    0.1858    1.5562    1.9587 H   0  0  0  0  0  0  0  0  0  0  0  0
    1.9459    1.2986    3.6716 H   0  0  0  0  0  0  0  0  0  0  0  0
    4.0792    0.2756    3.1232 H   0  0  0  0  0  0  0  0  0  0  0  0
  1  2  1  0
  2  3  1  0
  3  4  1  0
  4  5  1  0
  5  6  1  0
  6  7  1  0
  7  8  1  0
  2  9  1  0
  9 10  2  0
 10 11  1  0
 11 12  2  0
 12 13  1  0
 13 14  2  0
 14 15  1  0
 15 16  2  0
 16 17  1  0
 17 18  2  0
 18 19  1  0
 19 20  1  0
 19 21  1  0
 19 22  1  0
 11 23  1  0
 23 24  1  0
 23 25  1  0
 23 26  1  0
  8  3  1  0
 14  9  1  0
 18 13  1  0
  1 27  1  0
  2 28  1  0
  3 29  1  0
  4 30  1  0
  4 31  1  0
  5 32  1  0
  5 33  1  0
  6 34  1  0
  6 35  1  0
  7 36  1  0
  7 37  1  0
  8 38  1  0
 10 39  1  0
 15 40  1  0
 16 41  1  0
 17 42  1  0
M  END
$$$$
