@<TRIPOS>MOLECULE
*****
 42 44 0 0 0
SMALL
GASTEIGER

@<TRIPOS>ATOM
      1 O          -1.4131    1.9913   -1.5432 O.3     1  UNL1       -0.3856
      2 C          -0.9946    1.4007   -0.3134 C.3     1  UNL1        0.0961
      3 C          -1.9799    0.2837   -0.0861 C.3     1  UNL1        0.0378
      4 C          -3.3935    0.7315   -0.2298 C.3     1  UNL1       -0.0348
      5 C          -4.3217   -0.1009    0.6678 C.3     1  UNL1       -0.0504
      6 C          -3.8352   -1.5235    0.5550 C.3     1  UNL1       -0.0404
      7 C          -2.5094   -1.6185    1.2733 C.3     1  UNL1       -0.0038
      8 N          -1.7150   -0.4303    1.1280 N.3     1  UNL1       -0.3106
      9 C           0.3511    0.8155   -0.5013 C.ar    1  UNL1       -0.0065
     10 C           0.6277    0.3537   -1.7955 C.ar    1  UNL1       -0.0254
     11 C           1.8406   -0.2256   -2.1022 C.ar    1  UNL1        0.1446
     12 N           2.8186   -0.3816   -1.1943 N.ar    1  UNL1       -0.2421
     13 C           2.5724    0.0557    0.0536 C.ar    1  UNL1        0.0836
     14 C           1.3697    0.6377    0.3854 C.ar    1  UNL1        0.0066
     15 C           1.1120    1.0913    1.6612 C.ar    1  UNL1       -0.0522
     16 C           2.0667    0.9686    2.6429 C.ar    1  UNL1       -0.0605
     17 C           3.3092    0.3859    2.3709 C.ar    1  UNL1       -0.0480
     18 C           3.4941   -0.0459    1.0643 C.ar    1  UNL1        0.0807
     19 C           4.8013   -0.6739    0.7245 C.3     1  UNL1        0.4194
     20 F           4.6257   -1.9740    0.2754 F       1  UNL1       -0.1658
     21 F           5.3606    0.0217   -0.3419 F       1  UNL1       -0.1658
     22 F           5.7092   -0.6345    1.7483 F       1  UNL1       -0.1658
     23 C           2.1694   -0.7299   -3.4736 C.3     1  UNL1        0.4342
     24 F           2.7051   -2.0149   -3.3258 F       1  UNL1       -0.1644
     25 F           3.0940    0.1058   -4.0667 F       1  UNL1       -0.1644
     26 F           0.9854   -0.7954   -4.1709 F       1  UNL1       -0.1644
     27 H          -0.6175    2.4289   -1.9482 H       1  UNL1        0.2103
     28 H          -0.9635    2.1643    0.4585 H       1  UNL1        0.0659
     29 H          -1.7972   -0.4662   -0.9134 H       1  UNL1        0.0489
     30 H          -3.7908    0.6076   -1.2587 H       1  UNL1        0.0281
     31 H          -3.5192    1.8107    0.0534 H       1  UNL1        0.0281
     32 H          -5.3503   -0.0154    0.2492 H       1  UNL1        0.0266
     33 H          -4.2408    0.2852    1.6853 H       1  UNL1        0.0266
     34 H          -3.6709   -1.7327   -0.5285 H       1  UNL1        0.0277
     35 H          -4.5965   -2.1915    0.9676 H       1  UNL1        0.0277
     36 H          -2.7327   -1.7871    2.3450 H       1  UNL1        0.0424
     37 H          -1.9859   -2.5231    0.9094 H       1  UNL1        0.0424
     38 H          -1.7233    0.1732    1.9791 H       1  UNL1        0.1223
     39 H          -0.0729    0.4212   -2.6101 H       1  UNL1        0.0642
     40 H           0.1858    1.5562    1.9587 H       1  UNL1        0.0624
     41 H           1.9459    1.2986    3.6716 H       1  UNL1        0.0618
     42 H           4.0792    0.2756    3.1232 H       1  UNL1        0.0624
@<TRIPOS>BOND
     1     1     2    1
     2     2     3    1
     3     3     4    1
     4     4     5    1
     5     5     6    1
     6     6     7    1
     7     7     8    1
     8     2     9    1
     9     9    10   ar
    10    10    11   ar
    11    11    12   ar
    12    12    13   ar
    13    13    14   ar
    14    14    15   ar
    15    15    16   ar
    16    16    17   ar
    17    17    18   ar
    18    18    19    1
    19    19    20    1
    20    19    21    1
    21    19    22    1
    22    11    23    1
    23    23    24    1
    24    23    25    1
    25    23    26    1
    26     8     3    1
    27    14     9   ar
    28    18    13   ar
    29     1    27    1
    30     2    28    1
    31     3    29    1
    32     4    30    1
    33     4    31    1
    34     5    32    1
    35     5    33    1
    36     6    34    1
    37     6    35    1
    38     7    36    1
    39     7    37    1
    40     8    38    1
    41    10    39    1
    42    15    40    1
    43    16    41    1
    44    17    42    1
