
     RDKit          3D

 50 53  0  0  0  0  0  0  0  0999 V2000
    5.0385   -0.3741   -2.8476 C   0  0  0  0  0  0  0  0  0  0  0  0
    5.2109    0.0749   -1.5397 O   0  0  0  0  0  0  0  0  0  0  0  0
    4.4193   -0.2196   -0.4572 C   0  0  0  0  0  0  0  0  0  0  0  0
    3.3190   -1.0379   -0.5970 C   0  0  0  0  0  0  0  0  0  0  0  0
    2.5157   -1.3371    0.5019 C   0  0  0  0  0  0  0  0  0  0  0  0
    2.8106   -0.8184    1.7447 C   0  0  0  0  0  0  0  0  0  0  0  0
    1.9806   -1.1211    2.9316 C   0  0  0  0  0  0  0  0  0  0  0  0
    0.8921   -0.1856    3.1180 N   0  0  0  0  0  0  0  0  0  0  0  0
   -0.1137   -0.0228    2.1036 C   0  0  0  0  0  0  0  0  0  0  0  0
   -0.2463    1.0924    1.4210 C   0  0  0  0  0  0  0  0  0  0  0  0
    0.6733    2.2252    1.7059 C   0  0  0  0  0  0  0  0  0  0  0  0
    1.5384    2.0521    2.5948 O   0  0  0  0  0  0  0  0  0  0  0  0
    0.5113    3.4012    0.9665 N   0  0  0  0  0  0  0  0  0  0  0  0
   -0.4897    3.5426   -0.0326 C   0  0  0  0  0  0  0  0  0  0  0  0
   -0.6324    4.6053   -0.6974 O   0  0  0  0  0  0  0  0  0  0  0  0
   -1.3892    2.4139   -0.3011 C   0  0  0  0  0  0  0  0  0  0  0  0
   -2.3642    2.5358   -1.2668 C   0  0  0  0  0  0  0  0  0  0  0  0
   -3.2161    1.4926   -1.5346 C   0  0  0  0  0  0  0  0  0  0  0  0
   -3.1508    0.2896   -0.8712 C   0  0  0  0  0  0  0  0  0  0  0  0
   -4.0404   -0.8354   -1.1329 C   0  0  0  0  0  0  0  0  0  0  0  0
   -4.4158   -1.7376   -0.1607 C   0  0  0  0  0  0  0  0  0  0  0  0
   -5.2661   -2.8089   -0.4229 C   0  0  0  0  0  0  0  0  0  0  0  0
   -5.7535   -2.9790   -1.6985 C   0  0  0  0  0  0  0  0  0  0  0  0
   -5.4015   -2.0972   -2.7010 C   0  0  0  0  0  0  0  0  0  0  0  0
   -4.5462   -1.0339   -2.4007 C   0  0  0  0  0  0  0  0  0  0  0  0
   -2.1524    0.1847    0.1078 C   0  0  0  0  0  0  0  0  0  0  0  0
   -1.2803    1.2070    0.4047 C   0  0  0  0  0  0  0  0  0  0  0  0
    3.9192   -0.0065    1.8342 C   0  0  0  0  0  0  0  0  0  0  0  0
    4.7288    0.3094    0.7848 C   0  0  0  0  0  0  0  0  0  0  0  0
    5.8480    1.1263    0.8640 O   0  0  0  0  0  0  0  0  0  0  0  0
    4.6288   -1.4005   -2.8581 H   0  0  0  0  0  0  0  0  0  0  0  0
    4.3632    0.3624   -3.3692 H   0  0  0  0  0  0  0  0  0  0  0  0
    5.9950   -0.4318   -3.4189 H   0  0  0  0  0  0  0  0  0  0  0  0
    3.0674   -1.4547   -1.5559 H   0  0  0  0  0  0  0  0  0  0  0  0
    1.6696   -1.9702    0.3783 H   0  0  0  0  0  0  0  0  0  0  0  0
    1.5449   -2.1464    2.7764 H   0  0  0  0  0  0  0  0  0  0  0  0
    2.6428   -1.1543    3.8280 H   0  0  0  0  0  0  0  0  0  0  0  0
    0.8602    0.3543    4.0021 H   0  0  0  0  0  0  0  0  0  0  0  0
   -0.7574   -0.8520    1.9228 H   0  0  0  0  0  0  0  0  0  0  0  0
    1.1454    4.2195    1.1443 H   0  0  0  0  0  0  0  0  0  0  0  0
   -2.4631    3.4709   -1.8271 H   0  0  0  0  0  0  0  0  0  0  0  0
   -3.9978    1.5807   -2.3044 H   0  0  0  0  0  0  0  0  0  0  0  0
   -4.0206   -1.5820    0.8291 H   0  0  0  0  0  0  0  0  0  0  0  0
   -5.5544   -3.5173    0.3631 H   0  0  0  0  0  0  0  0  0  0  0  0
   -6.4131   -3.8216   -1.8730 H   0  0  0  0  0  0  0  0  0  0  0  0
   -5.7817   -2.2276   -3.7013 H   0  0  0  0  0  0  0  0  0  0  0  0
   -4.2601   -0.3320   -3.1766 H   0  0  0  0  0  0  0  0  0  0  0  0
   -2.0938   -0.7515    0.6311 H   0  0  0  0  0  0  0  0  0  0  0  0
    4.1477    0.3972    2.8039 H   0  0  0  0  0  0  0  0  0  0  0  0
    6.3301    1.3190    1.7344 H   0  0  0  0  0  0  0  0  0  0  0  0
  1  2  1  0
  2  3  1  0
  3  4  2  0
  4  5  1  0
  5  6  2  0
  6  7  1  0
  7  8  1  0
  8  9  1  0
  9 10  2  3
 10 11  1  0
 11 12  2  0
 11 13  1  0
 13 14  1  0
 14 15  2  0
 14 16  1  0
 16 17  2  0
 17 18  1  0
 18 19  2  0
 19 20  1  0
 20 21  2  0
 21 22  1  0
 22 23  2  0
 23 24  1  0
 24 25  2  0
 19 26  1  0
 26 27  2  0
  6 28  1  0
 28 29  2  0
 29 30  1  0
 29  3  1  0
 27 10  1  0
 27 16  1  0
 25 20  1  0
  1 31  1  0
  1 32  1  0
  1 33  1  0
  4 34  1  0
  5 35  1  0
  7 36  1  0
  7 37  1  0
  8 38  1  0
  9 39  1  0
 13 40  1  0
 17 41  1  0
 18 42  1  0
 21 43  1  0
 22 44  1  0
 23 45  1  0
 24 46  1  0
 25 47  1  0
 26 48  1  0
 28 49  1  0
 30 50  1  0
M  END
$$$$
