@<TRIPOS>MOLECULE
*****
 50 53 0 0 0
SMALL
GASTEIGER

@<TRIPOS>ATOM
      1 C           5.0385   -0.3741   -2.8476 C.3     1  UNL1        0.0790
      2 O           5.2109    0.0749   -1.5397 O.3     1  UNL1       -0.4915
      3 C           4.4193   -0.2196   -0.4572 C.ar    1  UNL1        0.1613
      4 C           3.3190   -1.0379   -0.5970 C.ar    1  UNL1       -0.0160
      5 C           2.5157   -1.3371    0.5019 C.ar    1  UNL1       -0.0534
      6 C           2.8106   -0.8184    1.7447 C.ar    1  UNL1       -0.0268
      7 C           1.9806   -1.1211    2.9316 C.3     1  UNL1        0.0340
      8 N           0.8921   -0.1856    3.1180 N.pl3   1  UNL1       -0.3449
      9 C          -0.1137   -0.0228    2.1036 C.2     1  UNL1        0.0025
     10 C          -0.2463    1.0924    1.4210 C.2     1  UNL1        0.0584
     11 C           0.6733    2.2252    1.7059 C.2     1  UNL1        0.2523
     12 O           1.5384    2.0521    2.5948 O.2     1  UNL1       -0.2697
     13 N           0.5113    3.4012    0.9665 N.am    1  UNL1       -0.2483
     14 C          -0.4897    3.5426   -0.0326 C.2     1  UNL1        0.2511
     15 O          -0.6324    4.6053   -0.6974 O.2     1  UNL1       -0.2698
     16 C          -1.3892    2.4139   -0.3011 C.ar    1  UNL1        0.0450
     17 C          -2.3642    2.5358   -1.2668 C.ar    1  UNL1       -0.0485
     18 C          -3.2161    1.4926   -1.5346 C.ar    1  UNL1       -0.0533
     19 C          -3.1508    0.2896   -0.8712 C.ar    1  UNL1       -0.0173
     20 C          -4.0404   -0.8354   -1.1329 C.ar    1  UNL1       -0.0179
     21 C          -4.4158   -1.7376   -0.1607 C.ar    1  UNL1       -0.0540
     22 C          -5.2661   -2.8089   -0.4229 C.ar    1  UNL1       -0.0612
     23 C          -5.7535   -2.9790   -1.6985 C.ar    1  UNL1       -0.0617
     24 C          -5.4015   -2.0972   -2.7010 C.ar    1  UNL1       -0.0612
     25 C          -4.5462   -1.0339   -2.4007 C.ar    1  UNL1       -0.0540
     26 C          -2.1524    0.1847    0.1078 C.ar    1  UNL1       -0.0454
     27 C          -1.2803    1.2070    0.4047 C.ar    1  UNL1        0.0010
     28 C           3.9192   -0.0065    1.8342 C.ar    1  UNL1       -0.0119
     29 C           4.7288    0.3094    0.7848 C.ar    1  UNL1        0.1587
     30 O           5.8480    1.1263    0.8640 O.3     1  UNL1       -0.5033
     31 H           4.6288   -1.4005   -2.8581 H       1  UNL1        0.0660
     32 H           4.3632    0.3624   -3.3692 H       1  UNL1        0.0660
     33 H           5.9950   -0.4318   -3.4189 H       1  UNL1        0.0660
     34 H           3.0674   -1.4547   -1.5559 H       1  UNL1        0.0655
     35 H           1.6696   -1.9702    0.3783 H       1  UNL1        0.0622
     36 H           1.5449   -2.1464    2.7764 H       1  UNL1        0.0511
     37 H           2.6428   -1.1543    3.8280 H       1  UNL1        0.0511
     38 H           0.8602    0.3543    4.0021 H       1  UNL1        0.1459
     39 H          -0.7574   -0.8520    1.9228 H       1  UNL1        0.0786
     40 H           1.1454    4.2195    1.1443 H       1  UNL1        0.1581
     41 H          -2.4631    3.4709   -1.8271 H       1  UNL1        0.0625
     42 H          -3.9978    1.5807   -2.3044 H       1  UNL1        0.0624
     43 H          -4.0206   -1.5820    0.8291 H       1  UNL1        0.0624
     44 H          -5.5544   -3.5173    0.3631 H       1  UNL1        0.0618
     45 H          -6.4131   -3.8216   -1.8730 H       1  UNL1        0.0618
     46 H          -5.7817   -2.2276   -3.7013 H       1  UNL1        0.0618
     47 H          -4.2601   -0.3320   -3.1766 H       1  UNL1        0.0624
     48 H          -2.0938   -0.7515    0.6311 H       1  UNL1        0.0630
     49 H           4.1477    0.3972    2.8039 H       1  UNL1        0.0658
     50 H           6.3301    1.3190    1.7344 H       1  UNL1        0.2923
@<TRIPOS>BOND
     1     1     2    1
     2     2     3    1
     3     3     4   ar
     4     4     5   ar
     5     5     6   ar
     6     6     7    1
     7     7     8    1
     8     8     9    1
     9     9    10    2
    10    10    11    1
    11    11    12    2
    12    11    13   am
    13    13    14   am
    14    14    15    2
    15    14    16    1
    16    16    17   ar
    17    17    18   ar
    18    18    19   ar
    19    19    20    1
    20    20    21   ar
    21    21    22   ar
    22    22    23   ar
    23    23    24   ar
    24    24    25   ar
    25    19    26   ar
    26    26    27   ar
    27     6    28   ar
    28    28    29   ar
    29    29    30    1
    30    29     3   ar
    31    27    10    1
    32    27    16   ar
    33    25    20   ar
    34     1    31    1
    35     1    32    1
    36     1    33    1
    37     4    34    1
    38     5    35    1
    39     7    36    1
    40     7    37    1
    41     8    38    1
    42     9    39    1
    43    13    40    1
    44    17    41    1
    45    18    42    1
    46    21    43    1
    47    22    44    1
    48    23    45    1
    49    24    46    1
    50    25    47    1
    51    26    48    1
    52    28    49    1
    53    30    50    1
