@<TRIPOS>MOLECULE
*****
 69 74 0 0 0
SMALL
GASTEIGER

@<TRIPOS>ATOM
      1 C          -6.9767   -2.7666    0.6878 C.3     1  UNL1        0.0032
      2 N          -7.6844   -1.8912   -0.2354 N.am    1  UNL1       -0.3024
      3 C          -9.1178   -2.0750   -0.3292 C.3     1  UNL1        0.0032
      4 C          -7.0105   -0.9129   -0.9991 C.2     1  UNL1        0.2627
      5 O          -7.6910   -0.1953   -1.7760 O.2     1  UNL1       -0.2684
      6 C          -5.5552   -0.7172   -0.9078 C.ar    1  UNL1        0.1070
      7 C          -4.6000   -1.6619   -1.2505 C.ar    1  UNL1       -0.0209
      8 C          -3.3435   -1.1391   -1.0352 C.ar    1  UNL1        0.0378
      9 C          -2.0443   -1.5767   -1.1787 C.ar    1  UNL1        0.0419
     10 N          -0.9922   -0.7976   -0.8668 N.ar    1  UNL1       -0.2219
     11 C          -1.2115    0.4381   -0.4037 C.ar    1  UNL1        0.2224
     12 N          -0.1482    1.3190   -0.0439 N.pl3   1  UNL1       -0.2684
     13 C           1.1775    0.8350   -0.1640 C.ar    1  UNL1        0.1251
     14 C           2.2262    1.6583    0.1781 C.ar    1  UNL1       -0.0197
     15 C           3.5035    1.1725    0.0618 C.ar    1  UNL1       -0.0354
     16 C           3.7511   -0.1020   -0.3833 C.ar    1  UNL1        0.0578
     17 N           5.0831   -0.6160   -0.5012 N.am    1  UNL1       -0.2320
     18 C           5.7905   -1.3184    0.5443 C.3     1  UNL1        0.0642
     19 C           7.2279   -1.0987    0.1133 C.3     1  UNL1        0.1435
     20 C           7.6003    0.3210    0.5357 C.3     1  UNL1       -0.0089
     21 C           8.9859    0.6808    0.0288 C.3     1  UNL1       -0.0367
     22 C           9.7599   -0.6044   -0.0850 C.3     1  UNL1       -0.0038
     23 N           9.3977   -1.4516    1.0442 N.3     1  UNL1       -0.3122
     24 C           8.1544   -2.1210    0.6855 C.3     1  UNL1        0.0376
     25 O           7.1501   -1.1891   -1.3048 O.3     1  UNL1       -0.4406
     26 C           5.9327   -0.5449   -1.6089 C.2     1  UNL1        0.4080
     27 O           5.6090    0.0214   -2.6912 O.2     1  UNL1       -0.2259
     28 C           2.6778   -0.8962   -0.7164 C.ar    1  UNL1        0.0512
     29 N           1.4334   -0.4182   -0.6013 N.ar    1  UNL1       -0.2383
     30 N          -2.4710    0.8768   -0.2593 N.ar    1  UNL1       -0.1962
     31 C          -3.5685    0.1482   -0.5528 C.ar    1  UNL1        0.1466
     32 N          -4.8940    0.3713   -0.4878 N.ar    1  UNL1       -0.3180
     33 C          -5.5156    1.5955   -0.0348 C.3     1  UNL1        0.0366
     34 C          -4.8488    2.7720   -0.7136 C.3     1  UNL1       -0.0320
     35 C          -4.4259    3.7131    0.3785 C.3     1  UNL1       -0.0511
     36 C          -5.2839    3.3125    1.5411 C.3     1  UNL1       -0.0511
     37 C          -5.2654    1.8003    1.4579 C.3     1  UNL1       -0.0320
     38 H          -7.3942   -3.7978    0.5524 H       1  UNL1        0.0428
     39 H          -5.9002   -2.7744    0.5164 H       1  UNL1        0.0428
     40 H          -7.2361   -2.4581    1.7327 H       1  UNL1        0.0428
     41 H          -9.4132   -3.0200   -0.7984 H       1  UNL1        0.0428
     42 H          -9.5411   -1.2024   -0.8768 H       1  UNL1        0.0428
     43 H          -9.4975   -1.9743    0.7270 H       1  UNL1        0.0428
     44 H          -4.7413   -2.6663   -1.6308 H       1  UNL1        0.0647
     45 H          -1.8462   -2.5690   -1.5497 H       1  UNL1        0.0838
     46 H          -0.3352    2.2840    0.2948 H       1  UNL1        0.1564
     47 H           2.0088    2.6756    0.5326 H       1  UNL1        0.0652
     48 H           4.3438    1.7958    0.3233 H       1  UNL1        0.0638
     49 H           5.5988   -0.8923    1.5589 H       1  UNL1        0.0509
     50 H           5.5221   -2.3926    0.5486 H       1  UNL1        0.0509
     51 H           6.8185    0.9817    0.0908 H       1  UNL1        0.0305
     52 H           7.4999    0.3823    1.6239 H       1  UNL1        0.0305
     53 H           9.4617    1.3267    0.7900 H       1  UNL1        0.0279
     54 H           8.9406    1.2582   -0.9126 H       1  UNL1        0.0279
     55 H          10.8344   -0.3682   -0.1167 H       1  UNL1        0.0424
     56 H           9.4736   -1.1592   -1.0045 H       1  UNL1        0.0424
     57 H           9.2055   -0.8271    1.8644 H       1  UNL1        0.1221
     58 H           8.3860   -2.9034   -0.0421 H       1  UNL1        0.0464
     59 H           7.7311   -2.5856    1.6116 H       1  UNL1        0.0464
     60 H           2.8644   -1.8937   -1.0649 H       1  UNL1        0.0849
     61 H          -6.6107    1.5733   -0.2158 H       1  UNL1        0.0528
     62 H          -5.5138    3.2570   -1.4570 H       1  UNL1        0.0285
     63 H          -3.9242    2.4816   -1.2613 H       1  UNL1        0.0285
     64 H          -3.3616    3.6281    0.6398 H       1  UNL1        0.0266
     65 H          -4.5903    4.7903    0.0799 H       1  UNL1        0.0266
     66 H          -4.9126    3.6887    2.5166 H       1  UNL1        0.0266
     67 H          -6.3288    3.6491    1.3173 H       1  UNL1        0.0266
     68 H          -6.0937    1.3377    2.0079 H       1  UNL1        0.0285
     69 H          -4.2614    1.4325    1.7509 H       1  UNL1        0.0285
@<TRIPOS>BOND
     1     1     2    1
     2     2     3    1
     3     2     4   am
     4     4     5    2
     5     4     6    1
     6     6     7   ar
     7     7     8   ar
     8     8     9   ar
     9     9    10   ar
    10    10    11   ar
    11    11    12    1
    12    12    13    1
    13    13    14   ar
    14    14    15   ar
    15    15    16   ar
    16    16    17    1
    17    17    18    1
    18    18    19    1
    19    19    20    1
    20    20    21    1
    21    21    22    1
    22    22    23    1
    23    23    24    1
    24    19    25    1
    25    25    26    1
    26    26    27    2
    27    16    28   ar
    28    28    29   ar
    29    11    30   ar
    30    30    31   ar
    31    31    32   ar
    32    32    33    1
    33    33    34    1
    34    34    35    1
    35    35    36    1
    36    36    37    1
    37    32     6   ar
    38    37    33    1
    39    31     8   ar
    40    29    13   ar
    41    26    17   am
    42    24    19    1
    43     1    38    1
    44     1    39    1
    45     1    40    1
    46     3    41    1
    47     3    42    1
    48     3    43    1
    49     7    44    1
    50     9    45    1
    51    12    46    1
    52    14    47    1
    53    15    48    1
    54    18    49    1
    55    18    50    1
    56    20    51    1
    57    20    52    1
    58    21    53    1
    59    21    54    1
    60    22    55    1
    61    22    56    1
    62    23    57    1
    63    24    58    1
    64    24    59    1
    65    28    60    1
    66    33    61    1
    67    34    62    1
    68    34    63    1
    69    35    64    1
    70    35    65    1
    71    36    66    1
    72    36    67    1
    73    37    68    1
    74    37    69    1
