
     RDKit          3D

 52 55  0  0  0  0  0  0  0  0999 V2000
   -4.4061   -2.4424    0.2861 C   0  0  0  0  0  0  0  0  0  0  0  0
   -3.8592   -1.0358    0.3536 C   0  0  1  0  0  0  0  0  0  0  0  0
   -3.5964   -0.5711   -0.9331 O   0  0  0  0  0  0  0  0  0  0  0  0
   -2.4259   -0.1658   -1.4957 C   0  0  0  0  0  0  0  0  0  0  0  0
   -1.2695   -0.1674   -0.7502 C   0  0  0  0  0  0  0  0  0  0  0  0
   -0.0658    0.2490   -1.3294 C   0  0  0  0  0  0  0  0  0  0  0  0
    1.1970    0.2663   -0.5712 C   0  0  0  0  0  0  0  0  0  0  0  0
    1.3408    0.5038    0.7784 C   0  0  0  0  0  0  0  0  0  0  0  0
    2.6401    0.4264    1.0522 N   0  0  0  0  0  0  0  0  0  0  0  0
    3.3300    0.1543   -0.0411 N   0  0  0  0  0  0  0  0  0  0  0  0
    4.7706    0.0109   -0.0459 C   0  0  0  0  0  0  0  0  0  0  0  0
    5.2191   -1.1749    0.7781 C   0  0  0  0  0  0  0  0  0  0  0  0
    6.7209   -1.2389    0.7109 C   0  0  0  0  0  0  0  0  0  0  0  0
    7.3735   -0.0175    1.0399 N   0  0  0  0  0  0  0  0  0  0  0  0
    6.8975    1.1274    0.3282 C   0  0  0  0  0  0  0  0  0  0  0  0
    5.3999    1.2429    0.5724 C   0  0  0  0  0  0  0  0  0  0  0  0
    2.4668    0.0488   -1.0647 C   0  0  0  0  0  0  0  0  0  0  0  0
   -0.1209    0.6438   -2.6447 C   0  0  0  0  0  0  0  0  0  0  0  0
   -1.2637    0.6369   -3.3538 N   0  0  0  0  0  0  0  0  0  0  0  0
   -2.4352    0.2459   -2.8365 C   0  0  0  0  0  0  0  0  0  0  0  0
   -3.6237    0.2448   -3.6081 N   0  0  0  0  0  0  0  0  0  0  0  0
   -4.8258   -0.1029    1.0026 C   0  0  0  0  0  0  0  0  0  0  0  0
   -4.6465    0.1350    2.3649 C   0  0  0  0  0  0  0  0  0  0  0  0
   -3.3192   -0.6525    3.2167 Cl  0  0  0  0  0  0  0  0  0  0  0  0
   -5.4616    0.9628    3.0864 C   0  0  0  0  0  0  0  0  0  0  0  0
   -6.5043    1.5901    2.4455 C   0  0  0  0  0  0  0  0  0  0  0  0
   -6.6869    1.3589    1.0988 C   0  0  0  0  0  0  0  0  0  0  0  0
   -7.7191    1.9686    0.4221 F   0  0  0  0  0  0  0  0  0  0  0  0
   -5.8572    0.5204    0.3798 C   0  0  0  0  0  0  0  0  0  0  0  0
   -6.1016    0.2224   -1.3298 Cl  0  0  0  0  0  0  0  0  0  0  0  0
   -5.4611   -2.4876    0.6886 H   0  0  0  0  0  0  0  0  0  0  0  0
   -4.3906   -2.8326   -0.7637 H   0  0  0  0  0  0  0  0  0  0  0  0
   -3.8203   -3.0813    0.9729 H   0  0  0  0  0  0  0  0  0  0  0  0
   -2.9203   -1.0741    0.9664 H   0  0  0  0  0  0  0  0  0  0  0  0
   -1.1940   -0.4712    0.2849 H   0  0  0  0  0  0  0  0  0  0  0  0
    0.5015    0.7137    1.4581 H   0  0  0  0  0  0  0  0  0  0  0  0
    5.1679   -0.1512   -1.0727 H   0  0  0  0  0  0  0  0  0  0  0  0
    4.8263   -2.1331    0.3760 H   0  0  0  0  0  0  0  0  0  0  0  0
    4.8814   -1.0095    1.8138 H   0  0  0  0  0  0  0  0  0  0  0  0
    7.0336   -1.5918   -0.2879 H   0  0  0  0  0  0  0  0  0  0  0  0
    7.0608   -2.0170    1.4330 H   0  0  0  0  0  0  0  0  0  0  0  0
    7.5161    0.1558    2.0471 H   0  0  0  0  0  0  0  0  0  0  0  0
    7.4219    2.0252    0.6855 H   0  0  0  0  0  0  0  0  0  0  0  0
    7.0291    1.0107   -0.7570 H   0  0  0  0  0  0  0  0  0  0  0  0
    5.2648    1.1475    1.6743 H   0  0  0  0  0  0  0  0  0  0  0  0
    4.9806    2.1823    0.1729 H   0  0  0  0  0  0  0  0  0  0  0  0
    2.7591   -0.1675   -2.0692 H   0  0  0  0  0  0  0  0  0  0  0  0
    0.8153    0.9665   -3.0925 H   0  0  0  0  0  0  0  0  0  0  0  0
   -4.0227    1.0829   -4.0384 H   0  0  0  0  0  0  0  0  0  0  0  0
   -4.1092   -0.6644   -3.7374 H   0  0  0  0  0  0  0  0  0  0  0  0
   -5.3251    1.1487    4.1394 H   0  0  0  0  0  0  0  0  0  0  0  0
   -7.1828    2.2576    2.9674 H   0  0  0  0  0  0  0  0  0  0  0  0
  1  2  1  0
  2  3  1  0
  3  4  1  0
  4  5  2  0
  5  6  1  0
  6  7  1  0
  7  8  1  0
  8  9  2  0
  9 10  1  0
 10 11  1  0
 11 12  1  0
 12 13  1  0
 13 14  1  0
 14 15  1  0
 15 16  1  0
 10 17  1  0
  6 18  2  0
 18 19  1  0
 19 20  2  0
 20 21  1  0
  2 22  1  0
 22 23  2  0
 23 24  1  0
 23 25  1  0
 25 26  2  0
 26 27  1  0
 27 28  1  0
 27 29  2  0
 29 30  1  0
 20  4  1  0
 29 22  1  0
 17  7  2  0
 16 11  1  0
  1 31  1  0
  1 32  1  0
  1 33  1  0
  2 34  1  1
  5 35  1  0
  8 36  1  0
 11 37  1  0
 12 38  1  0
 12 39  1  0
 13 40  1  0
 13 41  1  0
 14 42  1  0
 15 43  1  0
 15 44  1  0
 16 45  1  0
 16 46  1  0
 17 47  1  0
 18 48  1  0
 21 49  1  0
 21 50  1  0
 25 51  1  0
 26 52  1  0
M  END
$$$$
