@<TRIPOS>MOLECULE
*****
 52 55 0 0 0
SMALL
GASTEIGER

@<TRIPOS>ATOM
      1 C          -4.4061   -2.4424    0.2861 C.3     1  UNL1       -0.0234
      2 C          -3.8592   -1.0358    0.3536 C.3     1  UNL1        0.1253
      3 O          -3.5964   -0.5711   -0.9331 O.3     1  UNL1       -0.4810
      4 C          -2.4259   -0.1658   -1.4957 C.ar    1  UNL1        0.1613
      5 C          -1.2695   -0.1674   -0.7502 C.ar    1  UNL1       -0.0072
      6 C          -0.0658    0.2490   -1.3294 C.ar    1  UNL1        0.0068
      7 C           1.1970    0.2663   -0.5712 C.ar    1  UNL1        0.0211
      8 C           1.3408    0.5038    0.7784 C.ar    1  UNL1        0.0571
      9 N           2.6401    0.4264    1.0522 N.ar    1  UNL1       -0.1788
     10 N           3.3300    0.1543   -0.0411 N.ar    1  UNL1       -0.2677
     11 C           4.7706    0.0109   -0.0459 C.3     1  UNL1        0.0550
     12 C           5.2191   -1.1749    0.7781 C.3     1  UNL1       -0.0179
     13 C           6.7209   -1.2389    0.7109 C.3     1  UNL1       -0.0022
     14 N           7.3735   -0.0175    1.0399 N.3     1  UNL1       -0.3158
     15 C           6.8975    1.1274    0.3282 C.3     1  UNL1       -0.0022
     16 C           5.3999    1.2429    0.5724 C.3     1  UNL1       -0.0179
     17 C           2.4668    0.0488   -1.0647 C.ar    1  UNL1        0.0336
     18 C          -0.1209    0.6438   -2.6447 C.ar    1  UNL1        0.0377
     19 N          -1.2637    0.6369   -3.3538 N.ar    1  UNL1       -0.2364
     20 C          -2.4352    0.2459   -2.8365 C.ar    1  UNL1        0.1583
     21 N          -3.6237    0.2448   -3.6081 N.pl3   1  UNL1       -0.3402
     22 C          -4.8258   -0.1029    1.0026 C.ar    1  UNL1        0.0318
     23 C          -4.6465    0.1350    2.3649 C.ar    1  UNL1        0.0492
     24 CL         -3.3192   -0.6525    3.2167 Cl      1  UNL1       -0.0831
     25 C          -5.4616    0.9628    3.0864 C.ar    1  UNL1       -0.0402
     26 C          -6.5043    1.5901    2.4455 C.ar    1  UNL1       -0.0236
     27 C          -6.6869    1.3589    1.0988 C.ar    1  UNL1        0.1421
     28 F          -7.7191    1.9686    0.4221 F       1  UNL1       -0.2039
     29 C          -5.8572    0.5204    0.3798 C.ar    1  UNL1        0.0841
     30 CL         -6.1016    0.2224   -1.3298 Cl      1  UNL1       -0.0801
     31 H          -5.4611   -2.4876    0.6886 H       1  UNL1        0.0269
     32 H          -4.3906   -2.8326   -0.7637 H       1  UNL1        0.0269
     33 H          -3.8203   -3.0813    0.9729 H       1  UNL1        0.0269
     34 H          -2.9203   -1.0741    0.9664 H       1  UNL1        0.0782
     35 H          -1.1940   -0.4712    0.2849 H       1  UNL1        0.0662
     36 H           0.5015    0.7137    1.4581 H       1  UNL1        0.0854
     37 H           5.1679   -0.1512   -1.0727 H       1  UNL1        0.0545
     38 H           4.8263   -2.1331    0.3760 H       1  UNL1        0.0298
     39 H           4.8814   -1.0095    1.8138 H       1  UNL1        0.0298
     40 H           7.0336   -1.5918   -0.2879 H       1  UNL1        0.0425
     41 H           7.0608   -2.0170    1.4330 H       1  UNL1        0.0425
     42 H           7.5161    0.1558    2.0471 H       1  UNL1        0.1219
     43 H           7.4219    2.0252    0.6855 H       1  UNL1        0.0425
     44 H           7.0291    1.0107   -0.7570 H       1  UNL1        0.0425
     45 H           5.2648    1.1475    1.6743 H       1  UNL1        0.0298
     46 H           4.9806    2.1823    0.1729 H       1  UNL1        0.0298
     47 H           2.7591   -0.1675   -2.0692 H       1  UNL1        0.0832
     48 H           0.8153    0.9665   -3.0925 H       1  UNL1        0.0836
     49 H          -4.0227    1.0829   -4.0384 H       1  UNL1        0.1438
     50 H          -4.1092   -0.6644   -3.7374 H       1  UNL1        0.1438
     51 H          -5.3251    1.1487    4.1394 H       1  UNL1        0.0633
     52 H          -7.1828    2.2576    2.9674 H       1  UNL1        0.0647
@<TRIPOS>BOND
     1     1     2    1
     2     2     3    1
     3     3     4    1
     4     4     5   ar
     5     5     6   ar
     6     6     7    1
     7     7     8   ar
     8     8     9   ar
     9     9    10   ar
    10    10    11    1
    11    11    12    1
    12    12    13    1
    13    13    14    1
    14    14    15    1
    15    15    16    1
    16    10    17   ar
    17     6    18   ar
    18    18    19   ar
    19    19    20   ar
    20    20    21    1
    21     2    22    1
    22    22    23   ar
    23    23    24    1
    24    23    25   ar
    25    25    26   ar
    26    26    27   ar
    27    27    28    1
    28    27    29   ar
    29    29    30    1
    30    20     4   ar
    31    29    22   ar
    32    17     7   ar
    33    16    11    1
    34     1    31    1
    35     1    32    1
    36     1    33    1
    37     2    34    1
    38     5    35    1
    39     8    36    1
    40    11    37    1
    41    12    38    1
    42    12    39    1
    43    13    40    1
    44    13    41    1
    45    14    42    1
    46    15    43    1
    47    15    44    1
    48    16    45    1
    49    16    46    1
    50    17    47    1
    51    18    48    1
    52    21    49    1
    53    21    50    1
    54    25    51    1
    55    26    52    1
