@<TRIPOS>MOLECULE
*****
 61 66 0 0 0
SMALL
GASTEIGER

@<TRIPOS>ATOM
      1 CL         -2.4803   -3.1470   -1.9044 Cl      1  UNL1       -0.0797
      2 C          -1.8050   -2.1272   -0.6570 C.ar    1  UNL1        0.0831
      3 C          -0.5079   -1.6835   -0.6554 C.ar    1  UNL1       -0.0320
      4 C           0.0375   -0.8877    0.3116 C.ar    1  UNL1       -0.0134
      5 C           1.4290   -0.4201    0.2915 C.ar    1  UNL1        0.0185
      6 C           2.1143   -0.1553   -0.8554 C.ar    1  UNL1        0.0391
      7 N           3.4000    0.2751   -0.8196 N.ar    1  UNL1       -0.2350
      8 C           4.0152    0.4455    0.3676 C.ar    1  UNL1        0.1632
      9 C           5.2962    0.8676    0.7045 C.ar    1  UNL1        0.0467
     10 C           6.3787    1.2587   -0.1838 C.ar    1  UNL1       -0.0022
     11 C           6.5637    2.5503   -0.6193 C.ar    1  UNL1       -0.0351
     12 C           7.5908    2.8938   -1.4558 C.ar    1  UNL1        0.0288
     13 N           8.4432    1.9355   -1.8622 N.ar    1  UNL1       -0.2549
     14 C           8.3285    0.6495   -1.4793 C.ar    1  UNL1        0.0715
     15 C           9.2255   -0.3168   -1.9146 C.ar    1  UNL1       -0.0357
     16 C           9.1115   -1.6304   -1.5242 C.ar    1  UNL1       -0.0597
     17 C           8.0835   -1.9677   -0.6874 C.ar    1  UNL1       -0.0611
     18 C           7.1676   -1.0191   -0.2344 C.ar    1  UNL1       -0.0520
     19 C           7.2893    0.3033   -0.6332 C.ar    1  UNL1        0.0082
     20 C           5.3421    0.8421    2.0825 C.ar    1  UNL1        0.0597
     21 N           4.1390    0.4231    2.5303 N.ar    1  UNL1       -0.1727
     22 N           3.3355    0.1829    1.4956 N.ar    1  UNL1       -0.2206
     23 C           2.0530   -0.2482    1.5020 C.ar    1  UNL1        0.0406
     24 C          -0.8032   -0.5234    1.3441 C.ar    1  UNL1       -0.0504
     25 C          -2.1145   -0.9280    1.4119 C.ar    1  UNL1       -0.0179
     26 C          -2.6258   -1.7269    0.4200 C.ar    1  UNL1        0.1388
     27 O          -3.9057   -2.1663    0.4184 O.3     1  UNL1       -0.4892
     28 C          -4.9626   -1.9666    1.2655 C.3     1  UNL1        0.1023
     29 C          -5.4033   -0.5293    1.3084 C.3     1  UNL1        0.0331
     30 N          -5.7891   -0.1183   -0.0340 N.3     1  UNL1       -0.2991
     31 C          -6.0398    1.3351   -0.0356 C.3     1  UNL1       -0.0010
     32 C          -7.1394    1.7336   -0.9629 C.3     1  UNL1       -0.0402
     33 C          -8.4741    1.1325   -0.5673 C.3     1  UNL1       -0.0507
     34 C          -8.2560   -0.2301    0.0674 C.3     1  UNL1       -0.0402
     35 C          -6.9779   -0.8006   -0.5121 C.3     1  UNL1       -0.0010
     36 H           0.1227   -1.9989   -1.4950 H       1  UNL1        0.0639
     37 H           1.6269   -0.2869   -1.8293 H       1  UNL1        0.0837
     38 H           5.8675    3.3448   -0.2902 H       1  UNL1        0.0639
     39 H           7.7430    3.9101   -1.8052 H       1  UNL1        0.0830
     40 H          10.0425   -0.0228   -2.5831 H       1  UNL1        0.0639
     41 H           9.8179   -2.3523   -1.8746 H       1  UNL1        0.0618
     42 H           7.9501   -2.9818   -0.3512 H       1  UNL1        0.0618
     43 H           6.3582   -1.2671    0.4217 H       1  UNL1        0.0624
     44 H           6.2142    1.1183    2.6681 H       1  UNL1        0.0855
     45 H           1.5197   -0.4573    2.4173 H       1  UNL1        0.0837
     46 H          -0.4096    0.1041    2.1241 H       1  UNL1        0.0625
     47 H          -2.6708   -0.6024    2.2740 H       1  UNL1        0.0655
     48 H          -4.6839   -2.2909    2.3323 H       1  UNL1        0.0709
     49 H          -5.8416   -2.6301    1.0686 H       1  UNL1        0.0709
     50 H          -4.6962    0.1671    1.7227 H       1  UNL1        0.0460
     51 H          -6.3139   -0.4890    1.9699 H       1  UNL1        0.0460
     52 H          -5.1001    1.7840   -0.4268 H       1  UNL1        0.0427
     53 H          -6.1818    1.7160    0.9939 H       1  UNL1        0.0427
     54 H          -6.8993    1.3934   -1.9710 H       1  UNL1        0.0278
     55 H          -7.2252    2.8336   -0.9299 H       1  UNL1        0.0278
     56 H          -8.9765    1.7904    0.1656 H       1  UNL1        0.0266
     57 H          -9.0903    1.0881   -1.4818 H       1  UNL1        0.0266
     58 H          -8.2395   -0.1001    1.1542 H       1  UNL1        0.0278
     59 H          -9.0826   -0.8845   -0.2243 H       1  UNL1        0.0278
     60 H          -7.0323   -0.5951   -1.6046 H       1  UNL1        0.0427
     61 H          -6.8784   -1.8685   -0.3683 H       1  UNL1        0.0427
@<TRIPOS>BOND
     1     1     2    1
     2     2     3   ar
     3     3     4   ar
     4     4     5    1
     5     5     6   ar
     6     6     7   ar
     7     7     8   ar
     8     8     9   ar
     9     9    10    1
    10    10    11   ar
    11    11    12   ar
    12    12    13   ar
    13    13    14   ar
    14    14    15   ar
    15    15    16   ar
    16    16    17   ar
    17    17    18   ar
    18    18    19   ar
    19     9    20   ar
    20    20    21   ar
    21    21    22   ar
    22    22    23   ar
    23     4    24   ar
    24    24    25   ar
    25    25    26   ar
    26    26    27    1
    27    27    28    1
    28    28    29    1
    29    29    30    1
    30    30    31    1
    31    31    32    1
    32    32    33    1
    33    33    34    1
    34    34    35    1
    35    26     2   ar
    36    35    30    1
    37    23     5   ar
    38    22     8   ar
    39    19    10   ar
    40    19    14   ar
    41     3    36    1
    42     6    37    1
    43    11    38    1
    44    12    39    1
    45    15    40    1
    46    16    41    1
    47    17    42    1
    48    18    43    1
    49    20    44    1
    50    23    45    1
    51    24    46    1
    52    25    47    1
    53    28    48    1
    54    28    49    1
    55    29    50    1
    56    29    51    1
    57    31    52    1
    58    31    53    1
    59    32    54    1
    60    32    55    1
    61    33    56    1
    62    33    57    1
    63    34    58    1
    64    34    59    1
    65    35    60    1
    66    35    61    1
