
     RDKit          3D

 83 84  0  0  0  0  0  0  0  0999 V2000
   -0.1834   -0.8448    2.4767 C   0  0  0  0  0  0  0  0  0  0  0  0
    0.0563   -1.8844    1.4148 C   0  0  0  0  0  0  0  0  0  0  0  0
    1.1329   -2.8243    1.9324 C   0  0  0  0  0  0  0  0  0  0  0  0
   -1.4927   -2.8158    1.1787 S   0  0  0  0  0  0  0  0  0  0  0  0
   -2.7616   -1.7572    0.5002 C   0  0  0  0  0  0  0  0  0  0  0  0
   -2.9422   -1.5880   -0.8753 C   0  0  0  0  0  0  0  0  0  0  0  0
   -3.9497   -0.7538   -1.2805 C   0  0  0  0  0  0  0  0  0  0  0  0
   -4.7697   -0.0935   -0.3928 C   0  0  0  0  0  0  0  0  0  0  0  0
   -5.7585    0.7262   -0.8633 O   0  0  0  0  0  0  0  0  0  0  0  0
   -4.6073   -0.2479    0.9804 C   0  0  0  0  0  0  0  0  0  0  0  0
   -3.5782   -1.0996    1.3951 C   0  0  0  0  0  0  0  0  0  0  0  0
   -5.5139    0.4790    1.9045 C   0  0  0  0  0  0  0  0  0  0  0  0
   -5.1207    0.1360    3.3377 C   0  0  0  0  0  0  0  0  0  0  0  0
   -5.3765    1.9915    1.7837 C   0  0  0  0  0  0  0  0  0  0  0  0
   -6.9453    0.0474    1.6540 C   0  0  0  0  0  0  0  0  0  0  0  0
   -4.1783   -0.5385   -2.7470 C   0  0  0  0  0  0  0  0  0  0  0  0
   -5.5437   -0.9462   -3.1919 C   0  0  0  0  0  0  0  0  0  0  0  0
   -4.0062    0.9507   -2.9645 C   0  0  0  0  0  0  0  0  0  0  0  0
   -3.1096   -1.2398   -3.5606 C   0  0  0  0  0  0  0  0  0  0  0  0
    0.5359   -1.2059   -0.1772 S   0  0  0  0  0  0  0  0  0  0  0  0
    2.1327   -0.4126   -0.1568 C   0  0  0  0  0  0  0  0  0  0  0  0
    3.2442   -1.1692   -0.4413 C   0  0  0  0  0  0  0  0  0  0  0  0
    4.5549   -0.6906   -0.4664 C   0  0  0  0  0  0  0  0  0  0  0  0
    4.6723    0.6527   -0.1741 C   0  0  0  0  0  0  0  0  0  0  0  0
    5.9669    1.1648   -0.1902 O   0  0  0  0  0  0  0  0  0  0  0  0
    3.6051    1.4707    0.1199 C   0  0  0  0  0  0  0  0  0  0  0  0
    2.3366    0.9340    0.1275 C   0  0  0  0  0  0  0  0  0  0  0  0
    3.8418    2.8844    0.4151 C   0  0  0  0  0  0  0  0  0  0  0  0
    4.7310    3.1332    1.6004 C   0  0  0  0  0  0  0  0  0  0  0  0
    2.5247    3.5982    0.6960 C   0  0  0  0  0  0  0  0  0  0  0  0
    4.4290    3.5916   -0.8083 C   0  0  0  0  0  0  0  0  0  0  0  0
    5.7258   -1.5327   -0.7800 C   0  0  0  0  0  0  0  0  0  0  0  0
    6.6781   -1.5173    0.4095 C   0  0  0  0  0  0  0  0  0  0  0  0
    5.2282   -2.9402   -0.9835 C   0  0  0  0  0  0  0  0  0  0  0  0
    6.4881   -1.0868   -1.9751 C   0  0  0  0  0  0  0  0  0  0  0  0
   -0.5043    0.1357    2.0455 H   0  0  0  0  0  0  0  0  0  0  0  0
    0.6538   -0.7273    3.1928 H   0  0  0  0  0  0  0  0  0  0  0  0
   -1.0566   -1.1705    3.1107 H   0  0  0  0  0  0  0  0  0  0  0  0
    1.2167   -3.6786    1.2514 H   0  0  0  0  0  0  0  0  0  0  0  0
    2.0573   -2.2772    2.1284 H   0  0  0  0  0  0  0  0  0  0  0  0
    0.7675   -3.2265    2.9146 H   0  0  0  0  0  0  0  0  0  0  0  0
   -2.2847   -2.1181   -1.5438 H   0  0  0  0  0  0  0  0  0  0  0  0
   -6.7089    0.4285   -1.0324 H   0  0  0  0  0  0  0  0  0  0  0  0
   -3.4374   -1.2319    2.4608 H   0  0  0  0  0  0  0  0  0  0  0  0
   -5.7912    0.6904    4.0415 H   0  0  0  0  0  0  0  0  0  0  0  0
   -5.1426   -0.9358    3.5357 H   0  0  0  0  0  0  0  0  0  0  0  0
   -4.0853    0.4946    3.5159 H   0  0  0  0  0  0  0  0  0  0  0  0
   -4.3739    2.2084    1.3382 H   0  0  0  0  0  0  0  0  0  0  0  0
   -6.1992    2.3741    1.1444 H   0  0  0  0  0  0  0  0  0  0  0  0
   -5.3702    2.4793    2.7823 H   0  0  0  0  0  0  0  0  0  0  0  0
   -7.5510    0.8376    1.1784 H   0  0  0  0  0  0  0  0  0  0  0  0
   -6.9539   -0.8520    0.9835 H   0  0  0  0  0  0  0  0  0  0  0  0
   -7.3825   -0.3016    2.6095 H   0  0  0  0  0  0  0  0  0  0  0  0
   -6.2133   -0.0572   -3.3281 H   0  0  0  0  0  0  0  0  0  0  0  0
   -5.4267   -1.3383   -4.2432 H   0  0  0  0  0  0  0  0  0  0  0  0
   -6.0089   -1.7576   -2.6031 H   0  0  0  0  0  0  0  0  0  0  0  0
   -5.0068    1.4143   -3.1978 H   0  0  0  0  0  0  0  0  0  0  0  0
   -3.3833    1.1385   -3.8575 H   0  0  0  0  0  0  0  0  0  0  0  0
   -3.5652    1.4739   -2.0972 H   0  0  0  0  0  0  0  0  0  0  0  0
   -2.1041   -0.9436   -3.2098 H   0  0  0  0  0  0  0  0  0  0  0  0
   -3.3076   -2.3114   -3.5660 H   0  0  0  0  0  0  0  0  0  0  0  0
   -3.2030   -0.8539   -4.5940 H   0  0  0  0  0  0  0  0  0  0  0  0
    3.1134   -2.2250   -0.6670 H   0  0  0  0  0  0  0  0  0  0  0  0
    6.3803    1.3919   -1.0880 H   0  0  0  0  0  0  0  0  0  0  0  0
    1.4567    1.5205    0.3507 H   0  0  0  0  0  0  0  0  0  0  0  0
    5.7744    2.8244    1.4447 H   0  0  0  0  0  0  0  0  0  0  0  0
    4.7628    4.2554    1.7266 H   0  0  0  0  0  0  0  0  0  0  0  0
    4.2770    2.7647    2.5292 H   0  0  0  0  0  0  0  0  0  0  0  0
    1.8526    3.4464   -0.1867 H   0  0  0  0  0  0  0  0  0  0  0  0
    2.6710    4.6551    0.9308 H   0  0  0  0  0  0  0  0  0  0  0  0
    2.0475    3.0678    1.5424 H   0  0  0  0  0  0  0  0  0  0  0  0
    4.0673    4.6500   -0.8735 H   0  0  0  0  0  0  0  0  0  0  0  0
    4.0283    3.1064   -1.7419 H   0  0  0  0  0  0  0  0  0  0  0  0
    5.5367    3.6249   -0.7872 H   0  0  0  0  0  0  0  0  0  0  0  0
    7.7276   -1.2750    0.0932 H   0  0  0  0  0  0  0  0  0  0  0  0
    6.7259   -2.5213    0.8697 H   0  0  0  0  0  0  0  0  0  0  0  0
    6.3861   -0.7369    1.1163 H   0  0  0  0  0  0  0  0  0  0  0  0
    4.7223   -3.3292   -0.0839 H   0  0  0  0  0  0  0  0  0  0  0  0
    4.5716   -3.0047   -1.8713 H   0  0  0  0  0  0  0  0  0  0  0  0
    6.0904   -3.6407   -1.1752 H   0  0  0  0  0  0  0  0  0  0  0  0
    5.9157   -0.4150   -2.6649 H   0  0  0  0  0  0  0  0  0  0  0  0
    7.4869   -0.6506   -1.7259 H   0  0  0  0  0  0  0  0  0  0  0  0
    6.7239   -1.9744   -2.5969 H   0  0  0  0  0  0  0  0  0  0  0  0
  1  2  1  0
  2  3  1  0
  2  4  1  0
  4  5  1  0
  5  6  2  0
  6  7  1  0
  7  8  2  0
  8  9  1  0
  8 10  1  0
 10 11  2  0
 10 12  1  0
 12 13  1  0
 12 14  1  0
 12 15  1  0
  7 16  1  0
 16 17  1  0
 16 18  1  0
 16 19  1  0
  2 20  1  0
 20 21  1  0
 21 22  2  0
 22 23  1  0
 23 24  2  0
 24 25  1  0
 24 26  1  0
 26 27  2  0
 26 28  1  0
 28 29  1  0
 28 30  1  0
 28 31  1  0
 23 32  1  0
 32 33  1  0
 32 34  1  0
 32 35  1  0
 11  5  1  0
 27 21  1  0
  1 36  1  0
  1 37  1  0
  1 38  1  0
  3 39  1  0
  3 40  1  0
  3 41  1  0
  6 42  1  0
  9 43  1  0
 11 44  1  0
 13 45  1  0
 13 46  1  0
 13 47  1  0
 14 48  1  0
 14 49  1  0
 14 50  1  0
 15 51  1  0
 15 52  1  0
 15 53  1  0
 17 54  1  0
 17 55  1  0
 17 56  1  0
 18 57  1  0
 18 58  1  0
 18 59  1  0
 19 60  1  0
 19 61  1  0
 19 62  1  0
 22 63  1  0
 25 64  1  0
 27 65  1  0
 29 66  1  0
 29 67  1  0
 29 68  1  0
 30 69  1  0
 30 70  1  0
 30 71  1  0
 31 72  1  0
 31 73  1  0
 31 74  1  0
 33 75  1  0
 33 76  1  0
 33 77  1  0
 34 78  1  0
 34 79  1  0
 34 80  1  0
 35 81  1  0
 35 82  1  0
 35 83  1  0
M  END
$$$$
