
     RDKit          3D

 44 47  0  0  0  0  0  0  0  0999 V2000
   -5.2505    3.0296   -0.6100 C   0  0  0  0  0  0  0  0  0  0  0  0
   -4.9830    1.5678   -0.2535 C   0  0  0  0  0  0  0  0  0  0  0  0
   -5.9450    0.8579    0.5271 C   0  0  0  0  0  0  0  0  0  0  0  0
   -5.2091   -0.7407    0.6709 S   0  0  0  0  0  0  0  0  0  0  0  0
   -3.6928   -0.2703   -0.3354 C   0  0  0  0  0  0  0  0  0  0  0  0
   -2.6521   -1.2454   -0.5767 N   0  0  0  0  0  0  0  0  0  0  0  0
   -1.5416   -0.7289   -1.3447 C   0  0  0  0  0  0  0  0  0  0  0  0
   -0.6022   -1.5115   -1.5964 O   0  0  0  0  0  0  0  0  0  0  0  0
   -1.4787    0.6626   -1.8323 C   0  0  0  0  0  0  0  0  0  0  0  0
    0.0396    0.9353   -2.7417 S   0  0  0  0  0  0  0  0  0  0  0  0
    1.4846    0.8141   -1.6732 C   0  0  0  0  0  0  0  0  0  0  0  0
    2.0004    1.9059   -1.0124 C   0  0  0  0  0  0  0  0  0  0  0  0
    3.1275    1.7444   -0.1956 C   0  0  0  0  0  0  0  0  0  0  0  0
    3.7237    0.5144   -0.0455 C   0  0  0  0  0  0  0  0  0  0  0  0
    4.9058    0.2864    0.7959 C   0  0  0  0  0  0  0  0  0  0  0  0
    5.5345    1.2621    1.5142 C   0  0  0  0  0  0  0  0  0  0  0  0
    6.6529    0.9649    2.2896 C   0  0  0  0  0  0  0  0  0  0  0  0
    7.1495   -0.3178    2.3494 C   0  0  0  0  0  0  0  0  0  0  0  0
    6.5237   -1.3047    1.6305 C   0  0  0  0  0  0  0  0  0  0  0  0
    5.4283   -0.9990    0.8748 C   0  0  0  0  0  0  0  0  0  0  0  0
    3.1675   -0.5079   -0.7200 N   0  0  0  0  0  0  0  0  0  0  0  0
    2.1045   -0.3648   -1.4925 N   0  0  0  0  0  0  0  0  0  0  0  0
   -2.6554   -2.5875   -0.1283 C   0  0  0  0  0  0  0  0  0  0  0  0
   -3.2876   -3.0311    1.1106 C   0  0  0  0  0  0  0  0  0  0  0  0
   -3.9628   -3.3435   -0.2211 C   0  0  0  0  0  0  0  0  0  0  0  0
   -3.9581    0.8450   -0.5735 N   0  0  0  0  0  0  0  0  0  0  0  0
   -4.9852    3.6479    0.2717 H   0  0  0  0  0  0  0  0  0  0  0  0
   -6.2984    3.1336   -0.9174 H   0  0  0  0  0  0  0  0  0  0  0  0
   -4.5717    3.3263   -1.4315 H   0  0  0  0  0  0  0  0  0  0  0  0
   -6.8716    1.2264    0.9151 H   0  0  0  0  0  0  0  0  0  0  0  0
   -2.3244    0.8440   -2.5439 H   0  0  0  0  0  0  0  0  0  0  0  0
   -1.6292    1.4059   -1.0163 H   0  0  0  0  0  0  0  0  0  0  0  0
    1.5314    2.8772   -1.1297 H   0  0  0  0  0  0  0  0  0  0  0  0
    3.5244    2.5960    0.3157 H   0  0  0  0  0  0  0  0  0  0  0  0
    5.1446    2.2714    1.4679 H   0  0  0  0  0  0  0  0  0  0  0  0
    7.1305    1.7481    2.8456 H   0  0  0  0  0  0  0  0  0  0  0  0
    8.0321   -0.5664    2.9579 H   0  0  0  0  0  0  0  0  0  0  0  0
    6.9392   -2.3198    1.6949 H   0  0  0  0  0  0  0  0  0  0  0  0
    4.9484   -1.7887    0.3154 H   0  0  0  0  0  0  0  0  0  0  0  0
   -1.7277   -3.1982   -0.4071 H   0  0  0  0  0  0  0  0  0  0  0  0
   -3.8250   -2.4110    1.8254 H   0  0  0  0  0  0  0  0  0  0  0  0
   -2.8886   -3.9677    1.6205 H   0  0  0  0  0  0  0  0  0  0  0  0
   -3.8590   -4.3978   -0.6029 H   0  0  0  0  0  0  0  0  0  0  0  0
   -4.8932   -2.8642   -0.5094 H   0  0  0  0  0  0  0  0  0  0  0  0
  1  2  1  0
  2  3  2  0
  3  4  1  0
  4  5  1  0
  5  6  1  0
  6  7  1  0
  7  8  2  0
  7  9  1  0
  9 10  1  0
 10 11  1  0
 11 12  2  0
 12 13  1  0
 13 14  2  0
 14 15  1  0
 15 16  2  0
 16 17  1  0
 17 18  2  0
 18 19  1  0
 19 20  2  0
 14 21  1  0
 21 22  2  0
  6 23  1  0
 23 24  1  0
 24 25  1  0
  5 26  2  0
 26  2  1  0
 22 11  1  0
 25 23  1  0
 20 15  1  0
  1 27  1  0
  1 28  1  0
  1 29  1  0
  3 30  1  0
  9 31  1  0
  9 32  1  0
 12 33  1  0
 13 34  1  0
 16 35  1  0
 17 36  1  0
 18 37  1  0
 19 38  1  0
 20 39  1  0
 23 40  1  0
 24 41  1  0
 24 42  1  0
 25 43  1  0
 25 44  1  0
M  END
$$$$
