@<TRIPOS>MOLECULE
*****
 44 47 0 0 0
SMALL
GASTEIGER

@<TRIPOS>ATOM
      1 C          -5.2505    3.0296   -0.6100 C.3     1  UNL1       -0.0218
      2 C          -4.9830    1.5678   -0.2535 C.ar    1  UNL1        0.0475
      3 C          -5.9450    0.8579    0.5271 C.ar    1  UNL1       -0.0001
      4 S          -5.2091   -0.7407    0.6709 S.2     1  UNL1       -0.0600
      5 C          -3.6928   -0.2703   -0.3354 C.ar    1  UNL1        0.1675
      6 N          -2.6521   -1.2454   -0.5767 N.am    1  UNL1       -0.2466
      7 C          -1.5416   -0.7289   -1.3447 C.2     1  UNL1        0.2317
      8 O          -0.6022   -1.5115   -1.5964 O.2     1  UNL1       -0.2743
      9 C          -1.4787    0.6626   -1.8323 C.3     1  UNL1        0.0768
     10 S           0.0396    0.9353   -2.7417 S.3     1  UNL1       -0.0948
     11 C           1.4846    0.8141   -1.6732 C.ar    1  UNL1        0.1198
     12 C           2.0004    1.9059   -1.0124 C.ar    1  UNL1       -0.0260
     13 C           3.1275    1.7444   -0.1956 C.ar    1  UNL1       -0.0314
     14 C           3.7237    0.5144   -0.0455 C.ar    1  UNL1        0.0934
     15 C           4.9058    0.2864    0.7959 C.ar    1  UNL1        0.0021
     16 C           5.5345    1.2621    1.5142 C.ar    1  UNL1       -0.0525
     17 C           6.6529    0.9649    2.2896 C.ar    1  UNL1       -0.0611
     18 C           7.1495   -0.3178    2.3494 C.ar    1  UNL1       -0.0617
     19 C           6.5237   -1.3047    1.6305 C.ar    1  UNL1       -0.0611
     20 C           5.4283   -0.9990    0.8748 C.ar    1  UNL1       -0.0525
     21 N           3.1675   -0.5079   -0.7200 N.ar    1  UNL1       -0.1482
     22 N           2.1045   -0.3648   -1.4925 N.ar    1  UNL1       -0.1424
     23 C          -2.6554   -2.5875   -0.1283 C.3     1  UNL1        0.0331
     24 C          -3.2876   -3.0311    1.1106 C.3     1  UNL1       -0.0321
     25 C          -3.9628   -3.3435   -0.2211 C.3     1  UNL1       -0.0321
     26 N          -3.9581    0.8450   -0.5735 N.ar    1  UNL1       -0.2297
     27 H          -4.9852    3.6479    0.2717 H       1  UNL1        0.0293
     28 H          -6.2984    3.1336   -0.9174 H       1  UNL1        0.0293
     29 H          -4.5717    3.3263   -1.4315 H       1  UNL1        0.0293
     30 H          -6.8716    1.2264    0.9151 H       1  UNL1        0.0712
     31 H          -2.3244    0.8440   -2.5439 H       1  UNL1        0.0475
     32 H          -1.6292    1.4059   -1.0163 H       1  UNL1        0.0475
     33 H           1.5314    2.8772   -1.1297 H       1  UNL1        0.0645
     34 H           3.5244    2.5960    0.3157 H       1  UNL1        0.0640
     35 H           5.1446    2.2714    1.4679 H       1  UNL1        0.0624
     36 H           7.1305    1.7481    2.8456 H       1  UNL1        0.0618
     37 H           8.0321   -0.5664    2.9579 H       1  UNL1        0.0618
     38 H           6.9392   -2.3198    1.6949 H       1  UNL1        0.0618
     39 H           4.9484   -1.7887    0.3154 H       1  UNL1        0.0624
     40 H          -1.7277   -3.1982   -0.4071 H       1  UNL1        0.0505
     41 H          -3.8250   -2.4110    1.8254 H       1  UNL1        0.0284
     42 H          -2.8886   -3.9677    1.6205 H       1  UNL1        0.0284
     43 H          -3.8590   -4.3978   -0.6029 H       1  UNL1        0.0284
     44 H          -4.8932   -2.8642   -0.5094 H       1  UNL1        0.0284
@<TRIPOS>BOND
     1     1     2    1
     2     2     3   ar
     3     3     4   ar
     4     4     5   ar
     5     5     6    1
     6     6     7   am
     7     7     8    2
     8     7     9    1
     9     9    10    1
    10    10    11    1
    11    11    12   ar
    12    12    13   ar
    13    13    14   ar
    14    14    15    1
    15    15    16   ar
    16    16    17   ar
    17    17    18   ar
    18    18    19   ar
    19    19    20   ar
    20    14    21   ar
    21    21    22   ar
    22     6    23    1
    23    23    24    1
    24    24    25    1
    25     5    26   ar
    26    26     2   ar
    27    22    11   ar
    28    25    23    1
    29    20    15   ar
    30     1    27    1
    31     1    28    1
    32     1    29    1
    33     3    30    1
    34     9    31    1
    35     9    32    1
    36    12    33    1
    37    13    34    1
    38    16    35    1
    39    17    36    1
    40    18    37    1
    41    19    38    1
    42    20    39    1
    43    23    40    1
    44    24    41    1
    45    24    42    1
    46    25    43    1
    47    25    44    1
