@<TRIPOS>MOLECULE
*****
 24 24 0 0 0
SMALL
GASTEIGER

@<TRIPOS>ATOM
      1 C          -1.5818   -0.6341   -0.1641 C.3     1  UNL1        0.0924
      2 O          -1.6390   -1.5963    0.8329 O.3     1  UNL1       -0.3859
      3 C          -2.2831    0.6364    0.2832 C.3     1  UNL1        0.0235
      4 N          -3.6600    0.2809    0.5603 N.3     1  UNL1       -0.3274
      5 C          -0.1624   -0.3163   -0.5012 C.ar    1  UNL1       -0.0174
      6 C           0.2453   -0.2148   -1.8328 C.ar    1  UNL1       -0.0561
      7 C           1.5644    0.0800   -2.0800 C.ar    1  UNL1       -0.0609
      8 C           2.4252    0.2622   -1.0288 C.ar    1  UNL1       -0.0501
      9 C           2.0039    0.1579    0.2783 C.ar    1  UNL1        0.0551
     10 C           0.6819   -0.1378    0.5612 C.ar    1  UNL1       -0.0444
     11 C           3.0019    0.3701    1.3790 C.3     1  UNL1        0.4174
     12 F           2.3638    0.2679    2.5986 F       1  UNL1       -0.1659
     13 F           3.9965   -0.5859    1.3300 F       1  UNL1       -0.1659
     14 F           3.4995    1.6581    1.2742 F       1  UNL1       -0.1659
     15 H          -2.0804   -1.0247   -1.0604 H       1  UNL1        0.0656
     16 H          -1.5485   -1.2014    1.7204 H       1  UNL1        0.2103
     17 H          -1.7923    1.0051    1.2173 H       1  UNL1        0.0451
     18 H          -2.2312    1.3735   -0.5321 H       1  UNL1        0.0451
     19 H          -4.2099    0.2962   -0.3193 H       1  UNL1        0.1183
     20 H          -3.6734   -0.7113    0.9036 H       1  UNL1        0.1183
     21 H          -0.5197   -0.3784   -2.5738 H       1  UNL1        0.0621
     22 H           1.8176    0.1449   -3.1303 H       1  UNL1        0.0618
     23 H           3.4429    0.4903   -1.2986 H       1  UNL1        0.0623
     24 H           0.3387   -0.2224    1.5824 H       1  UNL1        0.0627
@<TRIPOS>BOND
     1     1     2    1
     2     1     3    1
     3     3     4    1
     4     1     5    1
     5     5     6   ar
     6     6     7   ar
     7     7     8   ar
     8     8     9   ar
     9     9    10   ar
    10     9    11    1
    11    11    12    1
    12    11    13    1
    13    11    14    1
    14    10     5   ar
    15     1    15    1
    16     2    16    1
    17     3    17    1
    18     3    18    1
    19     4    19    1
    20     4    20    1
    21     6    21    1
    22     7    22    1
    23     8    23    1
    24    10    24    1
