
     RDKit          3D

 35 35  0  0  0  0  0  0  0  0999 V2000
   -3.6247    0.7225    0.9525 C   0  0  0  0  0  0  0  0  0  0  0  0
   -2.9927    0.7719   -0.4206 C   0  0  0  0  0  0  0  0  0  0  0  0
   -2.0066   -0.3378   -0.6386 C   0  0  0  0  0  0  0  0  0  0  0  0
   -1.4513   -0.1657   -2.0508 C   0  0  0  0  0  0  0  0  0  0  0  0
   -2.6262   -1.6982   -0.5769 C   0  0  0  0  0  0  0  0  0  0  0  0
   -0.8718   -0.2768    0.3194 C   0  0  0  0  0  0  0  0  0  0  0  0
   -0.6753   -1.2437    1.1148 O   0  0  0  0  0  0  0  0  0  0  0  0
    0.0079    0.8283    0.3806 N   0  0  0  0  0  0  0  0  0  0  0  0
   -0.2145    1.8561   -0.4734 O   0  0  0  0  0  0  0  0  0  0  0  0
    1.0928    0.8208    1.3297 C   0  0  0  0  0  0  0  0  0  0  0  0
    2.3526    0.2668    0.8233 C   0  0  0  0  0  0  0  0  0  0  0  0
    2.6431   -1.0716    0.9638 C   0  0  0  0  0  0  0  0  0  0  0  0
    3.8312   -1.6192    0.4885 C   0  0  0  0  0  0  0  0  0  0  0  0
    4.7365   -0.7928   -0.1385 C   0  0  0  0  0  0  0  0  0  0  0  0
    4.4879    0.5497   -0.3006 C   0  0  0  0  0  0  0  0  0  0  0  0
    3.3098    1.0532    0.1790 C   0  0  0  0  0  0  0  0  0  0  0  0
   -4.4102    1.4961    1.0238 H   0  0  0  0  0  0  0  0  0  0  0  0
   -4.1600   -0.2560    1.0941 H   0  0  0  0  0  0  0  0  0  0  0  0
   -2.8773    0.9031    1.7331 H   0  0  0  0  0  0  0  0  0  0  0  0
   -3.8268    0.7168   -1.1499 H   0  0  0  0  0  0  0  0  0  0  0  0
   -2.5363    1.7711   -0.5538 H   0  0  0  0  0  0  0  0  0  0  0  0
   -0.4776   -0.6651   -2.1378 H   0  0  0  0  0  0  0  0  0  0  0  0
   -2.2167   -0.6079   -2.7411 H   0  0  0  0  0  0  0  0  0  0  0  0
   -1.4134    0.9199   -2.2480 H   0  0  0  0  0  0  0  0  0  0  0  0
   -3.1621   -1.8837    0.3764 H   0  0  0  0  0  0  0  0  0  0  0  0
   -3.2829   -1.9103   -1.4523 H   0  0  0  0  0  0  0  0  0  0  0  0
   -1.8047   -2.4493   -0.6161 H   0  0  0  0  0  0  0  0  0  0  0  0
    0.1797    2.6603   -0.0481 H   0  0  0  0  0  0  0  0  0  0  0  0
    1.2090    1.8314    1.7823 H   0  0  0  0  0  0  0  0  0  0  0  0
    0.7644    0.1728    2.1897 H   0  0  0  0  0  0  0  0  0  0  0  0
    1.9782   -1.7838    1.4493 H   0  0  0  0  0  0  0  0  0  0  0  0
    4.0618   -2.6696    0.5974 H   0  0  0  0  0  0  0  0  0  0  0  0
    5.6720   -1.1874   -0.5205 H   0  0  0  0  0  0  0  0  0  0  0  0
    5.2000    1.1850   -0.7906 H   0  0  0  0  0  0  0  0  0  0  0  0
    3.1043    2.0933    0.0598 H   0  0  0  0  0  0  0  0  0  0  0  0
  1  2  1  0
  2  3  1  0
  3  4  1  0
  3  5  1  0
  3  6  1  0
  6  7  2  0
  6  8  1  0
  8  9  1  0
  8 10  1  0
 10 11  1  0
 11 12  2  0
 12 13  1  0
 13 14  2  0
 14 15  1  0
 15 16  2  0
 16 11  1  0
  1 17  1  0
  1 18  1  0
  1 19  1  0
  2 20  1  0
  2 21  1  0
  4 22  1  0
  4 23  1  0
  4 24  1  0
  5 25  1  0
  5 26  1  0
  5 27  1  0
  9 28  1  0
 10 29  1  0
 10 30  1  0
 12 31  1  0
 13 32  1  0
 14 33  1  0
 15 34  1  0
 16 35  1  0
M  END
$$$$
