@<TRIPOS>MOLECULE
*****
 35 35 0 0 0
SMALL
GASTEIGER

@<TRIPOS>ATOM
      1 C          -3.6247    0.7225    0.9525 C.3     1  UNL1       -0.0643
      2 C          -2.9927    0.7719   -0.4206 C.3     1  UNL1       -0.0424
      3 C          -2.0066   -0.3378   -0.6386 C.3     1  UNL1        0.0433
      4 C          -1.4513   -0.1657   -2.0508 C.3     1  UNL1       -0.0514
      5 C          -2.6262   -1.6982   -0.5769 C.3     1  UNL1       -0.0514
      6 C          -0.8718   -0.2768    0.3194 C.2     1  UNL1        0.2439
      7 O          -0.6753   -1.2437    1.1148 O.2     1  UNL1       -0.2729
      8 N           0.0079    0.8283    0.3806 N.am    1  UNL1       -0.1790
      9 O          -0.2145    1.8561   -0.4734 O.3     1  UNL1       -0.2922
     10 C           1.0928    0.8208    1.3297 C.3     1  UNL1        0.0667
     11 C           2.3526    0.2668    0.8233 C.ar    1  UNL1       -0.0277
     12 C           2.6431   -1.0716    0.9638 C.ar    1  UNL1       -0.0570
     13 C           3.8312   -1.6192    0.4885 C.ar    1  UNL1       -0.0615
     14 C           4.7365   -0.7928   -0.1385 C.ar    1  UNL1       -0.0617
     15 C           4.4879    0.5497   -0.3006 C.ar    1  UNL1       -0.0615
     16 C           3.3098    1.0532    0.1790 C.ar    1  UNL1       -0.0570
     17 H          -4.4102    1.4961    1.0238 H       1  UNL1        0.0230
     18 H          -4.1600   -0.2560    1.0941 H       1  UNL1        0.0230
     19 H          -2.8773    0.9031    1.7331 H       1  UNL1        0.0230
     20 H          -3.8268    0.7168   -1.1499 H       1  UNL1        0.0272
     21 H          -2.5363    1.7711   -0.5538 H       1  UNL1        0.0272
     22 H          -0.4776   -0.6651   -2.1378 H       1  UNL1        0.0240
     23 H          -2.2167   -0.6079   -2.7411 H       1  UNL1        0.0240
     24 H          -1.4134    0.9199   -2.2480 H       1  UNL1        0.0240
     25 H          -3.1621   -1.8837    0.3764 H       1  UNL1        0.0240
     26 H          -3.2829   -1.9103   -1.4523 H       1  UNL1        0.0240
     27 H          -1.8047   -2.4493   -0.6161 H       1  UNL1        0.0240
     28 H           0.1797    2.6603   -0.0481 H       1  UNL1        0.2417
     29 H           1.2090    1.8314    1.7823 H       1  UNL1        0.0539
     30 H           0.7644    0.1728    2.1897 H       1  UNL1        0.0539
     31 H           1.9782   -1.7838    1.4493 H       1  UNL1        0.0621
     32 H           4.0618   -2.6696    0.5974 H       1  UNL1        0.0618
     33 H           5.6720   -1.1874   -0.5205 H       1  UNL1        0.0618
     34 H           5.2000    1.1850   -0.7906 H       1  UNL1        0.0618
     35 H           3.1043    2.0933    0.0598 H       1  UNL1        0.0621
@<TRIPOS>BOND
     1     1     2    1
     2     2     3    1
     3     3     4    1
     4     3     5    1
     5     3     6    1
     6     6     7    2
     7     6     8   am
     8     8     9    1
     9     8    10    1
    10    10    11    1
    11    11    12   ar
    12    12    13   ar
    13    13    14   ar
    14    14    15   ar
    15    15    16   ar
    16    16    11   ar
    17     1    17    1
    18     1    18    1
    19     1    19    1
    20     2    20    1
    21     2    21    1
    22     4    22    1
    23     4    23    1
    24     4    24    1
    25     5    25    1
    26     5    26    1
    27     5    27    1
    28     9    28    1
    29    10    29    1
    30    10    30    1
    31    12    31    1
    32    13    32    1
    33    14    33    1
    34    15    34    1
    35    16    35    1
