@<TRIPOS>MOLECULE
*****
 23 23 0 0 0
SMALL
GASTEIGER

@<TRIPOS>ATOM
      1 O           4.5290    0.6374    2.2036 O.2     1  UNL1       -0.1531
      2 N           4.2623   -0.2088    1.3087 N.am    1  UNL1        0.0392
      3 C           3.3976    0.1405    0.2305 C.2     1  UNL1        0.2902
      4 O           3.8715    1.1061   -0.4414 O.2     1  UNL1       -0.2690
      5 C           2.1064   -0.2860   -0.3447 C.3     1  UNL1        0.0988
      6 N           1.4920   -1.3878    0.3626 N.3     1  UNL1       -0.1810
      7 S           0.0044   -1.7734   -0.4155 S.O2    1  UNL1        0.0588
      8 O          -0.5944   -2.9850    0.2781 O.2     1  UNL1       -0.1530
      9 O           0.2470   -2.2035   -1.8343 O.2     1  UNL1       -0.1530
     10 C          -1.1193   -0.4323   -0.3799 C.ar    1  UNL1        0.1053
     11 C          -1.2262    0.5480   -1.3240 C.ar    1  UNL1       -0.0354
     12 C          -2.1544    1.5597   -1.1876 C.ar    1  UNL1       -0.0599
     13 C          -3.0017    1.6086   -0.0913 C.ar    1  UNL1       -0.0616
     14 C          -2.9019    0.6122    0.8804 C.ar    1  UNL1       -0.0599
     15 C          -1.9612   -0.4069    0.7354 C.ar    1  UNL1       -0.0354
     16 H           1.3720    0.5664   -0.3538 H       1  UNL1        0.0538
     17 H           2.2947   -0.6591   -1.3926 H       1  UNL1        0.0538
     18 H           1.3970   -1.2394    1.3705 H       1  UNL1        0.1485
     19 H          -0.5396    0.4784   -2.1792 H       1  UNL1        0.0637
     20 H          -2.2038    2.3247   -1.9706 H       1  UNL1        0.0618
     21 H          -3.6898    2.4262   -0.0652 H       1  UNL1        0.0618
     22 H          -3.5838    0.6866    1.7239 H       1  UNL1        0.0618
     23 H          -1.9978   -1.1125    1.5692 H       1  UNL1        0.0637
@<TRIPOS>BOND
     1     1     2    2
     2     2     3    1
     3     3     4    2
     4     3     5    1
     5     5     6    1
     6     6     7    1
     7     7     8    2
     8     7     9    2
     9     7    10    1
    10    10    11   ar
    11    11    12   ar
    12    12    13   ar
    13    13    14   ar
    14    14    15   ar
    15    15    10   ar
    16     5    16    1
    17     5    17    1
    18     6    18    1
    19    11    19    1
    20    12    20    1
    21    13    21    1
    22    14    22    1
    23    15    23    1
