@<TRIPOS>MOLECULE
*****
 69 73 0 0 0
SMALL
GASTEIGER

@<TRIPOS>ATOM
      1 C           8.7197   -1.5406   -1.3232 C.3     1  UNL1       -0.0567
      2 C           8.3467   -0.3905   -0.4420 C.3     1  UNL1        0.0021
      3 C           8.6017    0.8767   -1.2676 C.3     1  UNL1       -0.0567
      4 C           6.8563   -0.5160   -0.1930 C.ar    1  UNL1        0.0811
      5 N           5.8309   -0.7971   -0.6031 N.ar    1  UNL1       -0.2517
      6 C           4.6408   -0.7452   -0.0258 C.ar    1  UNL1        0.0410
      7 C           4.5841   -0.3049    1.2231 C.ar    1  UNL1        0.0408
      8 C           3.6024   -0.0434    2.2852 C.3     1  UNL1        0.0985
      9 O           3.9420   -0.8427    3.3748 O.3     1  UNL1       -0.3834
     10 C           2.2516   -0.4540    1.8201 C.3     1  UNL1       -0.0179
     11 C           1.1801    0.4586    2.4206 C.3     1  UNL1       -0.0344
     12 C           1.3002    1.8507    1.8948 C.3     1  UNL1        0.0107
     13 N           0.5241    2.2264    0.7972 N.3     1  UNL1       -0.2958
     14 C          -0.9067    2.3737    0.9581 C.3     1  UNL1        0.0189
     15 C          -0.9539    2.1127   -0.5582 C.3     1  UNL1        0.0486
     16 N          -2.1855    1.4663   -0.9643 N.am    1  UNL1       -0.3087
     17 C          -2.7662    1.7908   -2.1942 C.2     1  UNL1        0.2304
     18 O          -2.1540    2.6448   -2.9054 O.2     1  UNL1       -0.2741
     19 C          -4.0160    1.2103   -2.6879 C.3     1  UNL1        0.0870
     20 N          -4.6297    0.2590   -1.8046 N.pl3   1  UNL1       -0.3199
     21 C          -5.9341   -0.2105   -2.0971 C.ar    1  UNL1        0.1301
     22 N          -6.5826    0.2519   -3.1885 N.ar    1  UNL1       -0.2203
     23 C          -7.8129   -0.1168   -3.5314 C.ar    1  UNL1        0.1187
     24 N          -8.4376   -0.9987   -2.7429 N.ar    1  UNL1       -0.2353
     25 C          -7.8638   -1.5044   -1.6439 C.ar    1  UNL1        0.0760
     26 C          -8.4991   -2.3955   -0.8346 C.ar    1  UNL1       -0.0350
     27 C          -7.9329   -2.9128    0.2888 C.ar    1  UNL1       -0.0481
     28 C          -6.6545   -2.5493    0.6690 C.ar    1  UNL1        0.0556
     29 C          -6.0330   -3.1216    1.8840 C.3     1  UNL1        0.4174
     30 F          -4.8279   -3.7399    1.5681 F       1  UNL1       -0.1659
     31 F          -5.8291   -2.1885    2.8727 F       1  UNL1       -0.1659
     32 F          -6.8777   -4.1274    2.3639 F       1  UNL1       -0.1659
     33 C          -5.9957   -1.6373   -0.1510 C.ar    1  UNL1       -0.0376
     34 C          -6.5654   -1.1122   -1.2858 C.ar    1  UNL1        0.0406
     35 C           0.1961    1.1905   -0.1806 C.3     1  UNL1        0.0189
     36 C           2.7525    2.2044    1.6519 C.3     1  UNL1       -0.0344
     37 C           3.5790    1.4301    2.6662 C.3     1  UNL1       -0.0179
     38 S           6.3369    0.0411    1.5520 S.2     1  UNL1       -0.0739
     39 H           8.2784   -2.5052   -1.0194 H       1  UNL1        0.0236
     40 H           8.4807   -1.2683   -2.3731 H       1  UNL1        0.0236
     41 H           9.8462   -1.6324   -1.2677 H       1  UNL1        0.0236
     42 H           8.9091   -0.3110    0.4932 H       1  UNL1        0.0364
     43 H           9.6458    1.1721   -1.0562 H       1  UNL1        0.0236
     44 H           8.4304    0.6539   -2.3340 H       1  UNL1        0.0236
     45 H           7.9119    1.6871   -0.9641 H       1  UNL1        0.0236
     46 H           3.7214   -1.0613   -0.5729 H       1  UNL1        0.0839
     47 H           3.6959   -1.7888    3.1344 H       1  UNL1        0.2106
     48 H           2.1605   -0.4141    0.7119 H       1  UNL1        0.0297
     49 H           2.0229   -1.5131    2.1167 H       1  UNL1        0.0297
     50 H           1.3841    0.4604    3.5181 H       1  UNL1        0.0281
     51 H           0.1865    0.0014    2.2818 H       1  UNL1        0.0281
     52 H           0.9941    2.5358    2.7528 H       1  UNL1        0.0462
     53 H          -1.2724    3.3893    1.1669 H       1  UNL1        0.0445
     54 H          -1.4385    1.5264    1.4377 H       1  UNL1        0.0445
     55 H          -0.5776    2.9235   -1.1914 H       1  UNL1        0.0523
     56 H          -2.5636    0.7778   -0.2734 H       1  UNL1        0.1491
     57 H          -3.8624    0.7408   -3.6881 H       1  UNL1        0.0557
     58 H          -4.7745    2.0177   -2.8959 H       1  UNL1        0.0557
     59 H          -4.1147   -0.0772   -0.9798 H       1  UNL1        0.1480
     60 H          -8.3337    0.2496   -4.4042 H       1  UNL1        0.1048
     61 H          -9.5151   -2.7001   -1.1198 H       1  UNL1        0.0639
     62 H          -8.5331   -3.6229    0.8766 H       1  UNL1        0.0624
     63 H          -4.9966   -1.3587    0.1497 H       1  UNL1        0.0631
     64 H           0.9784    1.0682   -0.9209 H       1  UNL1        0.0445
     65 H          -0.1831    0.2539    0.2407 H       1  UNL1        0.0445
     66 H           2.8888    3.2922    1.8197 H       1  UNL1        0.0281
     67 H           3.0785    1.9650    0.6099 H       1  UNL1        0.0281
     68 H           3.1494    1.5943    3.6614 H       1  UNL1        0.0297
     69 H           4.6158    1.8049    2.5864 H       1  UNL1        0.0297
@<TRIPOS>BOND
     1     1     2    1
     2     2     3    1
     3     2     4    1
     4     4     5   ar
     5     5     6   ar
     6     6     7   ar
     7     7     8    1
     8     8     9    1
     9     8    10    1
    10    10    11    1
    11    11    12    1
    12    12    13    1
    13    13    14    1
    14    14    15    1
    15    15    16    1
    16    16    17   am
    17    17    18    2
    18    17    19    1
    19    19    20    1
    20    20    21    1
    21    21    22   ar
    22    22    23   ar
    23    23    24   ar
    24    24    25   ar
    25    25    26   ar
    26    26    27   ar
    27    27    28   ar
    28    28    29    1
    29    29    30    1
    30    29    31    1
    31    29    32    1
    32    28    33   ar
    33    33    34   ar
    34    15    35    1
    35    12    36    1
    36    36    37    1
    37     7    38   ar
    38    38     4   ar
    39    37     8    1
    40    35    13    1
    41    34    21   ar
    42    34    25   ar
    43     1    39    1
    44     1    40    1
    45     1    41    1
    46     2    42    1
    47     3    43    1
    48     3    44    1
    49     3    45    1
    50     6    46    1
    51     9    47    1
    52    10    48    1
    53    10    49    1
    54    11    50    1
    55    11    51    1
    56    12    52    1
    57    14    53    1
    58    14    54    1
    59    15    55    1
    60    16    56    1
    61    19    57    1
    62    19    58    1
    63    20    59    1
    64    23    60    1
    65    26    61    1
    66    27    62    1
    67    33    63    1
    68    35    64    1
    69    35    65    1
    70    36    66    1
    71    36    67    1
    72    37    68    1
    73    37    69    1
