
     RDKit          3D

 69 73  0  0  0  0  0  0  0  0999 V2000
    8.7197   -1.5406   -1.3232 C   0  0  0  0  0  0  0  0  0  0  0  0
    8.3467   -0.3905   -0.4420 C   0  0  0  0  0  0  0  0  0  0  0  0
    8.6017    0.8767   -1.2676 C   0  0  0  0  0  0  0  0  0  0  0  0
    6.8563   -0.5160   -0.1930 C   0  0  0  0  0  0  0  0  0  0  0  0
    5.8309   -0.7971   -0.6031 N   0  0  0  0  0  0  0  0  0  0  0  0
    4.6408   -0.7452   -0.0258 C   0  0  0  0  0  0  0  0  0  0  0  0
    4.5841   -0.3049    1.2231 C   0  0  0  0  0  0  0  0  0  0  0  0
    3.6024   -0.0434    2.2852 C   0  0  2  0  0  0  0  0  0  0  0  0
    3.9420   -0.8427    3.3748 O   0  0  0  0  0  0  0  0  0  0  0  0
    2.2516   -0.4540    1.8201 C   0  0  0  0  0  0  0  0  0  0  0  0
    1.1801    0.4586    2.4206 C   0  0  0  0  0  0  0  0  0  0  0  0
    1.3002    1.8507    1.8948 C   0  0  2  0  0  0  0  0  0  0  0  0
    0.5241    2.2264    0.7972 N   0  0  0  0  0  0  0  0  0  0  0  0
   -0.9067    2.3737    0.9581 C   0  0  0  0  0  0  0  0  0  0  0  0
   -0.9539    2.1127   -0.5582 C   0  0  0  0  0  0  0  0  0  0  0  0
   -2.1855    1.4663   -0.9643 N   0  0  0  0  0  0  0  0  0  0  0  0
   -2.7662    1.7908   -2.1942 C   0  0  0  0  0  0  0  0  0  0  0  0
   -2.1540    2.6448   -2.9054 O   0  0  0  0  0  0  0  0  0  0  0  0
   -4.0160    1.2103   -2.6879 C   0  0  0  0  0  0  0  0  0  0  0  0
   -4.6297    0.2590   -1.8046 N   0  0  0  0  0  0  0  0  0  0  0  0
   -5.9341   -0.2105   -2.0971 C   0  0  0  0  0  0  0  0  0  0  0  0
   -6.5826    0.2519   -3.1885 N   0  0  0  0  0  0  0  0  0  0  0  0
   -7.8129   -0.1168   -3.5314 C   0  0  0  0  0  0  0  0  0  0  0  0
   -8.4376   -0.9987   -2.7429 N   0  0  0  0  0  0  0  0  0  0  0  0
   -7.8638   -1.5044   -1.6439 C   0  0  0  0  0  0  0  0  0  0  0  0
   -8.4991   -2.3955   -0.8346 C   0  0  0  0  0  0  0  0  0  0  0  0
   -7.9329   -2.9128    0.2888 C   0  0  0  0  0  0  0  0  0  0  0  0
   -6.6545   -2.5493    0.6690 C   0  0  0  0  0  0  0  0  0  0  0  0
   -6.0330   -3.1216    1.8840 C   0  0  0  0  0  0  0  0  0  0  0  0
   -4.8279   -3.7399    1.5681 F   0  0  0  0  0  0  0  0  0  0  0  0
   -5.8291   -2.1885    2.8727 F   0  0  0  0  0  0  0  0  0  0  0  0
   -6.8777   -4.1274    2.3639 F   0  0  0  0  0  0  0  0  0  0  0  0
   -5.9957   -1.6373   -0.1510 C   0  0  0  0  0  0  0  0  0  0  0  0
   -6.5654   -1.1122   -1.2858 C   0  0  0  0  0  0  0  0  0  0  0  0
    0.1961    1.1905   -0.1806 C   0  0  0  0  0  0  0  0  0  0  0  0
    2.7525    2.2044    1.6519 C   0  0  0  0  0  0  0  0  0  0  0  0
    3.5790    1.4301    2.6662 C   0  0  0  0  0  0  0  0  0  0  0  0
    6.3369    0.0411    1.5520 S   0  0  0  0  0  0  0  0  0  0  0  0
    8.2784   -2.5052   -1.0194 H   0  0  0  0  0  0  0  0  0  0  0  0
    8.4807   -1.2683   -2.3731 H   0  0  0  0  0  0  0  0  0  0  0  0
    9.8462   -1.6324   -1.2677 H   0  0  0  0  0  0  0  0  0  0  0  0
    8.9091   -0.3110    0.4932 H   0  0  0  0  0  0  0  0  0  0  0  0
    9.6458    1.1721   -1.0562 H   0  0  0  0  0  0  0  0  0  0  0  0
    8.4304    0.6539   -2.3340 H   0  0  0  0  0  0  0  0  0  0  0  0
    7.9119    1.6871   -0.9641 H   0  0  0  0  0  0  0  0  0  0  0  0
    3.7214   -1.0613   -0.5729 H   0  0  0  0  0  0  0  0  0  0  0  0
    3.6959   -1.7888    3.1344 H   0  0  0  0  0  0  0  0  0  0  0  0
    2.1605   -0.4141    0.7119 H   0  0  0  0  0  0  0  0  0  0  0  0
    2.0229   -1.5131    2.1167 H   0  0  0  0  0  0  0  0  0  0  0  0
    1.3841    0.4604    3.5181 H   0  0  0  0  0  0  0  0  0  0  0  0
    0.1865    0.0014    2.2818 H   0  0  0  0  0  0  0  0  0  0  0  0
    0.9941    2.5358    2.7528 H   0  0  0  0  0  0  0  0  0  0  0  0
   -1.2724    3.3893    1.1669 H   0  0  0  0  0  0  0  0  0  0  0  0
   -1.4385    1.5264    1.4377 H   0  0  0  0  0  0  0  0  0  0  0  0
   -0.5776    2.9235   -1.1914 H   0  0  0  0  0  0  0  0  0  0  0  0
   -2.5636    0.7778   -0.2734 H   0  0  0  0  0  0  0  0  0  0  0  0
   -3.8624    0.7408   -3.6881 H   0  0  0  0  0  0  0  0  0  0  0  0
   -4.7745    2.0177   -2.8959 H   0  0  0  0  0  0  0  0  0  0  0  0
   -4.1147   -0.0772   -0.9798 H   0  0  0  0  0  0  0  0  0  0  0  0
   -8.3337    0.2496   -4.4042 H   0  0  0  0  0  0  0  0  0  0  0  0
   -9.5151   -2.7001   -1.1198 H   0  0  0  0  0  0  0  0  0  0  0  0
   -8.5331   -3.6229    0.8766 H   0  0  0  0  0  0  0  0  0  0  0  0
   -4.9966   -1.3587    0.1497 H   0  0  0  0  0  0  0  0  0  0  0  0
    0.9784    1.0682   -0.9209 H   0  0  0  0  0  0  0  0  0  0  0  0
   -0.1831    0.2539    0.2407 H   0  0  0  0  0  0  0  0  0  0  0  0
    2.8888    3.2922    1.8197 H   0  0  0  0  0  0  0  0  0  0  0  0
    3.0785    1.9650    0.6099 H   0  0  0  0  0  0  0  0  0  0  0  0
    3.1494    1.5943    3.6614 H   0  0  0  0  0  0  0  0  0  0  0  0
    4.6158    1.8049    2.5864 H   0  0  0  0  0  0  0  0  0  0  0  0
  1  2  1  0
  2  3  1  0
  2  4  1  0
  4  5  2  0
  5  6  1  0
  6  7  2  0
  7  8  1  0
  8  9  1  1
  8 10  1  0
 10 11  1  0
 11 12  1  0
 12 13  1  0
 13 14  1  0
 14 15  1  0
 15 16  1  0
 16 17  1  0
 17 18  2  0
 17 19  1  0
 19 20  1  0
 20 21  1  0
 21 22  2  0
 22 23  1  0
 23 24  2  0
 24 25  1  0
 25 26  2  0
 26 27  1  0
 27 28  2  0
 28 29  1  0
 29 30  1  0
 29 31  1  0
 29 32  1  0
 28 33  1  0
 33 34  2  0
 15 35  1  0
 12 36  1  0
 36 37  1  0
  7 38  1  0
 38  4  1  0
 37  8  1  0
 35 13  1  0
 34 21  1  0
 34 25  1  0
  1 39  1  0
  1 40  1  0
  1 41  1  0
  2 42  1  0
  3 43  1  0
  3 44  1  0
  3 45  1  0
  6 46  1  0
  9 47  1  0
 10 48  1  0
 10 49  1  0
 11 50  1  0
 11 51  1  0
 12 52  1  1
 14 53  1  0
 14 54  1  0
 15 55  1  0
 16 56  1  0
 19 57  1  0
 19 58  1  0
 20 59  1  0
 23 60  1  0
 26 61  1  0
 27 62  1  0
 33 63  1  0
 35 64  1  0
 35 65  1  0
 36 66  1  0
 36 67  1  0
 37 68  1  0
 37 69  1  0
M  END
$$$$
