@<TRIPOS>MOLECULE
*****
 52 55 0 0 0
SMALL
GASTEIGER

@<TRIPOS>ATOM
      1 C          -5.9281    1.6552   -1.9327 C.3     1  UNL1        0.0071
      2 N          -7.0665    0.8216   -1.6678 N.3     1  UNL1       -0.1802
      3 S          -6.7307   -0.8494   -1.7033 S.O2    1  UNL1        0.1091
      4 O          -6.2650   -1.1976   -3.1053 O.2     1  UNL1       -0.1381
      5 O          -8.0128   -1.6521   -1.5125 O.2     1  UNL1       -0.1381
      6 N          -5.5917   -1.3583   -0.5313 N.pl3   1  UNL1       -0.2038
      7 C          -4.2671   -0.8823   -0.5288 C.ar    1  UNL1        0.0844
      8 C          -3.5529   -0.5913   -1.6731 C.ar    1  UNL1       -0.0365
      9 C          -2.2506   -0.1571   -1.5986 C.ar    1  UNL1       -0.0595
     10 C          -1.6789   -0.0206   -0.3604 C.ar    1  UNL1       -0.0554
     11 C          -2.3624   -0.3016    0.8027 C.ar    1  UNL1       -0.0058
     12 C          -1.7246   -0.1355    2.1403 C.3     1  UNL1        0.0074
     13 C          -0.2616    0.1579    1.9613 C.ar    1  UNL1        0.0449
     14 C           0.6343   -0.8381    1.6440 C.ar    1  UNL1       -0.0295
     15 C           0.1922   -2.2454    1.4674 C.3     1  UNL1       -0.0385
     16 C           1.9677   -0.5079    1.4902 C.ar    1  UNL1        0.0210
     17 C           2.9186   -1.4641    1.1727 C.ar    1  UNL1       -0.0473
     18 C           4.2545   -1.1578    1.0160 C.ar    1  UNL1       -0.0184
     19 C           4.6886    0.1557    1.1778 C.ar    1  UNL1        0.1354
     20 O           6.0525    0.4417    1.0144 O.3     1  UNL1       -0.4235
     21 C           6.4933    0.7469   -0.2625 C.ar    1  UNL1        0.3233
     22 N           7.8124    1.0256   -0.4259 N.ar    1  UNL1       -0.2030
     23 C           8.2887    1.3251   -1.6309 C.ar    1  UNL1        0.0344
     24 C           7.4730    1.3668   -2.7612 C.ar    1  UNL1       -0.0252
     25 C           6.1370    1.0816   -2.5776 C.ar    1  UNL1        0.0344
     26 N           5.6958    0.7836   -1.3445 N.ar    1  UNL1       -0.2030
     27 C           3.7588    1.1204    1.4934 C.ar    1  UNL1        0.0238
     28 C           2.4173    0.7868    1.6465 C.ar    1  UNL1        0.1428
     29 O           1.5185    1.6993    1.9494 O.2     1  UNL1       -0.4218
     30 C           0.2436    1.4321    2.1051 C.ar    1  UNL1        0.3410
     31 O          -0.5884    2.3493    2.3988 O.2     1  UNL1       -0.2449
     32 C          -3.6660   -0.7356    0.7171 C.ar    1  UNL1        0.1491
     33 F          -4.3678   -1.0233    1.8591 F       1  UNL1       -0.2032
     34 H          -5.3888    1.2762   -2.8201 H       1  UNL1        0.0406
     35 H          -5.2194    1.6489   -1.0645 H       1  UNL1        0.0406
     36 H          -6.3080    2.6975   -2.1022 H       1  UNL1        0.0406
     37 H          -7.4970    1.0371   -0.7523 H       1  UNL1        0.1490
     38 H          -5.8893   -2.0550    0.2179 H       1  UNL1        0.1748
     39 H          -4.0071   -0.7017   -2.6387 H       1  UNL1        0.0637
     40 H          -1.7097    0.0673   -2.5248 H       1  UNL1        0.0618
     41 H          -0.6535    0.3178   -0.2457 H       1  UNL1        0.0621
     42 H          -1.8935   -1.0263    2.7736 H       1  UNL1        0.0365
     43 H          -2.2349    0.7122    2.6308 H       1  UNL1        0.0365
     44 H           0.7078   -2.8607    2.2568 H       1  UNL1        0.0278
     45 H           0.5202   -2.6661    0.4929 H       1  UNL1        0.0278
     46 H          -0.9015   -2.3022    1.5244 H       1  UNL1        0.0278
     47 H           2.5383   -2.4757    1.0548 H       1  UNL1        0.0626
     48 H           4.9453   -1.9439    0.7696 H       1  UNL1        0.0654
     49 H           9.3414    1.5583   -1.8203 H       1  UNL1        0.0832
     50 H           7.8628    1.6111   -3.7407 H       1  UNL1        0.0648
     51 H           5.4844    1.1072   -3.4347 H       1  UNL1        0.0832
     52 H           4.0705    2.1666    1.6259 H       1  UNL1        0.0691
@<TRIPOS>BOND
     1     1     2    1
     2     2     3    1
     3     3     4    2
     4     3     5    2
     5     3     6    1
     6     6     7    1
     7     7     8   ar
     8     8     9   ar
     9     9    10   ar
    10    10    11   ar
    11    11    12    1
    12    12    13    1
    13    13    14   ar
    14    14    15    1
    15    14    16   ar
    16    16    17   ar
    17    17    18   ar
    18    18    19   ar
    19    19    20    1
    20    20    21    1
    21    21    22   ar
    22    22    23   ar
    23    23    24   ar
    24    24    25   ar
    25    25    26   ar
    26    19    27   ar
    27    27    28   ar
    28    28    29   ar
    29    29    30   ar
    30    30    31    2
    31    11    32   ar
    32    32    33    1
    33    32     7   ar
    34    30    13   ar
    35    28    16   ar
    36    26    21   ar
    37     1    34    1
    38     1    35    1
    39     1    36    1
    40     2    37    1
    41     6    38    1
    42     8    39    1
    43     9    40    1
    44    10    41    1
    45    12    42    1
    46    12    43    1
    47    15    44    1
    48    15    45    1
    49    15    46    1
    50    17    47    1
    51    18    48    1
    52    23    49    1
    53    24    50    1
    54    25    51    1
    55    27    52    1
