
     RDKit          3D

 52 55  0  0  0  0  0  0  0  0999 V2000
   -5.9281    1.6552   -1.9327 C   0  0  0  0  0  0  0  0  0  0  0  0
   -7.0665    0.8216   -1.6678 N   0  0  0  0  0  0  0  0  0  0  0  0
   -6.7307   -0.8494   -1.7033 S   0  0  0  0  0  6  0  0  0  0  0  0
   -6.2650   -1.1976   -3.1053 O   0  0  0  0  0  0  0  0  0  0  0  0
   -8.0128   -1.6521   -1.5125 O   0  0  0  0  0  0  0  0  0  0  0  0
   -5.5917   -1.3583   -0.5313 N   0  0  0  0  0  0  0  0  0  0  0  0
   -4.2671   -0.8823   -0.5288 C   0  0  0  0  0  0  0  0  0  0  0  0
   -3.5529   -0.5913   -1.6731 C   0  0  0  0  0  0  0  0  0  0  0  0
   -2.2506   -0.1571   -1.5986 C   0  0  0  0  0  0  0  0  0  0  0  0
   -1.6789   -0.0206   -0.3604 C   0  0  0  0  0  0  0  0  0  0  0  0
   -2.3624   -0.3016    0.8027 C   0  0  0  0  0  0  0  0  0  0  0  0
   -1.7246   -0.1355    2.1403 C   0  0  0  0  0  0  0  0  0  0  0  0
   -0.2616    0.1579    1.9613 C   0  0  0  0  0  0  0  0  0  0  0  0
    0.6343   -0.8381    1.6440 C   0  0  0  0  0  0  0  0  0  0  0  0
    0.1922   -2.2454    1.4674 C   0  0  0  0  0  0  0  0  0  0  0  0
    1.9677   -0.5079    1.4902 C   0  0  0  0  0  0  0  0  0  0  0  0
    2.9186   -1.4641    1.1727 C   0  0  0  0  0  0  0  0  0  0  0  0
    4.2545   -1.1578    1.0160 C   0  0  0  0  0  0  0  0  0  0  0  0
    4.6886    0.1557    1.1778 C   0  0  0  0  0  0  0  0  0  0  0  0
    6.0525    0.4417    1.0144 O   0  0  0  0  0  0  0  0  0  0  0  0
    6.4933    0.7469   -0.2625 C   0  0  0  0  0  0  0  0  0  0  0  0
    7.8124    1.0256   -0.4259 N   0  0  0  0  0  0  0  0  0  0  0  0
    8.2887    1.3251   -1.6309 C   0  0  0  0  0  0  0  0  0  0  0  0
    7.4730    1.3668   -2.7612 C   0  0  0  0  0  0  0  0  0  0  0  0
    6.1370    1.0816   -2.5776 C   0  0  0  0  0  0  0  0  0  0  0  0
    5.6958    0.7836   -1.3445 N   0  0  0  0  0  0  0  0  0  0  0  0
    3.7588    1.1204    1.4934 C   0  0  0  0  0  0  0  0  0  0  0  0
    2.4173    0.7868    1.6465 C   0  0  0  0  0  0  0  0  0  0  0  0
    1.5185    1.6993    1.9494 O   0  0  0  0  0  0  0  0  0  0  0  0
    0.2436    1.4321    2.1051 C   0  0  0  0  0  0  0  0  0  0  0  0
   -0.5884    2.3493    2.3988 O   0  0  0  0  0  0  0  0  0  0  0  0
   -3.6660   -0.7356    0.7171 C   0  0  0  0  0  0  0  0  0  0  0  0
   -4.3678   -1.0233    1.8591 F   0  0  0  0  0  0  0  0  0  0  0  0
   -5.3888    1.2762   -2.8201 H   0  0  0  0  0  0  0  0  0  0  0  0
   -5.2194    1.6489   -1.0645 H   0  0  0  0  0  0  0  0  0  0  0  0
   -6.3080    2.6975   -2.1022 H   0  0  0  0  0  0  0  0  0  0  0  0
   -7.4970    1.0371   -0.7523 H   0  0  0  0  0  0  0  0  0  0  0  0
   -5.8893   -2.0550    0.2179 H   0  0  0  0  0  0  0  0  0  0  0  0
   -4.0071   -0.7017   -2.6387 H   0  0  0  0  0  0  0  0  0  0  0  0
   -1.7097    0.0673   -2.5248 H   0  0  0  0  0  0  0  0  0  0  0  0
   -0.6535    0.3178   -0.2457 H   0  0  0  0  0  0  0  0  0  0  0  0
   -1.8935   -1.0263    2.7736 H   0  0  0  0  0  0  0  0  0  0  0  0
   -2.2349    0.7122    2.6308 H   0  0  0  0  0  0  0  0  0  0  0  0
    0.7078   -2.8607    2.2568 H   0  0  0  0  0  0  0  0  0  0  0  0
    0.5202   -2.6661    0.4929 H   0  0  0  0  0  0  0  0  0  0  0  0
   -0.9015   -2.3022    1.5244 H   0  0  0  0  0  0  0  0  0  0  0  0
    2.5383   -2.4757    1.0548 H   0  0  0  0  0  0  0  0  0  0  0  0
    4.9453   -1.9439    0.7696 H   0  0  0  0  0  0  0  0  0  0  0  0
    9.3414    1.5583   -1.8203 H   0  0  0  0  0  0  0  0  0  0  0  0
    7.8628    1.6111   -3.7407 H   0  0  0  0  0  0  0  0  0  0  0  0
    5.4844    1.1072   -3.4347 H   0  0  0  0  0  0  0  0  0  0  0  0
    4.0705    2.1666    1.6259 H   0  0  0  0  0  0  0  0  0  0  0  0
  1  2  1  0
  2  3  1  0
  3  4  2  0
  3  5  2  0
  3  6  1  0
  6  7  1  0
  7  8  2  0
  8  9  1  0
  9 10  2  0
 10 11  1  0
 11 12  1  0
 12 13  1  0
 13 14  2  0
 14 15  1  0
 14 16  1  0
 16 17  2  0
 17 18  1  0
 18 19  2  0
 19 20  1  0
 20 21  1  0
 21 22  2  0
 22 23  1  0
 23 24  2  0
 24 25  1  0
 25 26  2  0
 19 27  1  0
 27 28  2  0
 28 29  1  0
 29 30  1  0
 30 31  2  0
 11 32  2  0
 32 33  1  0
 32  7  1  0
 30 13  1  0
 28 16  1  0
 26 21  1  0
  1 34  1  0
  1 35  1  0
  1 36  1  0
  2 37  1  0
  6 38  1  0
  8 39  1  0
  9 40  1  0
 10 41  1  0
 12 42  1  0
 12 43  1  0
 15 44  1  0
 15 45  1  0
 15 46  1  0
 17 47  1  0
 18 48  1  0
 23 49  1  0
 24 50  1  0
 25 51  1  0
 27 52  1  0
M  END
$$$$
