@<TRIPOS>MOLECULE
*****
 38 38 0 0 0
SMALL
GASTEIGER

@<TRIPOS>ATOM
      1 C          -1.6550    0.1090    0.6043 C.3     1  UNL1        0.0832
      2 C          -2.3906    0.9296    1.6141 C.3     1  UNL1       -0.0409
      3 C          -2.6944    0.0600    2.8101 C.3     1  UNL1       -0.0645
      4 C          -2.5319   -1.0469    0.2068 C.2     1  UNL1        0.3099
      5 O          -2.1151   -1.9931   -0.7264 O.3     1  UNL1       -0.4804
      6 O          -3.7053   -1.3175    0.6322 O.2     1  UNL1       -0.2506
      7 C          -1.3857    0.8601   -0.6791 C.3     1  UNL1        0.1381
      8 N          -0.5856    2.0518   -0.4831 N.3     1  UNL1       -0.1754
      9 S           0.8680    1.8816   -1.3557 S.O2    1  UNL1        0.0591
     10 O           1.6535    3.1714   -1.1966 O.2     1  UNL1       -0.1530
     11 O           0.5349    1.6624   -2.8202 O.2     1  UNL1       -0.1530
     12 C           1.8583    0.5562   -0.8601 C.ar    1  UNL1        0.1053
     13 C           1.8479   -0.7345   -1.3615 C.ar    1  UNL1       -0.0351
     14 C           2.7022   -1.6731   -0.8529 C.ar    1  UNL1       -0.0570
     15 C           3.6030   -1.4191    0.1564 C.ar    1  UNL1       -0.0503
     16 C           4.4818   -2.5138    0.6306 C.3     1  UNL1       -0.0397
     17 C           3.6304   -0.1387    0.6711 C.ar    1  UNL1       -0.0570
     18 C           2.7718    0.8084    0.1614 C.ar    1  UNL1       -0.0351
     19 C          -2.6452    1.1953   -1.3912 C.2     1  UNL1        0.3244
     20 O          -3.4863    2.1208   -1.9944 O.3     1  UNL1       -0.4795
     21 O          -3.6021    0.4275   -1.7461 O.2     1  UNL1       -0.2492
     22 H          -0.6842   -0.2294    0.9950 H       1  UNL1        0.0435
     23 H          -1.8075    1.7804    1.9684 H       1  UNL1        0.0271
     24 H          -3.3553    1.2306    1.1598 H       1  UNL1        0.0271
     25 H          -2.4555   -1.0188    2.6097 H       1  UNL1        0.0230
     26 H          -2.1446    0.3869    3.7120 H       1  UNL1        0.0230
     27 H          -3.7743    0.0583    3.0802 H       1  UNL1        0.0230
     28 H          -2.7698   -2.4627   -1.3488 H       1  UNL1        0.2951
     29 H          -0.8133    0.1841   -1.3447 H       1  UNL1        0.0601
     30 H          -0.4596    2.2637    0.5162 H       1  UNL1        0.1490
     31 H           1.1506   -0.9203   -2.1407 H       1  UNL1        0.0637
     32 H           2.6401   -2.6581   -1.2904 H       1  UNL1        0.0621
     33 H           5.3078   -2.1070    1.2722 H       1  UNL1        0.0278
     34 H           4.9395   -3.0728   -0.1995 H       1  UNL1        0.0278
     35 H           3.8315   -3.1899    1.2295 H       1  UNL1        0.0278
     36 H           4.3303    0.0943    1.4687 H       1  UNL1        0.0621
     37 H           2.8527    1.7926    0.6176 H       1  UNL1        0.0637
     38 H          -3.9430    2.8705   -1.4927 H       1  UNL1        0.2951
@<TRIPOS>BOND
     1     1     2    1
     2     2     3    1
     3     1     4    1
     4     4     5    1
     5     4     6    2
     6     1     7    1
     7     7     8    1
     8     8     9    1
     9     9    10    2
    10     9    11    2
    11     9    12    1
    12    12    13   ar
    13    13    14   ar
    14    14    15   ar
    15    15    16    1
    16    15    17   ar
    17    17    18   ar
    18     7    19    1
    19    19    20    1
    20    19    21    2
    21    18    12   ar
    22     1    22    1
    23     2    23    1
    24     2    24    1
    25     3    25    1
    26     3    26    1
    27     3    27    1
    28     5    28    1
    29     7    29    1
    30     8    30    1
    31    13    31    1
    32    14    32    1
    33    16    33    1
    34    16    34    1
    35    16    35    1
    36    17    36    1
    37    18    37    1
    38    20    38    1
