@<TRIPOS>MOLECULE
*****
 35 37 0 0 0
SMALL
GASTEIGER

@<TRIPOS>ATOM
      1 C          -3.7007   -1.1081    1.1390 C.3     1  UNL1        0.0084
      2 N          -2.4541   -1.2757    0.4263 N.am    1  UNL1       -0.2723
      3 C          -1.7820   -0.0364    0.1288 C.ar    1  UNL1        0.0456
      4 C          -0.4438    0.1115   -0.2535 C.ar    1  UNL1        0.0284
      5 C           0.1209    1.3381   -0.5202 C.ar    1  UNL1        0.0265
      6 C          -0.7059    2.4395   -0.3921 C.ar    1  UNL1        0.2739
      7 C          -2.0273    2.3099   -0.0161 C.ar    1  UNL1        0.0174
      8 C          -2.5890    1.0862    0.2495 C.ar    1  UNL1       -0.0332
      9 N          -0.1580    3.7125   -0.6584 N.pl3   1  UNL1        0.0796
     10 O           1.1451    3.9484   -1.0389 O.co2   1  UNL1       -0.5760
     11 O          -0.8534    4.7434   -0.5601 O.2     1  UNL1        0.0414
     12 C           0.5494   -0.9695   -0.4293 C.2     1  UNL1        0.0780
     13 N           0.2709   -2.1981   -0.6796 N.2     1  UNL1       -0.2733
     14 C          -0.9491   -2.9477   -0.8699 C.3     1  UNL1        0.1169
     15 C          -2.0072   -2.5834    0.0894 C.2     1  UNL1        0.2410
     16 O          -2.6224   -3.5043    0.7141 O.2     1  UNL1       -0.2732
     17 C           1.9566   -0.5670   -0.3001 C.ar    1  UNL1        0.0357
     18 C           2.9800   -0.6369   -1.2067 C.ar    1  UNL1       -0.0498
     19 C           4.2242   -0.1879   -0.8353 C.ar    1  UNL1       -0.0610
     20 C           4.4953    0.3296    0.4040 C.ar    1  UNL1       -0.0590
     21 C           3.4596    0.4016    1.3249 C.ar    1  UNL1       -0.0258
     22 C           2.2016   -0.0433    0.9744 C.ar    1  UNL1        0.1325
     23 F           1.2760    0.0866    1.9787 F       1  UNL1       -0.2048
     24 H          -4.5128   -0.8902    0.4485 H       1  UNL1        0.0433
     25 H          -3.6208   -0.4620    2.0276 H       1  UNL1        0.0433
     26 H          -3.9340   -2.1303    1.5598 H       1  UNL1        0.0433
     27 H           1.1627    1.3819   -0.8113 H       1  UNL1        0.0692
     28 H          -2.6677    3.1819    0.0814 H       1  UNL1        0.0686
     29 H          -3.6185    0.9402    0.5465 H       1  UNL1        0.0638
     30 H          -1.3372   -2.6312   -1.8807 H       1  UNL1        0.0605
     31 H          -0.7142   -4.0094   -0.8706 H       1  UNL1        0.0605
     32 H           2.6721   -1.0534   -2.1415 H       1  UNL1        0.0625
     33 H           4.9973   -0.2621   -1.5794 H       1  UNL1        0.0618
     34 H           5.4819    0.6730    0.6635 H       1  UNL1        0.0618
     35 H           3.7046    0.8122    2.2874 H       1  UNL1        0.0646
@<TRIPOS>UNITY_ATOM_ATTR
9 1
charge 1
10 1
charge -1
@<TRIPOS>BOND
     1     1     2    1
     2     2     3    1
     3     3     4   ar
     4     4     5   ar
     5     5     6   ar
     6     6     7   ar
     7     7     8   ar
     8     6     9    1
     9     9    10    1
    10     9    11    2
    11     4    12    1
    12    12    13    2
    13    13    14    1
    14    14    15    1
    15    15    16    2
    16    12    17    1
    17    17    18   ar
    18    18    19   ar
    19    19    20   ar
    20    20    21   ar
    21    21    22   ar
    22    22    23    1
    23    15     2   am
    24    22    17   ar
    25     8     3   ar
    26     1    24    1
    27     1    25    1
    28     1    26    1
    29     5    27    1
    30     7    28    1
    31     8    29    1
    32    14    30    1
    33    14    31    1
    34    18    32    1
    35    19    33    1
    36    20    34    1
    37    21    35    1
