
     RDKit          3D

 67 71  0  0  0  0  0  0  0  0999 V2000
   -7.9822    2.3208   -1.4250 N   0  0  0  0  0  0  0  0  0  0  0  0
   -6.9705    1.5453   -1.4314 C   0  0  0  0  0  0  0  0  0  0  0  0
   -7.0853    0.2487   -1.9841 N   0  0  0  0  0  0  0  0  0  0  0  0
   -5.7111    1.9806   -0.8835 C   0  0  0  0  0  0  0  0  0  0  0  0
   -5.2903    3.2961   -0.9591 C   0  0  0  0  0  0  0  0  0  0  0  0
   -4.0848    3.6576   -0.4208 C   0  0  0  0  0  0  0  0  0  0  0  0
   -3.2743    2.7209    0.2027 C   0  0  0  0  0  0  0  0  0  0  0  0
   -3.6918    1.4106    0.2791 C   0  0  0  0  0  0  0  0  0  0  0  0
   -2.8297    0.4380    0.9395 C   0  0  0  0  0  0  0  0  0  0  0  0
   -2.5621    0.6023    2.1786 O   0  0  0  0  0  0  0  0  0  0  0  0
   -2.2684   -0.6814    0.2875 N   0  0  0  0  0  0  0  0  0  0  0  0
   -2.5615   -0.8930   -1.1156 C   0  0  0  0  0  0  0  0  0  0  0  0
   -3.2173   -2.2323   -1.1805 C   0  0  0  0  0  0  0  0  0  0  0  0
   -4.3359   -2.4763   -1.9435 C   0  0  0  0  0  0  0  0  0  0  0  0
   -4.9048   -3.7580   -1.9513 C   0  0  0  0  0  0  0  0  0  0  0  0
   -4.3585   -4.7841   -1.2025 C   0  0  0  0  0  0  0  0  0  0  0  0
   -3.2431   -4.5211   -0.4481 C   0  0  0  0  0  0  0  0  0  0  0  0
   -2.6670   -3.2467   -0.4328 C   0  0  0  0  0  0  0  0  0  0  0  0
   -1.4611   -2.9688    0.3697 C   0  0  0  0  0  0  0  0  0  0  0  0
   -1.4288   -1.5952    0.9948 C   0  0  1  0  0  0  0  0  0  0  0  0
    0.0087   -1.1528    0.9481 C   0  0  0  0  0  0  0  0  0  0  0  0
    0.8399   -1.8353    1.5942 O   0  0  0  0  0  0  0  0  0  0  0  0
    0.4442   -0.0171    0.2131 N   0  0  0  0  0  0  0  0  0  0  0  0
    1.8333    0.3668    0.1949 C   0  0  0  0  0  0  0  0  0  0  0  0
    2.3831    1.2547    1.0845 C   0  0  0  0  0  0  0  0  0  0  0  0
    3.7384    1.5824    1.0252 C   0  0  0  0  0  0  0  0  0  0  0  0
    4.5705    1.0349    0.0844 C   0  0  0  0  0  0  0  0  0  0  0  0
    5.9995    1.2904   -0.0361 C   0  0  0  0  0  0  0  0  0  0  0  0
    6.4701    2.0457   -1.1266 C   0  0  0  0  0  0  0  0  0  0  0  0
    7.8097    2.2923   -1.2243 C   0  0  0  0  0  0  0  0  0  0  0  0
    8.7020    1.8338   -0.3053 C   0  0  0  0  0  0  0  0  0  0  0  0
    8.2169    1.0932    0.7582 C   0  0  0  0  0  0  0  0  0  0  0  0
    6.8611    0.8108    0.9083 C   0  0  0  0  0  0  0  0  0  0  0  0
    6.3587   -0.1424    2.2630 S   0  0  0  0  0  6  0  0  0  0  0  0
    7.7894   -0.6255    3.1645 N   0  0  0  0  0  0  0  0  0  0  0  0
    5.6580   -1.4170    1.8584 O   0  0  0  0  0  0  0  0  0  0  0  0
    5.4644    0.6368    3.2128 O   0  0  0  0  0  0  0  0  0  0  0  0
    3.9946    0.1307   -0.8173 C   0  0  0  0  0  0  0  0  0  0  0  0
    2.6616   -0.1950   -0.7641 C   0  0  0  0  0  0  0  0  0  0  0  0
   -4.8972    1.0604   -0.2619 C   0  0  0  0  0  0  0  0  0  0  0  0
   -8.0507    3.2735   -1.0642 H   0  0  0  0  0  0  0  0  0  0  0  0
   -7.1512   -0.5607   -1.3205 H   0  0  0  0  0  0  0  0  0  0  0  0
   -7.1062    0.0776   -3.0168 H   0  0  0  0  0  0  0  0  0  0  0  0
   -5.8951    4.0333   -1.4325 H   0  0  0  0  0  0  0  0  0  0  0  0
   -3.7611    4.6934   -0.4846 H   0  0  0  0  0  0  0  0  0  0  0  0
   -2.3320    3.0479    0.6141 H   0  0  0  0  0  0  0  0  0  0  0  0
   -1.6014   -0.9058   -1.7121 H   0  0  0  0  0  0  0  0  0  0  0  0
   -3.1605   -0.0935   -1.5496 H   0  0  0  0  0  0  0  0  0  0  0  0
   -4.7641   -1.6815   -2.5268 H   0  0  0  0  0  0  0  0  0  0  0  0
   -5.7790   -3.9632   -2.5428 H   0  0  0  0  0  0  0  0  0  0  0  0
   -4.8203   -5.7826   -1.2235 H   0  0  0  0  0  0  0  0  0  0  0  0
   -2.7926   -5.3037    0.1491 H   0  0  0  0  0  0  0  0  0  0  0  0
   -0.6082   -3.0020   -0.3735 H   0  0  0  0  0  0  0  0  0  0  0  0
   -1.2665   -3.7661    1.1231 H   0  0  0  0  0  0  0  0  0  0  0  0
   -1.7079   -1.7134    2.0628 H   0  0  0  0  0  0  0  0  0  0  0  0
   -0.2757    0.5217   -0.3084 H   0  0  0  0  0  0  0  0  0  0  0  0
    1.7487    1.6974    1.8333 H   0  0  0  0  0  0  0  0  0  0  0  0
    4.1041    2.2969    1.7239 H   0  0  0  0  0  0  0  0  0  0  0  0
    5.7883    2.4035   -1.8390 H   0  0  0  0  0  0  0  0  0  0  0  0
    8.1612    2.8814   -2.0767 H   0  0  0  0  0  0  0  0  0  0  0  0
    9.7787    2.0331   -0.3873 H   0  0  0  0  0  0  0  0  0  0  0  0
    8.9313    0.7406    1.4704 H   0  0  0  0  0  0  0  0  0  0  0  0
    8.4189    0.1629    3.3466 H   0  0  0  0  0  0  0  0  0  0  0  0
    7.5238   -1.0303    4.0857 H   0  0  0  0  0  0  0  0  0  0  0  0
    4.6456   -0.3152   -1.5769 H   0  0  0  0  0  0  0  0  0  0  0  0
    2.2386   -0.8948   -1.4700 H   0  0  0  0  0  0  0  0  0  0  0  0
   -5.2451    0.0379   -0.2133 H   0  0  0  0  0  0  0  0  0  0  0  0
  1  2  2  3
  2  3  1  0
  2  4  1  0
  4  5  2  0
  5  6  1  0
  6  7  2  0
  7  8  1  0
  8  9  1  0
  9 10  2  0
  9 11  1  0
 11 12  1  0
 12 13  1  0
 13 14  2  0
 14 15  1  0
 15 16  2  0
 16 17  1  0
 17 18  2  0
 18 19  1  0
 19 20  1  0
 20 21  1  0
 21 22  2  0
 21 23  1  0
 23 24  1  0
 24 25  2  0
 25 26  1  0
 26 27  2  0
 27 28  1  0
 28 29  2  0
 29 30  1  0
 30 31  2  0
 31 32  1  0
 32 33  2  0
 33 34  1  0
 34 35  1  0
 34 36  2  0
 34 37  2  0
 27 38  1  0
 38 39  2  0
  8 40  2  0
 40  4  1  0
 20 11  1  0
 39 24  1  0
 18 13  1  0
 33 28  1  0
  1 41  1  0
  3 42  1  0
  3 43  1  0
  5 44  1  0
  6 45  1  0
  7 46  1  0
 12 47  1  0
 12 48  1  0
 14 49  1  0
 15 50  1  0
 16 51  1  0
 17 52  1  0
 19 53  1  0
 19 54  1  0
 20 55  1  1
 23 56  1  0
 25 57  1  0
 26 58  1  0
 29 59  1  0
 30 60  1  0
 31 61  1  0
 32 62  1  0
 35 63  1  0
 35 64  1  0
 38 65  1  0
 39 66  1  0
 40 67  1  0
M  END
$$$$
