@<TRIPOS>MOLECULE
*****
 67 71 0 0 0
SMALL
GASTEIGER

@<TRIPOS>ATOM
      1 N          -7.9822    2.3208   -1.4250 N.2     1  UNL1       -0.0994
      2 C          -6.9705    1.5453   -1.4314 C.2     1  UNL1        0.3081
      3 N          -7.0853    0.2487   -1.9841 N.pl3   1  UNL1       -0.2466
      4 C          -5.7111    1.9806   -0.8835 C.ar    1  UNL1        0.0654
      5 C          -5.2903    3.2961   -0.9591 C.ar    1  UNL1       -0.0469
      6 C          -4.0848    3.6576   -0.4208 C.ar    1  UNL1       -0.0602
      7 C          -3.2743    2.7209    0.2027 C.ar    1  UNL1       -0.0496
      8 C          -3.6918    1.4106    0.2791 C.ar    1  UNL1        0.0377
      9 C          -2.8297    0.4380    0.9395 C.2     1  UNL1        0.2476
     10 O          -2.5621    0.6023    2.1786 O.2     1  UNL1       -0.2700
     11 N          -2.2684   -0.6814    0.2875 N.am    1  UNL1       -0.2813
     12 C          -2.5615   -0.8930   -1.1156 C.3     1  UNL1        0.0411
     13 C          -3.2173   -2.2323   -1.1805 C.ar    1  UNL1       -0.0268
     14 C          -4.3359   -2.4763   -1.9435 C.ar    1  UNL1       -0.0568
     15 C          -4.9048   -3.7580   -1.9513 C.ar    1  UNL1       -0.0614
     16 C          -4.3585   -4.7841   -1.2025 C.ar    1  UNL1       -0.0615
     17 C          -3.2431   -4.5211   -0.4481 C.ar    1  UNL1       -0.0582
     18 C          -2.6670   -3.2467   -0.4328 C.ar    1  UNL1       -0.0405
     19 C          -1.4611   -2.9688    0.3697 C.3     1  UNL1       -0.0001
     20 C          -1.4288   -1.5952    0.9948 C.3     1  UNL1        0.1071
     21 C           0.0087   -1.1528    0.9481 C.2     1  UNL1        0.2381
     22 O           0.8399   -1.8353    1.5942 O.2     1  UNL1       -0.2734
     23 N           0.4442   -0.0171    0.2131 N.am    1  UNL1       -0.2840
     24 C           1.8333    0.3668    0.1949 C.ar    1  UNL1        0.0335
     25 C           2.3831    1.2547    1.0845 C.ar    1  UNL1       -0.0399
     26 C           3.7384    1.5824    1.0252 C.ar    1  UNL1       -0.0522
     27 C           4.5705    1.0349    0.0844 C.ar    1  UNL1       -0.0159
     28 C           5.9995    1.2904   -0.0361 C.ar    1  UNL1        0.0084
     29 C           6.4701    2.0457   -1.1266 C.ar    1  UNL1       -0.0522
     30 C           7.8097    2.2923   -1.2243 C.ar    1  UNL1       -0.0611
     31 C           8.7020    1.8338   -0.3053 C.ar    1  UNL1       -0.0599
     32 C           8.2169    1.0932    0.7582 C.ar    1  UNL1       -0.0348
     33 C           6.8611    0.8108    0.9083 C.ar    1  UNL1        0.1127
     34 S           6.3587   -0.1424    2.2630 S.O2    1  UNL1        0.0565
     35 N           7.7894   -0.6255    3.1645 N.3     1  UNL1       -0.2035
     36 O           5.6580   -1.4170    1.8584 O.2     1  UNL1       -0.1532
     37 O           5.4644    0.6368    3.2128 O.2     1  UNL1       -0.1532
     38 C           3.9946    0.1307   -0.8173 C.ar    1  UNL1       -0.0522
     39 C           2.6616   -0.1950   -0.7641 C.ar    1  UNL1       -0.0399
     40 C          -4.8972    1.0604   -0.2619 C.ar    1  UNL1       -0.0348
     41 H          -8.0507    3.2735   -1.0642 H       1  UNL1        0.3633
     42 H          -7.1512   -0.5607   -1.3205 H       1  UNL1        0.2884
     43 H          -7.1062    0.0776   -3.0168 H       1  UNL1        0.2884
     44 H          -5.8951    4.0333   -1.4325 H       1  UNL1        0.0626
     45 H          -3.7611    4.6934   -0.4846 H       1  UNL1        0.0618
     46 H          -2.3320    3.0479    0.6141 H       1  UNL1        0.0625
     47 H          -1.6014   -0.9058   -1.7121 H       1  UNL1        0.0514
     48 H          -3.1605   -0.0935   -1.5496 H       1  UNL1        0.0514
     49 H          -4.7641   -1.6815   -2.5268 H       1  UNL1        0.0621
     50 H          -5.7790   -3.9632   -2.5428 H       1  UNL1        0.0618
     51 H          -4.8203   -5.7826   -1.2235 H       1  UNL1        0.0618
     52 H          -2.7926   -5.3037    0.1491 H       1  UNL1        0.0620
     53 H          -0.6082   -3.0020   -0.3735 H       1  UNL1        0.0336
     54 H          -1.2665   -3.7661    1.1231 H       1  UNL1        0.0336
     55 H          -1.7079   -1.7134    2.0628 H       1  UNL1        0.0600
     56 H          -0.2757    0.5217   -0.3084 H       1  UNL1        0.1549
     57 H           1.7487    1.6974    1.8333 H       1  UNL1        0.0636
     58 H           4.1041    2.2969    1.7239 H       1  UNL1        0.0624
     59 H           5.7883    2.4035   -1.8390 H       1  UNL1        0.0624
     60 H           8.1612    2.8814   -2.0767 H       1  UNL1        0.0618
     61 H           9.7787    2.0331   -0.3873 H       1  UNL1        0.0618
     62 H           8.9313    0.7406    1.4704 H       1  UNL1        0.0637
     63 H           8.4189    0.1629    3.3466 H       1  UNL1        0.1442
     64 H           7.5238   -1.0303    4.0857 H       1  UNL1        0.1442
     65 H           4.6456   -0.3152   -1.5769 H       1  UNL1        0.0624
     66 H           2.2386   -0.8948   -1.4700 H       1  UNL1        0.0636
     67 H          -5.2451    0.0379   -0.2133 H       1  UNL1        0.0633
@<TRIPOS>BOND
     1     1     2    2
     2     2     3    1
     3     2     4    1
     4     4     5   ar
     5     5     6   ar
     6     6     7   ar
     7     7     8   ar
     8     8     9    1
     9     9    10    2
    10     9    11   am
    11    11    12    1
    12    12    13    1
    13    13    14   ar
    14    14    15   ar
    15    15    16   ar
    16    16    17   ar
    17    17    18   ar
    18    18    19    1
    19    19    20    1
    20    20    21    1
    21    21    22    2
    22    21    23   am
    23    23    24    1
    24    24    25   ar
    25    25    26   ar
    26    26    27   ar
    27    27    28    1
    28    28    29   ar
    29    29    30   ar
    30    30    31   ar
    31    31    32   ar
    32    32    33   ar
    33    33    34    1
    34    34    35    1
    35    34    36    2
    36    34    37    2
    37    27    38   ar
    38    38    39   ar
    39     8    40   ar
    40    40     4   ar
    41    20    11    1
    42    39    24   ar
    43    18    13   ar
    44    33    28   ar
    45     1    41    1
    46     3    42    1
    47     3    43    1
    48     5    44    1
    49     6    45    1
    50     7    46    1
    51    12    47    1
    52    12    48    1
    53    14    49    1
    54    15    50    1
    55    16    51    1
    56    17    52    1
    57    19    53    1
    58    19    54    1
    59    20    55    1
    60    23    56    1
    61    25    57    1
    62    26    58    1
    63    29    59    1
    64    30    60    1
    65    31    61    1
    66    32    62    1
    67    35    63    1
    68    35    64    1
    69    38    65    1
    70    39    66    1
    71    40    67    1
