@<TRIPOS>MOLECULE
*****
 41 44 0 0 0
SMALL
GASTEIGER

@<TRIPOS>ATOM
      1 N           2.9846    1.5450    0.4764 N.pl3   1  UNL1       -0.3426
      2 C           1.6542    1.0813    0.3893 C.ar    1  UNL1        0.1250
      3 N           0.6907    1.8944    0.8113 N.ar    1  UNL1       -0.2394
      4 C          -0.6183    1.6092    0.8229 C.ar    1  UNL1        0.0385
      5 C          -0.9910    0.3647    0.3563 C.ar    1  UNL1        0.0147
      6 C          -2.3725   -0.0392    0.3274 C.ar    1  UNL1       -0.0135
      7 C          -2.7270   -1.3017    0.7733 C.ar    1  UNL1       -0.0538
      8 C          -4.0588   -1.6377    0.7247 C.ar    1  UNL1       -0.0593
      9 C          -5.0321   -0.7732    0.2548 C.ar    1  UNL1       -0.0353
     10 C          -4.6699    0.4826   -0.1875 C.ar    1  UNL1        0.1056
     11 S          -5.8299    1.6357   -0.7956 S.O2    1  UNL1        0.0560
     12 N          -6.4568    2.6362    0.4506 N.3     1  UNL1       -0.2035
     13 O          -6.9178    0.8531   -1.4956 O.2     1  UNL1       -0.1533
     14 O          -5.1654    2.4782   -1.8736 O.2     1  UNL1       -0.1533
     15 C          -3.3381    0.8346   -0.1451 C.ar    1  UNL1       -0.0276
     16 C          -0.0087   -0.4641   -0.0742 C.ar    1  UNL1        0.0323
     17 S          -0.1127   -2.1772   -0.7346 S.2     1  UNL1       -0.0953
     18 C           1.6660   -2.3575   -0.9761 C.ar    1  UNL1       -0.0153
     19 C           2.1946   -1.1365   -0.5497 C.ar    1  UNL1        0.0002
     20 C           3.6781   -0.9752   -0.6860 C.ar    1  UNL1       -0.0151
     21 C           4.5277   -1.8318   -0.0273 C.ar    1  UNL1       -0.0512
     22 C           5.8961   -1.7434   -0.1468 C.ar    1  UNL1       -0.0244
     23 C           6.4601   -0.7765   -0.9443 C.ar    1  UNL1        0.1417
     24 F           7.8127   -0.6742   -1.0740 F       1  UNL1       -0.2040
     25 C           5.6139    0.0824   -1.6053 C.ar    1  UNL1        0.0767
     26 CL          6.3364    1.3235   -2.6289 Cl      1  UNL1       -0.0806
     27 C           4.2310   -0.0049   -1.4866 C.ar    1  UNL1       -0.0328
     28 C           1.3342   -0.2235   -0.1082 C.ar    1  UNL1        0.0370
     29 H           3.6709    1.0937    1.1192 H       1  UNL1        0.1437
     30 H           3.3264    2.3494   -0.0906 H       1  UNL1        0.1437
     31 H          -1.3105    2.3328    1.1822 H       1  UNL1        0.0837
     32 H          -1.9528   -1.9722    1.1404 H       1  UNL1        0.0624
     33 H          -4.3311   -2.6319    1.0768 H       1  UNL1        0.0618
     34 H          -6.0908   -1.0720    0.2285 H       1  UNL1        0.0637
     35 H          -7.4745    2.4753    0.5357 H       1  UNL1        0.1442
     36 H          -5.9264    2.4507    1.3236 H       1  UNL1        0.1442
     37 H          -3.0549    1.8388   -0.4996 H       1  UNL1        0.0643
     38 H           2.1459   -3.2244   -1.3610 H       1  UNL1        0.0700
     39 H           4.0690   -2.6012    0.6076 H       1  UNL1        0.0624
     40 H           6.5351   -2.4256    0.3791 H       1  UNL1        0.0647
     41 H           3.6125    0.6822   -2.0342 H       1  UNL1        0.0639
@<TRIPOS>BOND
     1     1     2    1
     2     2     3   ar
     3     3     4   ar
     4     4     5   ar
     5     5     6    1
     6     6     7   ar
     7     7     8   ar
     8     8     9   ar
     9     9    10   ar
    10    10    11    1
    11    11    12    1
    12    11    13    2
    13    11    14    2
    14    10    15   ar
    15     5    16   ar
    16    16    17   ar
    17    17    18   ar
    18    18    19   ar
    19    19    20    1
    20    20    21   ar
    21    21    22   ar
    22    22    23   ar
    23    23    24    1
    24    23    25   ar
    25    25    26    1
    26    25    27   ar
    27    19    28   ar
    28    28     2   ar
    29    15     6   ar
    30    28    16   ar
    31    27    20   ar
    32     1    29    1
    33     1    30    1
    34     4    31    1
    35     7    32    1
    36     8    33    1
    37     9    34    1
    38    12    35    1
    39    12    36    1
    40    15    37    1
    41    18    38    1
    42    21    39    1
    43    22    40    1
    44    27    41    1
