
     RDKit          3D

 41 44  0  0  0  0  0  0  0  0999 V2000
    2.9846    1.5450    0.4764 N   0  0  0  0  0  0  0  0  0  0  0  0
    1.6542    1.0813    0.3893 C   0  0  0  0  0  0  0  0  0  0  0  0
    0.6907    1.8944    0.8113 N   0  0  0  0  0  0  0  0  0  0  0  0
   -0.6183    1.6092    0.8229 C   0  0  0  0  0  0  0  0  0  0  0  0
   -0.9910    0.3647    0.3563 C   0  0  0  0  0  0  0  0  0  0  0  0
   -2.3725   -0.0392    0.3274 C   0  0  0  0  0  0  0  0  0  0  0  0
   -2.7270   -1.3017    0.7733 C   0  0  0  0  0  0  0  0  0  0  0  0
   -4.0588   -1.6377    0.7247 C   0  0  0  0  0  0  0  0  0  0  0  0
   -5.0321   -0.7732    0.2548 C   0  0  0  0  0  0  0  0  0  0  0  0
   -4.6699    0.4826   -0.1875 C   0  0  0  0  0  0  0  0  0  0  0  0
   -5.8299    1.6357   -0.7956 S   0  0  0  0  0  6  0  0  0  0  0  0
   -6.4568    2.6362    0.4506 N   0  0  0  0  0  0  0  0  0  0  0  0
   -6.9178    0.8531   -1.4956 O   0  0  0  0  0  0  0  0  0  0  0  0
   -5.1654    2.4782   -1.8736 O   0  0  0  0  0  0  0  0  0  0  0  0
   -3.3381    0.8346   -0.1451 C   0  0  0  0  0  0  0  0  0  0  0  0
   -0.0087   -0.4641   -0.0742 C   0  0  0  0  0  0  0  0  0  0  0  0
   -0.1127   -2.1772   -0.7346 S   0  0  0  0  0  0  0  0  0  0  0  0
    1.6660   -2.3575   -0.9761 C   0  0  0  0  0  0  0  0  0  0  0  0
    2.1946   -1.1365   -0.5497 C   0  0  0  0  0  0  0  0  0  0  0  0
    3.6781   -0.9752   -0.6860 C   0  0  0  0  0  0  0  0  0  0  0  0
    4.5277   -1.8318   -0.0273 C   0  0  0  0  0  0  0  0  0  0  0  0
    5.8961   -1.7434   -0.1468 C   0  0  0  0  0  0  0  0  0  0  0  0
    6.4601   -0.7765   -0.9443 C   0  0  0  0  0  0  0  0  0  0  0  0
    7.8127   -0.6742   -1.0740 F   0  0  0  0  0  0  0  0  0  0  0  0
    5.6139    0.0824   -1.6053 C   0  0  0  0  0  0  0  0  0  0  0  0
    6.3364    1.3235   -2.6289 Cl  0  0  0  0  0  0  0  0  0  0  0  0
    4.2310   -0.0049   -1.4866 C   0  0  0  0  0  0  0  0  0  0  0  0
    1.3342   -0.2235   -0.1082 C   0  0  0  0  0  0  0  0  0  0  0  0
    3.6709    1.0937    1.1192 H   0  0  0  0  0  0  0  0  0  0  0  0
    3.3264    2.3494   -0.0906 H   0  0  0  0  0  0  0  0  0  0  0  0
   -1.3105    2.3328    1.1822 H   0  0  0  0  0  0  0  0  0  0  0  0
   -1.9528   -1.9722    1.1404 H   0  0  0  0  0  0  0  0  0  0  0  0
   -4.3311   -2.6319    1.0768 H   0  0  0  0  0  0  0  0  0  0  0  0
   -6.0908   -1.0720    0.2285 H   0  0  0  0  0  0  0  0  0  0  0  0
   -7.4745    2.4753    0.5357 H   0  0  0  0  0  0  0  0  0  0  0  0
   -5.9264    2.4507    1.3236 H   0  0  0  0  0  0  0  0  0  0  0  0
   -3.0549    1.8388   -0.4996 H   0  0  0  0  0  0  0  0  0  0  0  0
    2.1459   -3.2244   -1.3610 H   0  0  0  0  0  0  0  0  0  0  0  0
    4.0690   -2.6012    0.6076 H   0  0  0  0  0  0  0  0  0  0  0  0
    6.5351   -2.4256    0.3791 H   0  0  0  0  0  0  0  0  0  0  0  0
    3.6125    0.6822   -2.0342 H   0  0  0  0  0  0  0  0  0  0  0  0
  1  2  1  0
  2  3  2  0
  3  4  1  0
  4  5  2  0
  5  6  1  0
  6  7  2  0
  7  8  1  0
  8  9  2  0
  9 10  1  0
 10 11  1  0
 11 12  1  0
 11 13  2  0
 11 14  2  0
 10 15  2  0
  5 16  1  0
 16 17  1  0
 17 18  1  0
 18 19  2  0
 19 20  1  0
 20 21  2  0
 21 22  1  0
 22 23  2  0
 23 24  1  0
 23 25  1  0
 25 26  1  0
 25 27  2  0
 19 28  1  0
 28  2  1  0
 15  6  1  0
 28 16  2  0
 27 20  1  0
  1 29  1  0
  1 30  1  0
  4 31  1  0
  7 32  1  0
  8 33  1  0
  9 34  1  0
 12 35  1  0
 12 36  1  0
 15 37  1  0
 18 38  1  0
 21 39  1  0
 22 40  1  0
 27 41  1  0
M  END
$$$$
