
     RDKit          3D

 11 10  0  0  0  0  0  0  0  0999 V2000
   -1.3320    0.6608    0.2815 N   0  0  0  0  0  0  0  0  0  0  0  0
   -0.7832   -0.6249    0.0040 C   0  0  0  0  0  0  0  0  0  0  0  0
    0.6868   -0.6435   -0.1964 C   0  0  0  0  0  0  0  0  0  0  0  0
    1.4836    0.5480   -0.1146 N   0  0  0  0  0  0  0  0  0  0  0  0
    1.2194   -1.7440   -0.4424 O   0  0  0  0  0  0  0  0  0  0  0  0
   -0.7628    1.2887    0.8395 H   0  0  0  0  0  0  0  0  0  0  0  0
   -1.9591    1.0464   -0.4194 H   0  0  0  0  0  0  0  0  0  0  0  0
   -1.2084   -0.9768   -0.9588 H   0  0  0  0  0  0  0  0  0  0  0  0
   -1.0051   -1.4107    0.7593 H   0  0  0  0  0  0  0  0  0  0  0  0
    1.8031    1.3995   -0.6273 H   0  0  0  0  0  0  0  0  0  0  0  0
    1.8578    0.4565    0.8746 H   0  0  0  0  0  0  0  0  0  0  0  0
  1  2  1  0
  2  3  1  0
  3  4  1  0
  3  5  2  0
  1  6  1  0
  1  7  1  0
  2  8  1  0
  2  9  1  0
  4 10  1  0
  4 11  1  0
M  END
$$$$
