@<TRIPOS>MOLECULE
*****
 11 10 0 0 0
SMALL
GASTEIGER

@<TRIPOS>ATOM
      1 N          -1.3320    0.6608    0.2815 N.3     1  UNL1       -0.3225
      2 C          -0.7832   -0.6249    0.0040 C.3     1  UNL1        0.0705
      3 C           0.6868   -0.6435   -0.1964 C.2     1  UNL1        0.2242
      4 N           1.4836    0.5480   -0.1146 N.am    1  UNL1       -0.3283
      5 O           1.2194   -1.7440   -0.4424 O.2     1  UNL1       -0.2746
      6 H          -0.7628    1.2887    0.8395 H       1  UNL1        0.1186
      7 H          -1.9591    1.0464   -0.4194 H       1  UNL1        0.1186
      8 H          -1.2084   -0.9768   -0.9588 H       1  UNL1        0.0517
      9 H          -1.0051   -1.4107    0.7593 H       1  UNL1        0.0517
     10 H           1.8031    1.3995   -0.6273 H       1  UNL1        0.1450
     11 H           1.8578    0.4565    0.8746 H       1  UNL1        0.1450
@<TRIPOS>BOND
     1     1     2    1
     2     2     3    1
     3     3     4   am
     4     3     5    2
     5     1     6    1
     6     1     7    1
     7     2     8    1
     8     2     9    1
     9     4    10    1
    10     4    11    1
