@<TRIPOS>MOLECULE
*****
 53 57 0 0 0
SMALL
GASTEIGER

@<TRIPOS>ATOM
      1 C          -3.1176   -2.6481   -0.0601 C.3     1  UNL1       -0.0220
      2 C          -1.7136   -2.8178   -0.4429 C.ar    1  UNL1        0.0471
      3 C          -0.7226   -1.8824   -0.2755 C.ar    1  UNL1        0.0643
      4 C          -0.7535   -0.5846    0.2694 C.ar    1  UNL1        0.1324
      5 O          -1.9671   -0.1321    0.7273 O.3     1  UNL1       -0.4880
      6 C          -2.1671    1.1237    1.2905 C.3     1  UNL1        0.1021
      7 C          -2.6577    1.0314    2.7337 C.3     1  UNL1       -0.0275
      8 C          -3.1901    1.9524    0.5473 C.3     1  UNL1        0.0195
      9 C          -2.8218    2.2098   -0.8792 C.3     1  UNL1        0.0182
     10 N          -4.0880    2.6723   -1.4389 N.am    1  UNL1       -0.3149
     11 C          -5.0926    1.9256   -0.7725 C.2     1  UNL1        0.2135
     12 O          -6.2818    1.8433   -1.1472 O.2     1  UNL1       -0.2758
     13 C          -4.5225    1.2637    0.4251 C.3     1  UNL1        0.0315
     14 C           0.4363    0.0782    0.2792 C.ar    1  UNL1       -0.0113
     15 C           1.6263   -0.4583   -0.2083 C.ar    1  UNL1       -0.0094
     16 C           2.8571    0.3258   -0.1574 C.ar    1  UNL1        0.0198
     17 C           2.9478    1.7001   -0.2603 C.ar    1  UNL1        0.0571
     18 N           4.2260    2.0377   -0.1689 N.ar    1  UNL1       -0.1788
     19 N           4.9432    0.9448   -0.0137 N.ar    1  UNL1       -0.2678
     20 C           6.3865    0.9350    0.1209 C.3     1  UNL1        0.0528
     21 C           7.1619    1.7867   -0.8927 C.3     1  UNL1       -0.0286
     22 C           7.0767    2.1896    0.5523 C.3     1  UNL1       -0.0286
     23 C           4.1461   -0.1344   -0.0003 C.ar    1  UNL1        0.0335
     24 C           1.6300   -1.7264   -0.7348 C.ar    1  UNL1       -0.0259
     25 C           0.4351   -2.4376   -0.7635 C.ar    1  UNL1        0.0971
     26 N           0.1219   -3.6725   -1.2061 N.ar    1  UNL1       -0.1711
     27 N          -1.1633   -3.9099   -1.0184 N.ar    1  UNL1       -0.2704
     28 C          -1.8324   -5.1595   -1.3879 C.3     1  UNL1        0.0305
     29 H          -3.1944   -2.4008    1.0174 H       1  UNL1        0.0293
     30 H          -3.6417   -3.6149   -0.1917 H       1  UNL1        0.0293
     31 H          -3.6400   -1.9095   -0.7020 H       1  UNL1        0.0293
     32 H          -1.2595    1.7488    1.3407 H       1  UNL1        0.0733
     33 H          -1.8766    0.4938    3.2985 H       1  UNL1        0.0265
     34 H          -3.6363    0.5521    2.8123 H       1  UNL1        0.0265
     35 H          -2.6758    2.0753    3.1408 H       1  UNL1        0.0265
     36 H          -3.2503    2.9372    1.0656 H       1  UNL1        0.0356
     37 H          -2.0084    2.9293   -1.0170 H       1  UNL1        0.0466
     38 H          -2.5900    1.2160   -1.3477 H       1  UNL1        0.0466
     39 H          -4.1723    3.4039   -2.1751 H       1  UNL1        0.1487
     40 H          -4.3437    0.2062    0.1815 H       1  UNL1        0.0363
     41 H          -5.1544    1.4063    1.3253 H       1  UNL1        0.0363
     42 H           0.4572    1.0890    0.6934 H       1  UNL1        0.0660
     43 H           2.0960    2.3850   -0.3947 H       1  UNL1        0.0854
     44 H           6.8527   -0.0276    0.3712 H       1  UNL1        0.0545
     45 H           8.1102    1.3935   -1.2613 H       1  UNL1        0.0286
     46 H           6.5512    2.3384   -1.6376 H       1  UNL1        0.0286
     47 H           7.9816    2.1481    1.1662 H       1  UNL1        0.0286
     48 H           6.3892    3.0477    0.7808 H       1  UNL1        0.0286
     49 H           4.4415   -1.1836    0.1121 H       1  UNL1        0.0832
     50 H           2.5137   -2.2060   -1.1304 H       1  UNL1        0.0646
     51 H          -2.1052   -5.1679   -2.4630 H       1  UNL1        0.0473
     52 H          -2.6665   -5.3382   -0.7099 H       1  UNL1        0.0473
     53 H          -1.0817   -5.9784   -1.2143 H       1  UNL1        0.0473
@<TRIPOS>BOND
     1     1     2    1
     2     2     3   ar
     3     3     4   ar
     4     4     5    1
     5     5     6    1
     6     6     7    1
     7     6     8    1
     8     8     9    1
     9     9    10    1
    10    10    11   am
    11    11    12    2
    12    11    13    1
    13     4    14   ar
    14    14    15   ar
    15    15    16    1
    16    16    17   ar
    17    17    18   ar
    18    18    19   ar
    19    19    20    1
    20    20    21    1
    21    21    22    1
    22    19    23   ar
    23    15    24   ar
    24    24    25   ar
    25    25    26   ar
    26    26    27   ar
    27    27    28    1
    28    27     2   ar
    29    25     3   ar
    30    13     8    1
    31    23    16   ar
    32    22    20    1
    33     1    29    1
    34     1    30    1
    35     1    31    1
    36     6    32    1
    37     7    33    1
    38     7    34    1
    39     7    35    1
    40     8    36    1
    41     9    37    1
    42     9    38    1
    43    10    39    1
    44    13    40    1
    45    13    41    1
    46    14    42    1
    47    17    43    1
    48    20    44    1
    49    21    45    1
    50    21    46    1
    51    22    47    1
    52    22    48    1
    53    23    49    1
    54    24    50    1
    55    28    51    1
    56    28    52    1
    57    28    53    1
