
     RDKit          3D

 53 57  0  0  0  0  0  0  0  0999 V2000
   -3.1176   -2.6481   -0.0601 C   0  0  0  0  0  0  0  0  0  0  0  0
   -1.7136   -2.8178   -0.4429 C   0  0  0  0  0  0  0  0  0  0  0  0
   -0.7226   -1.8824   -0.2755 C   0  0  0  0  0  0  0  0  0  0  0  0
   -0.7535   -0.5846    0.2694 C   0  0  0  0  0  0  0  0  0  0  0  0
   -1.9671   -0.1321    0.7273 O   0  0  0  0  0  0  0  0  0  0  0  0
   -2.1671    1.1237    1.2905 C   0  0  2  0  0  0  0  0  0  0  0  0
   -2.6577    1.0314    2.7337 C   0  0  0  0  0  0  0  0  0  0  0  0
   -3.1901    1.9524    0.5473 C   0  0  1  0  0  0  0  0  0  0  0  0
   -2.8218    2.2098   -0.8792 C   0  0  0  0  0  0  0  0  0  0  0  0
   -4.0880    2.6723   -1.4389 N   0  0  0  0  0  0  0  0  0  0  0  0
   -5.0926    1.9256   -0.7725 C   0  0  0  0  0  0  0  0  0  0  0  0
   -6.2818    1.8433   -1.1472 O   0  0  0  0  0  0  0  0  0  0  0  0
   -4.5225    1.2637    0.4251 C   0  0  0  0  0  0  0  0  0  0  0  0
    0.4363    0.0782    0.2792 C   0  0  0  0  0  0  0  0  0  0  0  0
    1.6263   -0.4583   -0.2083 C   0  0  0  0  0  0  0  0  0  0  0  0
    2.8571    0.3258   -0.1574 C   0  0  0  0  0  0  0  0  0  0  0  0
    2.9478    1.7001   -0.2603 C   0  0  0  0  0  0  0  0  0  0  0  0
    4.2260    2.0377   -0.1689 N   0  0  0  0  0  0  0  0  0  0  0  0
    4.9432    0.9448   -0.0137 N   0  0  0  0  0  0  0  0  0  0  0  0
    6.3865    0.9350    0.1209 C   0  0  0  0  0  0  0  0  0  0  0  0
    7.1619    1.7867   -0.8927 C   0  0  0  0  0  0  0  0  0  0  0  0
    7.0767    2.1896    0.5523 C   0  0  0  0  0  0  0  0  0  0  0  0
    4.1461   -0.1344   -0.0003 C   0  0  0  0  0  0  0  0  0  0  0  0
    1.6300   -1.7264   -0.7348 C   0  0  0  0  0  0  0  0  0  0  0  0
    0.4351   -2.4376   -0.7635 C   0  0  0  0  0  0  0  0  0  0  0  0
    0.1219   -3.6725   -1.2061 N   0  0  0  0  0  0  0  0  0  0  0  0
   -1.1633   -3.9099   -1.0184 N   0  0  0  0  0  0  0  0  0  0  0  0
   -1.8324   -5.1595   -1.3879 C   0  0  0  0  0  0  0  0  0  0  0  0
   -3.1944   -2.4008    1.0174 H   0  0  0  0  0  0  0  0  0  0  0  0
   -3.6417   -3.6149   -0.1917 H   0  0  0  0  0  0  0  0  0  0  0  0
   -3.6400   -1.9095   -0.7020 H   0  0  0  0  0  0  0  0  0  0  0  0
   -1.2595    1.7488    1.3407 H   0  0  0  0  0  0  0  0  0  0  0  0
   -1.8766    0.4938    3.2985 H   0  0  0  0  0  0  0  0  0  0  0  0
   -3.6363    0.5521    2.8123 H   0  0  0  0  0  0  0  0  0  0  0  0
   -2.6758    2.0753    3.1408 H   0  0  0  0  0  0  0  0  0  0  0  0
   -3.2503    2.9372    1.0656 H   0  0  0  0  0  0  0  0  0  0  0  0
   -2.0084    2.9293   -1.0170 H   0  0  0  0  0  0  0  0  0  0  0  0
   -2.5900    1.2160   -1.3477 H   0  0  0  0  0  0  0  0  0  0  0  0
   -4.1723    3.4039   -2.1751 H   0  0  0  0  0  0  0  0  0  0  0  0
   -4.3437    0.2062    0.1815 H   0  0  0  0  0  0  0  0  0  0  0  0
   -5.1544    1.4063    1.3253 H   0  0  0  0  0  0  0  0  0  0  0  0
    0.4572    1.0890    0.6934 H   0  0  0  0  0  0  0  0  0  0  0  0
    2.0960    2.3850   -0.3947 H   0  0  0  0  0  0  0  0  0  0  0  0
    6.8527   -0.0276    0.3712 H   0  0  0  0  0  0  0  0  0  0  0  0
    8.1102    1.3935   -1.2613 H   0  0  0  0  0  0  0  0  0  0  0  0
    6.5512    2.3384   -1.6376 H   0  0  0  0  0  0  0  0  0  0  0  0
    7.9816    2.1481    1.1662 H   0  0  0  0  0  0  0  0  0  0  0  0
    6.3892    3.0477    0.7808 H   0  0  0  0  0  0  0  0  0  0  0  0
    4.4415   -1.1836    0.1121 H   0  0  0  0  0  0  0  0  0  0  0  0
    2.5137   -2.2060   -1.1304 H   0  0  0  0  0  0  0  0  0  0  0  0
   -2.1052   -5.1679   -2.4630 H   0  0  0  0  0  0  0  0  0  0  0  0
   -2.6665   -5.3382   -0.7099 H   0  0  0  0  0  0  0  0  0  0  0  0
   -1.0817   -5.9784   -1.2143 H   0  0  0  0  0  0  0  0  0  0  0  0
  1  2  1  0
  2  3  2  0
  3  4  1  0
  4  5  1  0
  5  6  1  0
  6  7  1  0
  6  8  1  0
  8  9  1  0
  9 10  1  0
 10 11  1  0
 11 12  2  0
 11 13  1  0
  4 14  2  0
 14 15  1  0
 15 16  1  0
 16 17  1  0
 17 18  2  0
 18 19  1  0
 19 20  1  0
 20 21  1  0
 21 22  1  0
 19 23  1  0
 15 24  2  0
 24 25  1  0
 25 26  2  0
 26 27  1  0
 27 28  1  0
 27  2  1  0
 25  3  1  0
 13  8  1  0
 23 16  2  0
 22 20  1  0
  1 29  1  0
  1 30  1  0
  1 31  1  0
  6 32  1  1
  7 33  1  0
  7 34  1  0
  7 35  1  0
  8 36  1  1
  9 37  1  0
  9 38  1  0
 10 39  1  0
 13 40  1  0
 13 41  1  0
 14 42  1  0
 17 43  1  0
 20 44  1  0
 21 45  1  0
 21 46  1  0
 22 47  1  0
 22 48  1  0
 23 49  1  0
 24 50  1  0
 28 51  1  0
 28 52  1  0
 28 53  1  0
M  END
$$$$
