
     RDKit          3D

 66 71  0  0  0  0  0  0  0  0999 V2000
    2.5057    2.1125   -0.6087 O   0  0  0  0  0  0  0  0  0  0  0  0
    3.0662    0.9870   -0.7268 C   0  0  0  0  0  0  0  0  0  0  0  0
    4.3777    0.8143   -0.8502 N   0  0  0  0  0  0  0  0  0  0  0  0
    5.4580    1.7625   -0.8819 C   0  0  0  0  0  0  0  0  0  0  0  0
    6.0147    2.0405    0.5071 C   0  0  1  0  0  0  0  0  0  0  0  0
    7.0588    2.9605    0.4509 O   0  0  0  0  0  0  0  0  0  0  0  0
    4.9112    2.5005    1.4453 C   0  0  0  0  0  0  0  0  0  0  0  0
    5.4040    2.6659    2.7379 O   0  0  0  0  0  0  0  0  0  0  0  0
    4.5742   -0.5345   -0.9510 C   0  0  0  0  0  0  0  0  0  0  0  0
    5.7204   -1.2955   -1.0963 C   0  0  0  0  0  0  0  0  0  0  0  0
    5.5998   -2.6697   -1.1709 C   0  0  0  0  0  0  0  0  0  0  0  0
    4.3559   -3.2584   -1.1007 C   0  0  0  0  0  0  0  0  0  0  0  0
    3.2121   -2.5074   -0.9563 C   0  0  0  0  0  0  0  0  0  0  0  0
    3.3367   -1.1347   -0.8821 C   0  0  0  0  0  0  0  0  0  0  0  0
    2.3938   -0.1873   -0.7422 N   0  0  0  0  0  0  0  0  0  0  0  0
    0.9903   -0.3178   -0.6317 C   0  0  0  0  0  0  0  0  0  0  0  0
    0.4645   -0.4247    0.7930 C   0  0  0  0  0  0  0  0  0  0  0  0
   -1.0493   -0.7243    0.6407 C   0  0  0  0  0  0  0  0  0  0  0  0
   -1.5617   -0.2416   -0.5684 N   0  0  0  0  0  0  0  0  0  0  0  0
   -2.7778    0.4408   -0.5187 C   0  0  0  0  0  0  0  0  0  0  0  0
   -4.0214   -0.2770   -0.2058 C   0  0  1  0  0  0  0  0  0  0  0  0
   -4.1266   -0.9588    1.1163 C   0  0  1  0  0  0  0  0  0  0  0  0
   -4.2670    0.0379    2.2457 C   0  0  0  0  0  0  0  0  0  0  0  0
   -5.6585    0.6281    2.1436 C   0  0  0  0  0  0  0  0  0  0  0  0
   -6.1558    0.0082    0.8656 C   0  0  2  0  0  0  0  0  0  0  0  0
   -5.6081   -1.4103    1.0223 C   0  0  0  0  0  0  0  0  0  0  0  0
   -5.2740    0.5516   -0.2476 C   0  0  0  0  0  0  0  0  0  0  0  0
   -5.3412    1.9796   -0.4789 C   0  0  0  0  0  0  0  0  0  0  0  0
   -5.8796    0.9766   -1.5288 C   0  0  0  0  0  0  0  0  0  0  0  0
   -1.0980   -0.7999   -1.7784 C   0  0  0  0  0  0  0  0  0  0  0  0
    0.3142   -1.3632   -1.4447 C   0  0  0  0  0  0  0  0  0  0  0  0
    6.2877    1.3240   -1.4710 H   0  0  0  0  0  0  0  0  0  0  0  0
    5.1777    2.7071   -1.3958 H   0  0  0  0  0  0  0  0  0  0  0  0
    6.4239    1.1034    0.9357 H   0  0  0  0  0  0  0  0  0  0  0  0
    7.9415    2.5510    0.6955 H   0  0  0  0  0  0  0  0  0  0  0  0
    4.4184    3.4199    1.1218 H   0  0  0  0  0  0  0  0  0  0  0  0
    4.1863    1.6454    1.5148 H   0  0  0  0  0  0  0  0  0  0  0  0
    6.0624    1.9366    2.9554 H   0  0  0  0  0  0  0  0  0  0  0  0
    6.6687   -0.7866   -1.1467 H   0  0  0  0  0  0  0  0  0  0  0  0
    6.4961   -3.2719   -1.2851 H   0  0  0  0  0  0  0  0  0  0  0  0
    4.2509   -4.3330   -1.1582 H   0  0  0  0  0  0  0  0  0  0  0  0
    2.2298   -2.9358   -0.8978 H   0  0  0  0  0  0  0  0  0  0  0  0
    0.5524    0.6741   -0.9841 H   0  0  0  0  0  0  0  0  0  0  0  0
    0.9527   -1.1978    1.3840 H   0  0  0  0  0  0  0  0  0  0  0  0
    0.5778    0.5758    1.2677 H   0  0  0  0  0  0  0  0  0  0  0  0
   -1.5133   -0.2020    1.4949 H   0  0  0  0  0  0  0  0  0  0  0  0
   -1.2036   -1.8184    0.8154 H   0  0  0  0  0  0  0  0  0  0  0  0
   -2.8499    1.0809   -1.4364 H   0  0  0  0  0  0  0  0  0  0  0  0
   -2.6651    1.2368    0.2997 H   0  0  0  0  0  0  0  0  0  0  0  0
   -4.1892   -1.1023   -0.9703 H   0  0  0  0  0  0  0  0  0  0  0  0
   -3.4772   -1.7871    1.3208 H   0  0  0  0  0  0  0  0  0  0  0  0
   -3.5604    0.8888    2.1384 H   0  0  0  0  0  0  0  0  0  0  0  0
   -4.0780   -0.4264    3.2279 H   0  0  0  0  0  0  0  0  0  0  0  0
   -6.3208    0.2769    2.9719 H   0  0  0  0  0  0  0  0  0  0  0  0
   -5.6493    1.7326    2.0498 H   0  0  0  0  0  0  0  0  0  0  0  0
   -7.2047    0.0647    0.6845 H   0  0  0  0  0  0  0  0  0  0  0  0
   -5.9306   -1.8730    1.9626 H   0  0  0  0  0  0  0  0  0  0  0  0
   -5.7701   -2.0125    0.1230 H   0  0  0  0  0  0  0  0  0  0  0  0
   -6.1398    2.5766    0.0533 H   0  0  0  0  0  0  0  0  0  0  0  0
   -4.5598    2.6224   -0.8951 H   0  0  0  0  0  0  0  0  0  0  0  0
   -6.9880    0.9953   -1.6662 H   0  0  0  0  0  0  0  0  0  0  0  0
   -5.2987    0.8122   -2.4356 H   0  0  0  0  0  0  0  0  0  0  0  0
   -0.8735    0.0467   -2.4910 H   0  0  0  0  0  0  0  0  0  0  0  0
   -1.7135   -1.5623   -2.2506 H   0  0  0  0  0  0  0  0  0  0  0  0
    0.0110   -2.2271   -0.7721 H   0  0  0  0  0  0  0  0  0  0  0  0
    0.8092   -1.6713   -2.3598 H   0  0  0  0  0  0  0  0  0  0  0  0
  1  2  2  0
  2  3  1  0
  3  4  1  0
  4  5  1  0
  5  6  1  0
  5  7  1  0
  7  8  1  0
  3  9  1  0
  9 10  2  0
 10 11  1  0
 11 12  2  0
 12 13  1  0
 13 14  2  0
 14 15  1  0
 15 16  1  0
 16 17  1  0
 17 18  1  0
 18 19  1  0
 19 20  1  0
 20 21  1  0
 21 22  1  0
 22 23  1  0
 23 24  1  0
 24 25  1  0
 25 26  1  0
 25 27  1  0
 27 28  1  0
 28 29  1  0
 19 30  1  0
 30 31  1  0
 15  2  1  0
 31 16  1  0
 14  9  1  0
 27 21  1  0
 26 22  1  0
 29 27  1  0
  4 32  1  0
  4 33  1  0
  5 34  1  1
  6 35  1  0
  7 36  1  0
  7 37  1  0
  8 38  1  0
 10 39  1  0
 11 40  1  0
 12 41  1  0
 13 42  1  0
 16 43  1  0
 17 44  1  0
 17 45  1  0
 18 46  1  0
 18 47  1  0
 20 48  1  0
 20 49  1  0
 21 50  1  6
 22 51  1  1
 23 52  1  0
 23 53  1  0
 24 54  1  0
 24 55  1  0
 25 56  1  6
 26 57  1  0
 26 58  1  0
 28 59  1  0
 28 60  1  0
 29 61  1  0
 29 62  1  0
 30 63  1  0
 30 64  1  0
 31 65  1  0
 31 66  1  0
M  END
$$$$
