@<TRIPOS>MOLECULE
*****
 66 71 0 0 0
SMALL
GASTEIGER

@<TRIPOS>ATOM
      1 O           2.5057    2.1125   -0.6087 O.2     1  UNL1       -0.2463
      2 C           3.0662    0.9870   -0.7268 C.ar    1  UNL1        0.3305
      3 N           4.3777    0.8143   -0.8502 N.ar    1  UNL1       -0.2895
      4 C           5.4580    1.7625   -0.8819 C.3     1  UNL1        0.0563
      5 C           6.0147    2.0405    0.5071 C.3     1  UNL1        0.0962
      6 O           7.0588    2.9605    0.4509 O.3     1  UNL1       -0.3878
      7 C           4.9112    2.5005    1.4453 C.3     1  UNL1        0.0718
      8 O           5.4040    2.6659    2.7379 O.3     1  UNL1       -0.3924
      9 C           4.5742   -0.5345   -0.9510 C.ar    1  UNL1        0.0700
     10 C           5.7204   -1.2955   -1.0963 C.ar    1  UNL1       -0.0360
     11 C           5.5998   -2.6697   -1.1709 C.ar    1  UNL1       -0.0597
     12 C           4.3559   -3.2584   -1.1007 C.ar    1  UNL1       -0.0597
     13 C           3.2121   -2.5074   -0.9563 C.ar    1  UNL1       -0.0360
     14 C           3.3367   -1.1347   -0.8821 C.ar    1  UNL1        0.0702
     15 N           2.3938   -0.1873   -0.7422 N.ar    1  UNL1       -0.2889
     16 C           0.9903   -0.3178   -0.6317 C.3     1  UNL1        0.0417
     17 C           0.4645   -0.4247    0.7930 C.3     1  UNL1       -0.0191
     18 C          -1.0493   -0.7243    0.6407 C.3     1  UNL1        0.0008
     19 N          -1.5617   -0.2416   -0.5684 N.3     1  UNL1       -0.3019
     20 C          -2.7778    0.4408   -0.5187 C.3     1  UNL1        0.0025
     21 C          -4.0214   -0.2770   -0.2058 C.3     1  UNL1       -0.0195
     22 C          -4.1266   -0.9588    1.1163 C.3     1  UNL1       -0.0363
     23 C          -4.2670    0.0379    2.2457 C.3     1  UNL1       -0.0496
     24 C          -5.6585    0.6281    2.1436 C.3     1  UNL1       -0.0494
     25 C          -6.1558    0.0082    0.8656 C.3     1  UNL1       -0.0348
     26 C          -5.6081   -1.4103    1.0223 C.3     1  UNL1       -0.0465
     27 C          -5.2740    0.5516   -0.2476 C.3     1  UNL1       -0.0221
     28 C          -5.3412    1.9796   -0.4789 C.3     1  UNL1       -0.0463
     29 C          -5.8796    0.9766   -1.5288 C.3     1  UNL1       -0.0463
     30 C          -1.0980   -0.7999   -1.7784 C.3     1  UNL1        0.0008
     31 C           0.3142   -1.3632   -1.4447 C.3     1  UNL1       -0.0191
     32 H           6.2877    1.3240   -1.4710 H       1  UNL1        0.0520
     33 H           5.1777    2.7071   -1.3958 H       1  UNL1        0.0520
     34 H           6.4239    1.1034    0.9357 H       1  UNL1        0.0634
     35 H           7.9415    2.5510    0.6955 H       1  UNL1        0.2100
     36 H           4.4184    3.4199    1.1218 H       1  UNL1        0.0583
     37 H           4.1863    1.6454    1.5148 H       1  UNL1        0.0583
     38 H           6.0624    1.9366    2.9554 H       1  UNL1        0.2095
     39 H           6.6687   -0.7866   -1.1467 H       1  UNL1        0.0639
     40 H           6.4961   -3.2719   -1.2851 H       1  UNL1        0.0618
     41 H           4.2509   -4.3330   -1.1582 H       1  UNL1        0.0618
     42 H           2.2298   -2.9358   -0.8978 H       1  UNL1        0.0639
     43 H           0.5524    0.6741   -0.9841 H       1  UNL1        0.0530
     44 H           0.9527   -1.1978    1.3840 H       1  UNL1        0.0298
     45 H           0.5778    0.5758    1.2677 H       1  UNL1        0.0298
     46 H          -1.5133   -0.2020    1.4949 H       1  UNL1        0.0427
     47 H          -1.2036   -1.8184    0.8154 H       1  UNL1        0.0427
     48 H          -2.8499    1.0809   -1.4364 H       1  UNL1        0.0429
     49 H          -2.6651    1.2368    0.2997 H       1  UNL1        0.0429
     50 H          -4.1892   -1.1023   -0.9703 H       1  UNL1        0.0321
     51 H          -3.4772   -1.7871    1.3208 H       1  UNL1        0.0304
     52 H          -3.5604    0.8888    2.1384 H       1  UNL1        0.0268
     53 H          -4.0780   -0.4264    3.2279 H       1  UNL1        0.0268
     54 H          -6.3208    0.2769    2.9719 H       1  UNL1        0.0268
     55 H          -5.6493    1.7326    2.0498 H       1  UNL1        0.0268
     56 H          -7.2047    0.0647    0.6845 H       1  UNL1        0.0306
     57 H          -5.9306   -1.8730    1.9626 H       1  UNL1        0.0271
     58 H          -5.7701   -2.0125    0.1230 H       1  UNL1        0.0271
     59 H          -6.1398    2.5766    0.0533 H       1  UNL1        0.0271
     60 H          -4.5598    2.6224   -0.8951 H       1  UNL1        0.0271
     61 H          -6.9880    0.9953   -1.6662 H       1  UNL1        0.0271
     62 H          -5.2987    0.8122   -2.4356 H       1  UNL1        0.0271
     63 H          -0.8735    0.0467   -2.4910 H       1  UNL1        0.0427
     64 H          -1.7135   -1.5623   -2.2506 H       1  UNL1        0.0427
     65 H           0.0110   -2.2271   -0.7721 H       1  UNL1        0.0298
     66 H           0.8092   -1.6713   -2.3598 H       1  UNL1        0.0298
@<TRIPOS>BOND
     1     1     2    2
     2     2     3   ar
     3     3     4    1
     4     4     5    1
     5     5     6    1
     6     5     7    1
     7     7     8    1
     8     3     9   ar
     9     9    10   ar
    10    10    11   ar
    11    11    12   ar
    12    12    13   ar
    13    13    14   ar
    14    14    15   ar
    15    15    16    1
    16    16    17    1
    17    17    18    1
    18    18    19    1
    19    19    20    1
    20    20    21    1
    21    21    22    1
    22    22    23    1
    23    23    24    1
    24    24    25    1
    25    25    26    1
    26    25    27    1
    27    27    28    1
    28    28    29    1
    29    19    30    1
    30    30    31    1
    31    15     2   ar
    32    31    16    1
    33    14     9   ar
    34    27    21    1
    35    26    22    1
    36    29    27    1
    37     4    32    1
    38     4    33    1
    39     5    34    1
    40     6    35    1
    41     7    36    1
    42     7    37    1
    43     8    38    1
    44    10    39    1
    45    11    40    1
    46    12    41    1
    47    13    42    1
    48    16    43    1
    49    17    44    1
    50    17    45    1
    51    18    46    1
    52    18    47    1
    53    20    48    1
    54    20    49    1
    55    21    50    1
    56    22    51    1
    57    23    52    1
    58    23    53    1
    59    24    54    1
    60    24    55    1
    61    25    56    1
    62    26    57    1
    63    26    58    1
    64    28    59    1
    65    28    60    1
    66    29    61    1
    67    29    62    1
    68    30    63    1
    69    30    64    1
    70    31    65    1
    71    31    66    1
