@<TRIPOS>MOLECULE
*****
 48 51 0 0 0
SMALL
GASTEIGER

@<TRIPOS>ATOM
      1 O          -6.4540    2.0503    0.0978 O.3     1  UNL1       -0.3917
      2 C          -6.8488    0.7364   -0.2185 C.3     1  UNL1        0.0576
      3 C          -6.2134    0.4181   -1.5537 C.3     1  UNL1       -0.0140
      4 C          -4.7289    0.1900   -1.3010 C.3     1  UNL1        0.0013
      5 N          -4.5140   -1.0641   -0.6025 N.3     1  UNL1       -0.2989
      6 C          -3.2719   -1.0487    0.1074 C.3     1  UNL1        0.0331
      7 C          -2.0762   -1.0351   -0.8607 C.3     1  UNL1        0.1022
      8 O          -0.9030   -1.0214   -0.3399 O.3     1  UNL1       -0.4907
      9 C           0.2761   -0.9965    0.1906 C.ar    1  UNL1        0.1208
     10 C           1.2387   -1.9988   -0.0331 C.ar    1  UNL1       -0.0165
     11 C           2.4872   -1.9715    0.5293 C.ar    1  UNL1       -0.0158
     12 C           2.8665   -0.9370    1.3594 C.ar    1  UNL1        0.1311
     13 O           4.1276   -0.9003    1.9330 O.3     1  UNL1       -0.4326
     14 C           5.2277   -0.2564    1.3121 C.ar    1  UNL1        0.2627
     15 N           6.3486    0.0081    1.3953 N.ar    1  UNL1       -0.2057
     16 C           7.1506    0.6668    0.5972 C.ar    1  UNL1        0.0820
     17 C           8.4999    0.9605    0.7440 C.ar    1  UNL1       -0.0351
     18 C           9.1503    1.6792   -0.2391 C.ar    1  UNL1       -0.0597
     19 C           8.5673    2.1451   -1.3850 C.ar    1  UNL1       -0.0606
     20 C           7.2318    1.8697   -1.5582 C.ar    1  UNL1       -0.0458
     21 C           6.5570    1.1326   -0.5539 C.ar    1  UNL1        0.0425
     22 S           4.8609    0.5745   -0.3919 S.2     1  UNL1       -0.0290
     23 C           1.9455    0.0607    1.5985 C.ar    1  UNL1       -0.0158
     24 C           0.6969    0.0402    1.0403 C.ar    1  UNL1       -0.0165
     25 C          -5.6025   -1.4060    0.2600 C.3     1  UNL1        0.0013
     26 C          -6.3362   -0.2147    0.8064 C.3     1  UNL1       -0.0140
     27 H          -6.9761    2.3880    0.8681 H       1  UNL1        0.2098
     28 H          -7.9699    0.7094   -0.3106 H       1  UNL1        0.0594
     29 H          -6.6925   -0.4772   -1.9829 H       1  UNL1        0.0302
     30 H          -6.2862    1.3042   -2.2160 H       1  UNL1        0.0302
     31 H          -4.3963    1.0202   -0.6454 H       1  UNL1        0.0427
     32 H          -4.1440    0.2566   -2.2357 H       1  UNL1        0.0427
     33 H          -3.1519   -1.8889    0.7889 H       1  UNL1        0.0460
     34 H          -3.2068   -0.0855    0.6566 H       1  UNL1        0.0460
     35 H          -2.2360   -1.9759   -1.4975 H       1  UNL1        0.0709
     36 H          -2.2550   -0.1928   -1.6121 H       1  UNL1        0.0709
     37 H           0.9134   -2.8051   -0.6928 H       1  UNL1        0.0655
     38 H           3.2124   -2.7610    0.3384 H       1  UNL1        0.0655
     39 H           9.0971    0.6602    1.5945 H       1  UNL1        0.0639
     40 H          10.2210    1.9088   -0.1160 H       1  UNL1        0.0618
     41 H           9.0997    2.6923   -2.1145 H       1  UNL1        0.0618
     42 H           6.6607    2.1898   -2.4318 H       1  UNL1        0.0629
     43 H           2.2709    0.8676    2.2593 H       1  UNL1        0.0655
     44 H          -0.0259    0.8178    1.2244 H       1  UNL1        0.0655
     45 H          -5.1547   -1.9244    1.1582 H       1  UNL1        0.0427
     46 H          -6.3305   -2.1127   -0.2083 H       1  UNL1        0.0427
     47 H          -5.7271    0.3538    1.5472 H       1  UNL1        0.0302
     48 H          -7.2059   -0.6269    1.3962 H       1  UNL1        0.0302
@<TRIPOS>BOND
     1     1     2    1
     2     2     3    1
     3     3     4    1
     4     4     5    1
     5     5     6    1
     6     6     7    1
     7     7     8    1
     8     8     9    1
     9     9    10   ar
    10    10    11   ar
    11    11    12   ar
    12    12    13    1
    13    13    14    1
    14    14    15   ar
    15    15    16   ar
    16    16    17   ar
    17    17    18   ar
    18    18    19   ar
    19    19    20   ar
    20    20    21   ar
    21    21    22   ar
    22    12    23   ar
    23    23    24   ar
    24     5    25    1
    25    25    26    1
    26    26     2    1
    27    24     9   ar
    28    22    14   ar
    29    21    16   ar
    30     1    27    1
    31     2    28    1
    32     3    29    1
    33     3    30    1
    34     4    31    1
    35     4    32    1
    36     6    33    1
    37     6    34    1
    38     7    35    1
    39     7    36    1
    40    10    37    1
    41    11    38    1
    42    17    39    1
    43    18    40    1
    44    19    41    1
    45    20    42    1
    46    23    43    1
    47    24    44    1
    48    25    45    1
    49    25    46    1
    50    26    47    1
    51    26    48    1
