
     RDKit          3D

 48 51  0  0  0  0  0  0  0  0999 V2000
   -6.4540    2.0503    0.0978 O   0  0  0  0  0  0  0  0  0  0  0  0
   -6.8488    0.7364   -0.2185 C   0  0  0  0  0  0  0  0  0  0  0  0
   -6.2134    0.4181   -1.5537 C   0  0  0  0  0  0  0  0  0  0  0  0
   -4.7289    0.1900   -1.3010 C   0  0  0  0  0  0  0  0  0  0  0  0
   -4.5140   -1.0641   -0.6025 N   0  0  0  0  0  0  0  0  0  0  0  0
   -3.2719   -1.0487    0.1074 C   0  0  0  0  0  0  0  0  0  0  0  0
   -2.0762   -1.0351   -0.8607 C   0  0  0  0  0  0  0  0  0  0  0  0
   -0.9030   -1.0214   -0.3399 O   0  0  0  0  0  0  0  0  0  0  0  0
    0.2761   -0.9965    0.1906 C   0  0  0  0  0  0  0  0  0  0  0  0
    1.2387   -1.9988   -0.0331 C   0  0  0  0  0  0  0  0  0  0  0  0
    2.4872   -1.9715    0.5293 C   0  0  0  0  0  0  0  0  0  0  0  0
    2.8665   -0.9370    1.3594 C   0  0  0  0  0  0  0  0  0  0  0  0
    4.1276   -0.9003    1.9330 O   0  0  0  0  0  0  0  0  0  0  0  0
    5.2277   -0.2564    1.3121 C   0  0  0  0  0  0  0  0  0  0  0  0
    6.3486    0.0081    1.3953 N   0  0  0  0  0  0  0  0  0  0  0  0
    7.1506    0.6668    0.5972 C   0  0  0  0  0  0  0  0  0  0  0  0
    8.4999    0.9605    0.7440 C   0  0  0  0  0  0  0  0  0  0  0  0
    9.1503    1.6792   -0.2391 C   0  0  0  0  0  0  0  0  0  0  0  0
    8.5673    2.1451   -1.3850 C   0  0  0  0  0  0  0  0  0  0  0  0
    7.2318    1.8697   -1.5582 C   0  0  0  0  0  0  0  0  0  0  0  0
    6.5570    1.1326   -0.5539 C   0  0  0  0  0  0  0  0  0  0  0  0
    4.8609    0.5745   -0.3919 S   0  0  0  0  0  0  0  0  0  0  0  0
    1.9455    0.0607    1.5985 C   0  0  0  0  0  0  0  0  0  0  0  0
    0.6969    0.0402    1.0403 C   0  0  0  0  0  0  0  0  0  0  0  0
   -5.6025   -1.4060    0.2600 C   0  0  0  0  0  0  0  0  0  0  0  0
   -6.3362   -0.2147    0.8064 C   0  0  0  0  0  0  0  0  0  0  0  0
   -6.9761    2.3880    0.8681 H   0  0  0  0  0  0  0  0  0  0  0  0
   -7.9699    0.7094   -0.3106 H   0  0  0  0  0  0  0  0  0  0  0  0
   -6.6925   -0.4772   -1.9829 H   0  0  0  0  0  0  0  0  0  0  0  0
   -6.2862    1.3042   -2.2160 H   0  0  0  0  0  0  0  0  0  0  0  0
   -4.3963    1.0202   -0.6454 H   0  0  0  0  0  0  0  0  0  0  0  0
   -4.1440    0.2566   -2.2357 H   0  0  0  0  0  0  0  0  0  0  0  0
   -3.1519   -1.8889    0.7889 H   0  0  0  0  0  0  0  0  0  0  0  0
   -3.2068   -0.0855    0.6566 H   0  0  0  0  0  0  0  0  0  0  0  0
   -2.2360   -1.9759   -1.4975 H   0  0  0  0  0  0  0  0  0  0  0  0
   -2.2550   -0.1928   -1.6121 H   0  0  0  0  0  0  0  0  0  0  0  0
    0.9134   -2.8051   -0.6928 H   0  0  0  0  0  0  0  0  0  0  0  0
    3.2124   -2.7610    0.3384 H   0  0  0  0  0  0  0  0  0  0  0  0
    9.0971    0.6602    1.5945 H   0  0  0  0  0  0  0  0  0  0  0  0
   10.2210    1.9088   -0.1160 H   0  0  0  0  0  0  0  0  0  0  0  0
    9.0997    2.6923   -2.1145 H   0  0  0  0  0  0  0  0  0  0  0  0
    6.6607    2.1898   -2.4318 H   0  0  0  0  0  0  0  0  0  0  0  0
    2.2709    0.8676    2.2593 H   0  0  0  0  0  0  0  0  0  0  0  0
   -0.0259    0.8178    1.2244 H   0  0  0  0  0  0  0  0  0  0  0  0
   -5.1547   -1.9244    1.1582 H   0  0  0  0  0  0  0  0  0  0  0  0
   -6.3305   -2.1127   -0.2083 H   0  0  0  0  0  0  0  0  0  0  0  0
   -5.7271    0.3538    1.5472 H   0  0  0  0  0  0  0  0  0  0  0  0
   -7.2059   -0.6269    1.3962 H   0  0  0  0  0  0  0  0  0  0  0  0
  1  2  1  0
  2  3  1  0
  3  4  1  0
  4  5  1  0
  5  6  1  0
  6  7  1  0
  7  8  1  0
  8  9  1  0
  9 10  2  0
 10 11  1  0
 11 12  2  0
 12 13  1  0
 13 14  1  0
 14 15  2  0
 15 16  1  0
 16 17  2  0
 17 18  1  0
 18 19  2  0
 19 20  1  0
 20 21  2  0
 21 22  1  0
 12 23  1  0
 23 24  2  0
  5 25  1  0
 25 26  1  0
 26  2  1  0
 24  9  1  0
 22 14  1  0
 21 16  1  0
  1 27  1  0
  2 28  1  0
  3 29  1  0
  3 30  1  0
  4 31  1  0
  4 32  1  0
  6 33  1  0
  6 34  1  0
  7 35  1  0
  7 36  1  0
 10 37  1  0
 11 38  1  0
 17 39  1  0
 18 40  1  0
 19 41  1  0
 20 42  1  0
 23 43  1  0
 24 44  1  0
 25 45  1  0
 25 46  1  0
 26 47  1  0
 26 48  1  0
M  END
$$$$
