@<TRIPOS>MOLECULE
*****
 61 65 0 0 0
SMALL
GASTEIGER

@<TRIPOS>ATOM
      1 C           7.1535   -2.0640    1.5004 C.3     1  UNL1       -0.0524
      2 C           6.2028   -1.2981    0.6341 C.3     1  UNL1       -0.0039
      3 N           5.3648   -0.3834    1.2999 N.3     1  UNL1       -0.3026
      4 C           4.3569   -0.8389    2.1381 C.3     1  UNL1       -0.0009
      5 C           2.9572   -0.6159    1.6456 C.3     1  UNL1       -0.0373
      6 C           2.8615    0.4950    0.6430 C.3     1  UNL1       -0.0371
      7 C           2.9287    0.0469   -0.7841 C.3     1  UNL1       -0.0304
      8 C           1.8369   -0.8995   -1.1937 C.3     1  UNL1        0.0440
      9 N           0.5209   -0.3136   -1.0142 N.ar    1  UNL1       -0.2460
     10 N          -0.2772   -0.3419    0.0219 N.ar    1  UNL1       -0.1733
     11 C          -1.4141    0.3213   -0.1928 C.ar    1  UNL1        0.0799
     12 C          -2.5578    0.5061    0.7715 C.3     1  UNL1        0.0179
     13 C          -3.7095   -0.3264    0.3439 C.ar    1  UNL1       -0.0338
     14 C          -3.4499   -1.5433   -0.2862 C.ar    1  UNL1       -0.0576
     15 C          -4.4532   -2.3453   -0.7761 C.ar    1  UNL1       -0.0609
     16 C          -5.7801   -1.9016   -0.6231 C.ar    1  UNL1       -0.0540
     17 C          -6.0631   -0.7188   -0.0104 C.ar    1  UNL1       -0.0176
     18 C          -7.3968   -0.3440    0.1353 C.ar    1  UNL1       -0.0540
     19 C          -7.7018    0.8440    0.7797 C.ar    1  UNL1       -0.0612
     20 C          -6.6527    1.6197    1.2578 C.ar    1  UNL1       -0.0612
     21 C          -5.3264    1.2509    1.1143 C.ar    1  UNL1       -0.0538
     22 C          -5.0334    0.0661    0.4714 C.ar    1  UNL1       -0.0143
     23 C          -1.3432    0.8146   -1.4685 C.ar    1  UNL1        0.0815
     24 C          -2.2024    1.5659   -2.2707 C.ar    1  UNL1        0.1305
     25 N          -3.4318    1.9662   -1.7273 N.pl3   1  UNL1       -0.3425
     26 N          -1.7861    1.8548   -3.5070 N.ar    1  UNL1       -0.2204
     27 C          -0.5914    1.4461   -3.9721 C.ar    1  UNL1        0.1204
     28 N           0.2706    0.7214   -3.2369 N.ar    1  UNL1       -0.2162
     29 C          -0.1208    0.4079   -1.9730 C.ar    1  UNL1        0.1635
     30 C           3.9613    1.4910    0.9504 C.3     1  UNL1       -0.0373
     31 C           5.3297    0.8829    0.7100 C.3     1  UNL1       -0.0009
     32 H           6.7728   -3.0771    1.7768 H       1  UNL1        0.0242
     33 H           8.0893   -2.2509    0.9004 H       1  UNL1        0.0242
     34 H           7.4583   -1.4704    2.3806 H       1  UNL1        0.0242
     35 H           5.5693   -2.0524    0.1124 H       1  UNL1        0.0424
     36 H           6.8090   -0.8008   -0.1816 H       1  UNL1        0.0424
     37 H           4.4865   -0.3681    3.1476 H       1  UNL1        0.0427
     38 H           4.4570   -1.9595    2.2416 H       1  UNL1        0.0427
     39 H           2.4552   -1.5611    1.3207 H       1  UNL1        0.0280
     40 H           2.3389   -0.3044    2.5494 H       1  UNL1        0.0280
     41 H           1.9037    1.0867    0.7948 H       1  UNL1        0.0302
     42 H           3.8944   -0.5166   -0.9345 H       1  UNL1        0.0286
     43 H           2.8931    0.9002   -1.5014 H       1  UNL1        0.0286
     44 H           2.0110   -1.2147   -2.2451 H       1  UNL1        0.0509
     45 H           1.8920   -1.8032   -0.5652 H       1  UNL1        0.0509
     46 H          -2.7818    1.5750    0.8851 H       1  UNL1        0.0378
     47 H          -2.1997    0.1284    1.7460 H       1  UNL1        0.0378
     48 H          -2.4288   -1.8693   -0.3988 H       1  UNL1        0.0621
     49 H          -4.2228   -3.2774   -1.2615 H       1  UNL1        0.0618
     50 H          -6.5692   -2.5388   -1.0130 H       1  UNL1        0.0624
     51 H          -8.2228   -0.9470   -0.2373 H       1  UNL1        0.0624
     52 H          -8.7469    1.1190    0.8853 H       1  UNL1        0.0618
     53 H          -6.9540    2.5355    1.7552 H       1  UNL1        0.0618
     54 H          -4.5811    1.9080    1.5205 H       1  UNL1        0.0624
     55 H          -4.3387    1.5097   -1.9191 H       1  UNL1        0.1437
     56 H          -3.4219    2.7901   -1.0812 H       1  UNL1        0.1437
     57 H          -0.3231    1.7206   -4.9864 H       1  UNL1        0.1048
     58 H           3.8799    2.3520    0.2587 H       1  UNL1        0.0280
     59 H           3.8557    1.8929    1.9728 H       1  UNL1        0.0280
     60 H           6.0668    1.6321    1.0897 H       1  UNL1        0.0427
     61 H           5.5049    0.8075   -0.3941 H       1  UNL1        0.0427
@<TRIPOS>BOND
     1     1     2    1
     2     2     3    1
     3     3     4    1
     4     4     5    1
     5     5     6    1
     6     6     7    1
     7     7     8    1
     8     8     9    1
     9     9    10   ar
    10    10    11   ar
    11    11    12    1
    12    12    13    1
    13    13    14   ar
    14    14    15   ar
    15    15    16   ar
    16    16    17   ar
    17    17    18   ar
    18    18    19   ar
    19    19    20   ar
    20    20    21   ar
    21    21    22   ar
    22    11    23   ar
    23    23    24   ar
    24    24    25    1
    25    24    26   ar
    26    26    27   ar
    27    27    28   ar
    28    28    29   ar
    29     6    30    1
    30    30    31    1
    31    31     3    1
    32    29     9   ar
    33    22    13   ar
    34    29    23   ar
    35    22    17   ar
    36     1    32    1
    37     1    33    1
    38     1    34    1
    39     2    35    1
    40     2    36    1
    41     4    37    1
    42     4    38    1
    43     5    39    1
    44     5    40    1
    45     6    41    1
    46     7    42    1
    47     7    43    1
    48     8    44    1
    49     8    45    1
    50    12    46    1
    51    12    47    1
    52    14    48    1
    53    15    49    1
    54    16    50    1
    55    18    51    1
    56    19    52    1
    57    20    53    1
    58    21    54    1
    59    25    55    1
    60    25    56    1
    61    27    57    1
    62    30    58    1
    63    30    59    1
    64    31    60    1
    65    31    61    1
