
     RDKit          3D

 61 65  0  0  0  0  0  0  0  0999 V2000
    7.1535   -2.0640    1.5004 C   0  0  0  0  0  0  0  0  0  0  0  0
    6.2028   -1.2981    0.6341 C   0  0  0  0  0  0  0  0  0  0  0  0
    5.3648   -0.3834    1.2999 N   0  0  0  0  0  0  0  0  0  0  0  0
    4.3569   -0.8389    2.1381 C   0  0  0  0  0  0  0  0  0  0  0  0
    2.9572   -0.6159    1.6456 C   0  0  0  0  0  0  0  0  0  0  0  0
    2.8615    0.4950    0.6430 C   0  0  0  0  0  0  0  0  0  0  0  0
    2.9287    0.0469   -0.7841 C   0  0  0  0  0  0  0  0  0  0  0  0
    1.8369   -0.8995   -1.1937 C   0  0  0  0  0  0  0  0  0  0  0  0
    0.5209   -0.3136   -1.0142 N   0  0  0  0  0  0  0  0  0  0  0  0
   -0.2772   -0.3419    0.0219 N   0  0  0  0  0  0  0  0  0  0  0  0
   -1.4141    0.3213   -0.1928 C   0  0  0  0  0  0  0  0  0  0  0  0
   -2.5578    0.5061    0.7715 C   0  0  0  0  0  0  0  0  0  0  0  0
   -3.7095   -0.3264    0.3439 C   0  0  0  0  0  0  0  0  0  0  0  0
   -3.4499   -1.5433   -0.2862 C   0  0  0  0  0  0  0  0  0  0  0  0
   -4.4532   -2.3453   -0.7761 C   0  0  0  0  0  0  0  0  0  0  0  0
   -5.7801   -1.9016   -0.6231 C   0  0  0  0  0  0  0  0  0  0  0  0
   -6.0631   -0.7188   -0.0104 C   0  0  0  0  0  0  0  0  0  0  0  0
   -7.3968   -0.3440    0.1353 C   0  0  0  0  0  0  0  0  0  0  0  0
   -7.7018    0.8440    0.7797 C   0  0  0  0  0  0  0  0  0  0  0  0
   -6.6527    1.6197    1.2578 C   0  0  0  0  0  0  0  0  0  0  0  0
   -5.3264    1.2509    1.1143 C   0  0  0  0  0  0  0  0  0  0  0  0
   -5.0334    0.0661    0.4714 C   0  0  0  0  0  0  0  0  0  0  0  0
   -1.3432    0.8146   -1.4685 C   0  0  0  0  0  0  0  0  0  0  0  0
   -2.2024    1.5659   -2.2707 C   0  0  0  0  0  0  0  0  0  0  0  0
   -3.4318    1.9662   -1.7273 N   0  0  0  0  0  0  0  0  0  0  0  0
   -1.7861    1.8548   -3.5070 N   0  0  0  0  0  0  0  0  0  0  0  0
   -0.5914    1.4461   -3.9721 C   0  0  0  0  0  0  0  0  0  0  0  0
    0.2706    0.7214   -3.2369 N   0  0  0  0  0  0  0  0  0  0  0  0
   -0.1208    0.4079   -1.9730 C   0  0  0  0  0  0  0  0  0  0  0  0
    3.9613    1.4910    0.9504 C   0  0  0  0  0  0  0  0  0  0  0  0
    5.3297    0.8829    0.7100 C   0  0  0  0  0  0  0  0  0  0  0  0
    6.7728   -3.0771    1.7768 H   0  0  0  0  0  0  0  0  0  0  0  0
    8.0893   -2.2509    0.9004 H   0  0  0  0  0  0  0  0  0  0  0  0
    7.4583   -1.4704    2.3806 H   0  0  0  0  0  0  0  0  0  0  0  0
    5.5693   -2.0524    0.1124 H   0  0  0  0  0  0  0  0  0  0  0  0
    6.8090   -0.8008   -0.1816 H   0  0  0  0  0  0  0  0  0  0  0  0
    4.4865   -0.3681    3.1476 H   0  0  0  0  0  0  0  0  0  0  0  0
    4.4570   -1.9595    2.2416 H   0  0  0  0  0  0  0  0  0  0  0  0
    2.4552   -1.5611    1.3207 H   0  0  0  0  0  0  0  0  0  0  0  0
    2.3389   -0.3044    2.5494 H   0  0  0  0  0  0  0  0  0  0  0  0
    1.9037    1.0867    0.7948 H   0  0  0  0  0  0  0  0  0  0  0  0
    3.8944   -0.5166   -0.9345 H   0  0  0  0  0  0  0  0  0  0  0  0
    2.8931    0.9002   -1.5014 H   0  0  0  0  0  0  0  0  0  0  0  0
    2.0110   -1.2147   -2.2451 H   0  0  0  0  0  0  0  0  0  0  0  0
    1.8920   -1.8032   -0.5652 H   0  0  0  0  0  0  0  0  0  0  0  0
   -2.7818    1.5750    0.8851 H   0  0  0  0  0  0  0  0  0  0  0  0
   -2.1997    0.1284    1.7460 H   0  0  0  0  0  0  0  0  0  0  0  0
   -2.4288   -1.8693   -0.3988 H   0  0  0  0  0  0  0  0  0  0  0  0
   -4.2228   -3.2774   -1.2615 H   0  0  0  0  0  0  0  0  0  0  0  0
   -6.5692   -2.5388   -1.0130 H   0  0  0  0  0  0  0  0  0  0  0  0
   -8.2228   -0.9470   -0.2373 H   0  0  0  0  0  0  0  0  0  0  0  0
   -8.7469    1.1190    0.8853 H   0  0  0  0  0  0  0  0  0  0  0  0
   -6.9540    2.5355    1.7552 H   0  0  0  0  0  0  0  0  0  0  0  0
   -4.5811    1.9080    1.5205 H   0  0  0  0  0  0  0  0  0  0  0  0
   -4.3387    1.5097   -1.9191 H   0  0  0  0  0  0  0  0  0  0  0  0
   -3.4219    2.7901   -1.0812 H   0  0  0  0  0  0  0  0  0  0  0  0
   -0.3231    1.7206   -4.9864 H   0  0  0  0  0  0  0  0  0  0  0  0
    3.8799    2.3520    0.2587 H   0  0  0  0  0  0  0  0  0  0  0  0
    3.8557    1.8929    1.9728 H   0  0  0  0  0  0  0  0  0  0  0  0
    6.0668    1.6321    1.0897 H   0  0  0  0  0  0  0  0  0  0  0  0
    5.5049    0.8075   -0.3941 H   0  0  0  0  0  0  0  0  0  0  0  0
  1  2  1  0
  2  3  1  0
  3  4  1  0
  4  5  1  0
  5  6  1  0
  6  7  1  0
  7  8  1  0
  8  9  1  0
  9 10  1  0
 10 11  2  0
 11 12  1  0
 12 13  1  0
 13 14  2  0
 14 15  1  0
 15 16  2  0
 16 17  1  0
 17 18  2  0
 18 19  1  0
 19 20  2  0
 20 21  1  0
 21 22  2  0
 11 23  1  0
 23 24  2  0
 24 25  1  0
 24 26  1  0
 26 27  2  0
 27 28  1  0
 28 29  2  0
  6 30  1  0
 30 31  1  0
 31  3  1  0
 29  9  1  0
 22 13  1  0
 29 23  1  0
 22 17  1  0
  1 32  1  0
  1 33  1  0
  1 34  1  0
  2 35  1  0
  2 36  1  0
  4 37  1  0
  4 38  1  0
  5 39  1  0
  5 40  1  0
  6 41  1  0
  7 42  1  0
  7 43  1  0
  8 44  1  0
  8 45  1  0
 12 46  1  0
 12 47  1  0
 14 48  1  0
 15 49  1  0
 16 50  1  0
 18 51  1  0
 19 52  1  0
 20 53  1  0
 21 54  1  0
 25 55  1  0
 25 56  1  0
 27 57  1  0
 30 58  1  0
 30 59  1  0
 31 60  1  0
 31 61  1  0
M  END
$$$$
