@<TRIPOS>MOLECULE
*****
 47 52 0 0 0
SMALL
GASTEIGER

@<TRIPOS>ATOM
      1 O          -2.2031   -3.4860   -1.9942 O.2     1  UNL1       -0.2656
      2 C          -1.8030   -2.4460   -1.4139 C.ar    1  UNL1        0.2748
      3 N          -0.4715   -2.1981   -1.3635 N.ar    1  UNL1       -0.3203
      4 C          -0.0115   -1.0934   -0.7497 C.ar    1  UNL1        0.0519
      5 C           1.3527   -0.8018   -0.6764 C.ar    1  UNL1       -0.0299
      6 C           1.8089    0.3344   -0.0442 C.ar    1  UNL1       -0.0159
      7 C           3.2602    0.6240    0.0208 C.ar    1  UNL1       -0.0172
      8 C           3.7130    1.9220    0.0378 C.ar    1  UNL1       -0.0534
      9 C           5.0607    2.2014    0.0976 C.ar    1  UNL1       -0.0535
     10 C           6.0100    1.1950    0.1428 C.ar    1  UNL1       -0.0178
     11 C           7.3650    1.4759    0.2028 C.ar    1  UNL1       -0.0540
     12 C           8.2318    0.4071    0.2442 C.ar    1  UNL1       -0.0612
     13 C           7.7929   -0.9007    0.2278 C.ar    1  UNL1       -0.0612
     14 C           6.4461   -1.1317    0.1681 C.ar    1  UNL1       -0.0540
     15 C           5.5132   -0.0930    0.1238 C.ar    1  UNL1       -0.0173
     16 C           4.1750   -0.3999    0.0645 C.ar    1  UNL1       -0.0463
     17 C           0.8694    1.1732    0.5135 C.ar    1  UNL1       -0.0533
     18 C          -0.4853    0.9031    0.4520 C.ar    1  UNL1       -0.0499
     19 C          -0.9292   -0.2365   -0.1830 C.ar    1  UNL1        0.0260
     20 C          -2.3045   -0.4685   -0.2210 C.ar    1  UNL1        0.1039
     21 N          -3.3643    0.1981    0.2440 N.ar    1  UNL1       -0.2269
     22 C          -4.5101   -0.4948   -0.0803 C.ar    1  UNL1        0.1408
     23 C          -5.8263   -0.0102    0.2961 C.ar    1  UNL1        0.0356
     24 C          -5.9159    1.1879    1.0034 C.ar    1  UNL1       -0.0497
     25 C          -7.1543    1.6561    1.3644 C.ar    1  UNL1       -0.0610
     26 C          -8.3149    0.9881    1.0551 C.ar    1  UNL1       -0.0603
     27 C          -8.2344   -0.1873    0.3617 C.ar    1  UNL1       -0.0427
     28 C          -6.9834   -0.6596   -0.0024 C.ar    1  UNL1        0.0516
     29 CL         -6.9863   -2.1791   -0.8911 Cl      1  UNL1       -0.0828
     30 N          -4.0886   -1.5641   -0.7357 N.ar    1  UNL1       -0.3336
     31 C          -2.7268   -1.5987   -0.8525 C.ar    1  UNL1        0.1322
     32 H           0.2371   -2.8354   -1.7868 H       1  UNL1        0.1690
     33 H           2.0244   -1.5087   -1.1378 H       1  UNL1        0.0644
     34 H           2.9914    2.7333    0.0034 H       1  UNL1        0.0624
     35 H           5.4384    3.2199    0.1120 H       1  UNL1        0.0624
     36 H           7.6969    2.5018    0.2151 H       1  UNL1        0.0624
     37 H           9.3023    0.5734    0.2918 H       1  UNL1        0.0618
     38 H           8.5001   -1.7412    0.2616 H       1  UNL1        0.0618
     39 H           6.0698   -2.1384    0.1537 H       1  UNL1        0.0624
     40 H           3.8140   -1.4185    0.0509 H       1  UNL1        0.0630
     41 H           1.2284    2.0615    1.0077 H       1  UNL1        0.0624
     42 H          -1.2278    1.5747    0.8979 H       1  UNL1        0.0625
     43 H          -5.0520    1.7713    1.2840 H       1  UNL1        0.0625
     44 H          -7.2243    2.5890    1.9151 H       1  UNL1        0.0618
     45 H          -9.2937    1.3801    1.3533 H       1  UNL1        0.0618
     46 H          -9.1297   -0.7548    0.0926 H       1  UNL1        0.0632
     47 H          -4.6608   -2.3249   -1.1403 H       1  UNL1        0.1675
@<TRIPOS>BOND
     1     1     2    2
     2     2     3   ar
     3     3     4   ar
     4     4     5   ar
     5     5     6   ar
     6     6     7    1
     7     7     8   ar
     8     8     9   ar
     9     9    10   ar
    10    10    11   ar
    11    11    12   ar
    12    12    13   ar
    13    13    14   ar
    14    14    15   ar
    15    15    16   ar
    16     6    17   ar
    17    17    18   ar
    18    18    19   ar
    19    19    20   ar
    20    20    21   ar
    21    21    22   ar
    22    22    23    1
    23    23    24   ar
    24    24    25   ar
    25    25    26   ar
    26    26    27   ar
    27    27    28   ar
    28    28    29    1
    29    22    30   ar
    30    30    31   ar
    31    31     2   ar
    32    19     4   ar
    33    31    20   ar
    34    16     7   ar
    35    28    23   ar
    36    15    10   ar
    37     3    32    1
    38     5    33    1
    39     8    34    1
    40     9    35    1
    41    11    36    1
    42    12    37    1
    43    13    38    1
    44    14    39    1
    45    16    40    1
    46    17    41    1
    47    18    42    1
    48    24    43    1
    49    25    44    1
    50    26    45    1
    51    27    46    1
    52    30    47    1
