
     RDKit          3D

 47 52  0  0  0  0  0  0  0  0999 V2000
   -2.2031   -3.4860   -1.9942 O   0  0  0  0  0  0  0  0  0  0  0  0
   -1.8030   -2.4460   -1.4139 C   0  0  0  0  0  0  0  0  0  0  0  0
   -0.4715   -2.1981   -1.3635 N   0  0  0  0  0  0  0  0  0  0  0  0
   -0.0115   -1.0934   -0.7497 C   0  0  0  0  0  0  0  0  0  0  0  0
    1.3527   -0.8018   -0.6764 C   0  0  0  0  0  0  0  0  0  0  0  0
    1.8089    0.3344   -0.0442 C   0  0  0  0  0  0  0  0  0  0  0  0
    3.2602    0.6240    0.0208 C   0  0  0  0  0  0  0  0  0  0  0  0
    3.7130    1.9220    0.0378 C   0  0  0  0  0  0  0  0  0  0  0  0
    5.0607    2.2014    0.0976 C   0  0  0  0  0  0  0  0  0  0  0  0
    6.0100    1.1950    0.1428 C   0  0  0  0  0  0  0  0  0  0  0  0
    7.3650    1.4759    0.2028 C   0  0  0  0  0  0  0  0  0  0  0  0
    8.2318    0.4071    0.2442 C   0  0  0  0  0  0  0  0  0  0  0  0
    7.7929   -0.9007    0.2278 C   0  0  0  0  0  0  0  0  0  0  0  0
    6.4461   -1.1317    0.1681 C   0  0  0  0  0  0  0  0  0  0  0  0
    5.5132   -0.0930    0.1238 C   0  0  0  0  0  0  0  0  0  0  0  0
    4.1750   -0.3999    0.0645 C   0  0  0  0  0  0  0  0  0  0  0  0
    0.8694    1.1732    0.5135 C   0  0  0  0  0  0  0  0  0  0  0  0
   -0.4853    0.9031    0.4520 C   0  0  0  0  0  0  0  0  0  0  0  0
   -0.9292   -0.2365   -0.1830 C   0  0  0  0  0  0  0  0  0  0  0  0
   -2.3045   -0.4685   -0.2210 C   0  0  0  0  0  0  0  0  0  0  0  0
   -3.3643    0.1981    0.2440 N   0  0  0  0  0  0  0  0  0  0  0  0
   -4.5101   -0.4948   -0.0803 C   0  0  0  0  0  0  0  0  0  0  0  0
   -5.8263   -0.0102    0.2961 C   0  0  0  0  0  0  0  0  0  0  0  0
   -5.9159    1.1879    1.0034 C   0  0  0  0  0  0  0  0  0  0  0  0
   -7.1543    1.6561    1.3644 C   0  0  0  0  0  0  0  0  0  0  0  0
   -8.3149    0.9881    1.0551 C   0  0  0  0  0  0  0  0  0  0  0  0
   -8.2344   -0.1873    0.3617 C   0  0  0  0  0  0  0  0  0  0  0  0
   -6.9834   -0.6596   -0.0024 C   0  0  0  0  0  0  0  0  0  0  0  0
   -6.9863   -2.1791   -0.8911 Cl  0  0  0  0  0  0  0  0  0  0  0  0
   -4.0886   -1.5641   -0.7357 N   0  0  0  0  0  0  0  0  0  0  0  0
   -2.7268   -1.5987   -0.8525 C   0  0  0  0  0  0  0  0  0  0  0  0
    0.2371   -2.8354   -1.7868 H   0  0  0  0  0  0  0  0  0  0  0  0
    2.0244   -1.5087   -1.1378 H   0  0  0  0  0  0  0  0  0  0  0  0
    2.9914    2.7333    0.0034 H   0  0  0  0  0  0  0  0  0  0  0  0
    5.4384    3.2199    0.1120 H   0  0  0  0  0  0  0  0  0  0  0  0
    7.6969    2.5018    0.2151 H   0  0  0  0  0  0  0  0  0  0  0  0
    9.3023    0.5734    0.2918 H   0  0  0  0  0  0  0  0  0  0  0  0
    8.5001   -1.7412    0.2616 H   0  0  0  0  0  0  0  0  0  0  0  0
    6.0698   -2.1384    0.1537 H   0  0  0  0  0  0  0  0  0  0  0  0
    3.8140   -1.4185    0.0509 H   0  0  0  0  0  0  0  0  0  0  0  0
    1.2284    2.0615    1.0077 H   0  0  0  0  0  0  0  0  0  0  0  0
   -1.2278    1.5747    0.8979 H   0  0  0  0  0  0  0  0  0  0  0  0
   -5.0520    1.7713    1.2840 H   0  0  0  0  0  0  0  0  0  0  0  0
   -7.2243    2.5890    1.9151 H   0  0  0  0  0  0  0  0  0  0  0  0
   -9.2937    1.3801    1.3533 H   0  0  0  0  0  0  0  0  0  0  0  0
   -9.1297   -0.7548    0.0926 H   0  0  0  0  0  0  0  0  0  0  0  0
   -4.6608   -2.3249   -1.1403 H   0  0  0  0  0  0  0  0  0  0  0  0
  1  2  2  0
  2  3  1  0
  3  4  1  0
  4  5  2  0
  5  6  1  0
  6  7  1  0
  7  8  2  0
  8  9  1  0
  9 10  2  0
 10 11  1  0
 11 12  2  0
 12 13  1  0
 13 14  2  0
 14 15  1  0
 15 16  2  0
  6 17  2  0
 17 18  1  0
 18 19  2  0
 19 20  1  0
 20 21  1  0
 21 22  2  0
 22 23  1  0
 23 24  2  0
 24 25  1  0
 25 26  2  0
 26 27  1  0
 27 28  2  0
 28 29  1  0
 22 30  1  0
 30 31  1  0
 31  2  1  0
 19  4  1  0
 31 20  2  0
 16  7  1  0
 28 23  1  0
 15 10  1  0
  3 32  1  0
  5 33  1  0
  8 34  1  0
  9 35  1  0
 11 36  1  0
 12 37  1  0
 13 38  1  0
 14 39  1  0
 16 40  1  0
 17 41  1  0
 18 42  1  0
 24 43  1  0
 25 44  1  0
 26 45  1  0
 27 46  1  0
 30 47  1  0
M  END
$$$$
