
     RDKit          3D

 41 43  0  0  0  0  0  0  0  0999 V2000
   -3.8408    3.2584   -0.5095 O   0  0  0  0  0  0  0  0  0  0  0  0
   -2.7735    2.5654    0.3290 S   0  0  0  0  0  6  0  0  0  0  0  0
   -2.5265    3.3722    1.5807 O   0  0  0  0  0  0  0  0  0  0  0  0
   -1.3631    2.3971   -0.6094 N   0  0  0  0  0  0  0  0  0  0  0  0
   -0.1663    1.7486   -0.2306 C   0  0  0  0  0  0  0  0  0  0  0  0
    1.0432    2.4496   -0.3665 C   0  0  0  0  0  0  0  0  0  0  0  0
    2.2522    1.9029   -0.0057 C   0  0  0  0  0  0  0  0  0  0  0  0
    2.3346    0.6301    0.5108 C   0  0  0  0  0  0  0  0  0  0  0  0
    3.5535    0.0835    0.8731 O   0  0  0  0  0  0  0  0  0  0  0  0
    4.3708   -0.6386    0.0477 C   0  0  0  0  0  0  0  0  0  0  0  0
    5.3242    0.0077   -0.6946 C   0  0  0  0  0  0  0  0  0  0  0  0
    6.1729   -0.6924   -1.5444 C   0  0  0  0  0  0  0  0  0  0  0  0
    6.0136   -2.0607   -1.6072 C   0  0  0  0  0  0  0  0  0  0  0  0
    5.0683   -2.7370   -0.8765 C   0  0  0  0  0  0  0  0  0  0  0  0
    4.2409   -2.0064   -0.0409 C   0  0  0  0  0  0  0  0  0  0  0  0
    1.1572   -0.0662    0.6482 C   0  0  0  0  0  0  0  0  0  0  0  0
   -0.0801    0.4777    0.2848 C   0  0  0  0  0  0  0  0  0  0  0  0
   -3.4280    0.9982    0.7114 C   0  0  0  0  0  0  0  0  0  0  0  0
   -3.1901    0.4980    1.9886 C   0  0  0  0  0  0  0  0  0  0  0  0
   -3.6861   -0.7368    2.3417 C   0  0  0  0  0  0  0  0  0  0  0  0
   -4.4178   -1.4705    1.4222 C   0  0  0  0  0  0  0  0  0  0  0  0
   -4.6708   -1.0009    0.1469 C   0  0  0  0  0  0  0  0  0  0  0  0
   -5.4604   -1.8019   -0.8328 C   0  0  0  0  0  0  0  0  0  0  0  0
   -6.1928   -0.8664   -1.5760 F   0  0  0  0  0  0  0  0  0  0  0  0
   -6.2848   -2.7006   -0.2247 F   0  0  0  0  0  0  0  0  0  0  0  0
   -4.5640   -2.3731   -1.7077 F   0  0  0  0  0  0  0  0  0  0  0  0
   -4.1566    0.2421   -0.1701 C   0  0  0  0  0  0  0  0  0  0  0  0
   -1.3469    2.8105   -1.5842 H   0  0  0  0  0  0  0  0  0  0  0  0
    0.9701    3.4604   -0.7776 H   0  0  0  0  0  0  0  0  0  0  0  0
    3.1700    2.4687   -0.1223 H   0  0  0  0  0  0  0  0  0  0  0  0
    5.4580    1.0798   -0.6534 H   0  0  0  0  0  0  0  0  0  0  0  0
    6.9336   -0.2053   -2.1410 H   0  0  0  0  0  0  0  0  0  0  0  0
    6.6552   -2.6718   -2.2617 H   0  0  0  0  0  0  0  0  0  0  0  0
    4.9757   -3.8144   -0.9549 H   0  0  0  0  0  0  0  0  0  0  0  0
    3.4769   -2.4725    0.5616 H   0  0  0  0  0  0  0  0  0  0  0  0
    1.2127   -1.0682    1.0536 H   0  0  0  0  0  0  0  0  0  0  0  0
   -0.9729   -0.1095    0.3967 H   0  0  0  0  0  0  0  0  0  0  0  0
   -2.6192    1.0816    2.6910 H   0  0  0  0  0  0  0  0  0  0  0  0
   -3.5150   -1.1549    3.3372 H   0  0  0  0  0  0  0  0  0  0  0  0
   -4.7974   -2.4432    1.7292 H   0  0  0  0  0  0  0  0  0  0  0  0
   -4.3307    0.6522   -1.1629 H   0  0  0  0  0  0  0  0  0  0  0  0
  1  2  2  0
  2  3  2  0
  2  4  1  0
  4  5  1  0
  5  6  2  0
  6  7  1  0
  7  8  2  0
  8  9  1  0
  9 10  1  0
 10 11  2  0
 11 12  1  0
 12 13  2  0
 13 14  1  0
 14 15  2  0
  8 16  1  0
 16 17  2  0
  2 18  1  0
 18 19  2  0
 19 20  1  0
 20 21  2  0
 21 22  1  0
 22 23  1  0
 23 24  1  0
 23 25  1  0
 23 26  1  0
 22 27  2  0
 17  5  1  0
 27 18  1  0
 15 10  1  0
  4 28  1  0
  6 29  1  0
  7 30  1  0
 11 31  1  0
 12 32  1  0
 13 33  1  0
 14 34  1  0
 15 35  1  0
 16 36  1  0
 17 37  1  0
 19 38  1  0
 20 39  1  0
 21 40  1  0
 27 41  1  0
M  END
$$$$
