@<TRIPOS>MOLECULE
*****
 41 43 0 0 0
SMALL
GASTEIGER

@<TRIPOS>ATOM
      1 O          -3.8408    3.2584   -0.5095 O.2     1  UNL1       -0.1500
      2 S          -2.7735    2.5654    0.3290 S.O2    1  UNL1        0.0724
      3 O          -2.5265    3.3722    1.5807 O.2     1  UNL1       -0.1500
      4 N          -1.3631    2.3971   -0.6094 N.pl3   1  UNL1       -0.2163
      5 C          -0.1663    1.7486   -0.2306 C.ar    1  UNL1        0.0483
      6 C           1.0432    2.4496   -0.3665 C.ar    1  UNL1       -0.0359
      7 C           2.2522    1.9029   -0.0057 C.ar    1  UNL1       -0.0175
      8 C           2.3346    0.6301    0.5108 C.ar    1  UNL1        0.1286
      9 O           3.5535    0.0835    0.8731 O.3     1  UNL1       -0.4560
     10 C           4.3708   -0.6386    0.0477 C.ar    1  UNL1        0.1284
     11 C           5.3242    0.0077   -0.6946 C.ar    1  UNL1       -0.0193
     12 C           6.1729   -0.6924   -1.5444 C.ar    1  UNL1       -0.0583
     13 C           6.0136   -2.0607   -1.6072 C.ar    1  UNL1       -0.0615
     14 C           5.0683   -2.7370   -0.8765 C.ar    1  UNL1       -0.0583
     15 C           4.2409   -2.0064   -0.0409 C.ar    1  UNL1       -0.0193
     16 C           1.1572   -0.0662    0.6482 C.ar    1  UNL1       -0.0175
     17 C          -0.0801    0.4777    0.2848 C.ar    1  UNL1       -0.0359
     18 C          -3.4280    0.9982    0.7114 C.ar    1  UNL1        0.1090
     19 C          -3.1901    0.4980    1.9886 C.ar    1  UNL1       -0.0351
     20 C          -3.6861   -0.7368    2.3417 C.ar    1  UNL1       -0.0594
     21 C          -4.4178   -1.4705    1.4222 C.ar    1  UNL1       -0.0500
     22 C          -4.6708   -1.0009    0.1469 C.ar    1  UNL1        0.0567
     23 C          -5.4604   -1.8019   -0.8328 C.3     1  UNL1        0.4175
     24 F          -6.1928   -0.8664   -1.5760 F       1  UNL1       -0.1659
     25 F          -6.2848   -2.7006   -0.2247 F       1  UNL1       -0.1659
     26 F          -4.5640   -2.3731   -1.7077 F       1  UNL1       -0.1659
     27 C          -4.1566    0.2421   -0.1701 C.ar    1  UNL1       -0.0234
     28 H          -1.3469    2.8105   -1.5842 H       1  UNL1        0.1737
     29 H           0.9701    3.4604   -0.7776 H       1  UNL1        0.0638
     30 H           3.1700    2.4687   -0.1223 H       1  UNL1        0.0655
     31 H           5.4580    1.0798   -0.6534 H       1  UNL1        0.0654
     32 H           6.9336   -0.2053   -2.1410 H       1  UNL1        0.0619
     33 H           6.6552   -2.6718   -2.2617 H       1  UNL1        0.0618
     34 H           4.9757   -3.8144   -0.9549 H       1  UNL1        0.0619
     35 H           3.4769   -2.4725    0.5616 H       1  UNL1        0.0654
     36 H           1.2127   -1.0682    1.0536 H       1  UNL1        0.0655
     37 H          -0.9729   -0.1095    0.3967 H       1  UNL1        0.0638
     38 H          -2.6192    1.0816    2.6910 H       1  UNL1        0.0637
     39 H          -3.5150   -1.1549    3.3372 H       1  UNL1        0.0618
     40 H          -4.7974   -2.4432    1.7292 H       1  UNL1        0.0623
     41 H          -4.3307    0.6522   -1.1629 H       1  UNL1        0.0643
@<TRIPOS>BOND
     1     1     2    2
     2     2     3    2
     3     2     4    1
     4     4     5    1
     5     5     6   ar
     6     6     7   ar
     7     7     8   ar
     8     8     9    1
     9     9    10    1
    10    10    11   ar
    11    11    12   ar
    12    12    13   ar
    13    13    14   ar
    14    14    15   ar
    15     8    16   ar
    16    16    17   ar
    17     2    18    1
    18    18    19   ar
    19    19    20   ar
    20    20    21   ar
    21    21    22   ar
    22    22    23    1
    23    23    24    1
    24    23    25    1
    25    23    26    1
    26    22    27   ar
    27    17     5   ar
    28    27    18   ar
    29    15    10   ar
    30     4    28    1
    31     6    29    1
    32     7    30    1
    33    11    31    1
    34    12    32    1
    35    13    33    1
    36    14    34    1
    37    15    35    1
    38    16    36    1
    39    17    37    1
    40    19    38    1
    41    20    39    1
    42    21    40    1
    43    27    41    1
