
     RDKit          3D

 54 56  0  0  0  0  0  0  0  0999 V2000
   -7.9563    1.4435    0.3429 C   0  0  0  0  0  0  0  0  0  0  0  0
   -6.4611    1.3209    0.2775 C   0  0  0  0  0  0  0  0  0  0  0  0
   -5.8127    1.3202   -0.9391 C   0  0  0  0  0  0  0  0  0  0  0  0
   -4.4300    1.2028   -0.9093 C   0  0  0  0  0  0  0  0  0  0  0  0
   -3.7240    1.0917    0.2610 C   0  0  0  0  0  0  0  0  0  0  0  0
   -1.9625    0.9450    0.2323 S   0  0  0  0  0  6  0  0  0  0  0  0
   -1.5457    1.6949   -1.0168 O   0  0  0  0  0  0  0  0  0  0  0  0
   -1.4136    1.5640    1.4583 O   0  0  0  0  0  0  0  0  0  0  0  0
   -1.5011   -0.7096    0.1359 N   0  0  0  0  0  0  0  0  0  0  0  0
   -1.8792   -1.6127    1.2040 C   0  0  0  0  0  0  0  0  0  0  0  0
   -0.7594   -1.2369   -0.9520 C   0  0  0  0  0  0  0  0  0  0  0  0
   -1.4543   -1.7209   -2.0815 C   0  0  0  0  0  0  0  0  0  0  0  0
   -0.7986   -2.2298   -3.1741 C   0  0  0  0  0  0  0  0  0  0  0  0
    0.5791   -2.2686   -3.1661 C   0  0  0  0  0  0  0  0  0  0  0  0
    1.2790   -1.8049   -2.0810 C   0  0  0  0  0  0  0  0  0  0  0  0
    0.6076   -1.2813   -0.9560 C   0  0  0  0  0  0  0  0  0  0  0  0
    1.3959   -0.8430    0.1187 N   0  0  0  0  0  0  0  0  0  0  0  0
    1.7317   -1.8431    1.1441 C   0  0  0  0  0  0  0  0  0  0  0  0
    2.0200    0.7320    0.3536 S   0  0  0  0  0  6  0  0  0  0  0  0
    1.4692    1.6907   -0.6263 O   0  0  0  0  0  0  0  0  0  0  0  0
    1.5743    1.1848    1.7406 O   0  0  0  0  0  0  0  0  0  0  0  0
    3.7762    0.7325    0.3604 C   0  0  0  0  0  0  0  0  0  0  0  0
    4.4645    0.9062   -0.8152 C   0  0  0  0  0  0  0  0  0  0  0  0
    5.8653    0.9118   -0.8450 C   0  0  0  0  0  0  0  0  0  0  0  0
    6.5883    0.7412    0.3172 C   0  0  0  0  0  0  0  0  0  0  0  0
    8.0863    0.7459    0.2940 C   0  0  0  0  0  0  0  0  0  0  0  0
    5.8873    0.5676    1.4922 C   0  0  0  0  0  0  0  0  0  0  0  0
    4.4871    0.5614    1.5260 C   0  0  0  0  0  0  0  0  0  0  0  0
   -4.3698    1.0932    1.4550 C   0  0  0  0  0  0  0  0  0  0  0  0
   -5.7485    1.2093    1.4463 C   0  0  0  0  0  0  0  0  0  0  0  0
   -8.2778    1.8751    1.3165 H   0  0  0  0  0  0  0  0  0  0  0  0
   -8.3087    2.1006   -0.4697 H   0  0  0  0  0  0  0  0  0  0  0  0
   -8.3525    0.4149    0.1817 H   0  0  0  0  0  0  0  0  0  0  0  0
   -6.3874    1.4082   -1.8376 H   0  0  0  0  0  0  0  0  0  0  0  0
   -3.9387    1.2046   -1.8829 H   0  0  0  0  0  0  0  0  0  0  0  0
   -2.9855   -1.6767    1.3030 H   0  0  0  0  0  0  0  0  0  0  0  0
   -1.4201   -1.2117    2.1490 H   0  0  0  0  0  0  0  0  0  0  0  0
   -1.4516   -2.6113    1.0610 H   0  0  0  0  0  0  0  0  0  0  0  0
   -2.5222   -1.6732   -2.0480 H   0  0  0  0  0  0  0  0  0  0  0  0
   -1.3114   -2.6059   -4.0497 H   0  0  0  0  0  0  0  0  0  0  0  0
    1.1514   -2.6656   -4.0149 H   0  0  0  0  0  0  0  0  0  0  0  0
    2.3534   -1.8092   -2.0172 H   0  0  0  0  0  0  0  0  0  0  0  0
    1.9274   -1.3459    2.1085 H   0  0  0  0  0  0  0  0  0  0  0  0
    0.9439   -2.6153    1.2176 H   0  0  0  0  0  0  0  0  0  0  0  0
    2.6863   -2.2974    0.8109 H   0  0  0  0  0  0  0  0  0  0  0  0
    3.9289    1.0399   -1.7262 H   0  0  0  0  0  0  0  0  0  0  0  0
    6.3875    1.0525   -1.7973 H   0  0  0  0  0  0  0  0  0  0  0  0
    8.4159    0.2910    1.2423 H   0  0  0  0  0  0  0  0  0  0  0  0
    8.4009    0.1650   -0.5868 H   0  0  0  0  0  0  0  0  0  0  0  0
    8.4863    1.7781    0.1697 H   0  0  0  0  0  0  0  0  0  0  0  0
    6.4397    0.4340    2.4026 H   0  0  0  0  0  0  0  0  0  0  0  0
    3.9553    0.4228    2.4640 H   0  0  0  0  0  0  0  0  0  0  0  0
   -3.8604    1.0076    2.4225 H   0  0  0  0  0  0  0  0  0  0  0  0
   -6.2557    1.2091    2.4147 H   0  0  0  0  0  0  0  0  0  0  0  0
  1  2  1  0
  2  3  2  0
  3  4  1  0
  4  5  2  0
  5  6  1  0
  6  7  2  0
  6  8  2  0
  6  9  1  0
  9 10  1  0
  9 11  1  0
 11 12  2  0
 12 13  1  0
 13 14  2  0
 14 15  1  0
 15 16  2  0
 16 17  1  0
 17 18  1  0
 17 19  1  0
 19 20  2  0
 19 21  2  0
 19 22  1  0
 22 23  2  0
 23 24  1  0
 24 25  2  0
 25 26  1  0
 25 27  1  0
 27 28  2  0
  5 29  1  0
 29 30  2  0
 30  2  1  0
 16 11  1  0
 28 22  1  0
  1 31  1  0
  1 32  1  0
  1 33  1  0
  3 34  1  0
  4 35  1  0
 10 36  1  0
 10 37  1  0
 10 38  1  0
 12 39  1  0
 13 40  1  0
 14 41  1  0
 15 42  1  0
 18 43  1  0
 18 44  1  0
 18 45  1  0
 23 46  1  0
 24 47  1  0
 26 48  1  0
 26 49  1  0
 26 50  1  0
 27 51  1  0
 28 52  1  0
 29 53  1  0
 30 54  1  0
M  END
$$$$
