@<TRIPOS>MOLECULE
*****
 54 56 0 0 0
SMALL
GASTEIGER

@<TRIPOS>ATOM
      1 C          -7.9563    1.4435    0.3429 C.3     1  UNL1       -0.0397
      2 C          -6.4611    1.3209    0.2775 C.ar    1  UNL1       -0.0503
      3 C          -5.8127    1.3202   -0.9391 C.ar    1  UNL1       -0.0570
      4 C          -4.4300    1.2028   -0.9093 C.ar    1  UNL1       -0.0348
      5 C          -3.7240    1.0917    0.2610 C.ar    1  UNL1        0.1087
      6 S          -1.9625    0.9450    0.2323 S.O2    1  UNL1        0.0745
      7 O          -1.5457    1.6949   -1.0168 O.2     1  UNL1       -0.1498
      8 O          -1.4136    1.5640    1.4583 O.2     1  UNL1       -0.1498
      9 N          -1.5011   -0.7096    0.1359 N.pl3   1  UNL1       -0.2042
     10 C          -1.8792   -1.6127    1.2040 C.3     1  UNL1        0.0236
     11 C          -0.7594   -1.2369   -0.9520 C.ar    1  UNL1        0.0735
     12 C          -1.4543   -1.7209   -2.0815 C.ar    1  UNL1       -0.0372
     13 C          -0.7986   -2.2298   -3.1741 C.ar    1  UNL1       -0.0598
     14 C           0.5791   -2.2686   -3.1661 C.ar    1  UNL1       -0.0598
     15 C           1.2790   -1.8049   -2.0810 C.ar    1  UNL1       -0.0372
     16 C           0.6076   -1.2813   -0.9560 C.ar    1  UNL1        0.0735
     17 N           1.3959   -0.8430    0.1187 N.pl3   1  UNL1       -0.2042
     18 C           1.7317   -1.8431    1.1441 C.3     1  UNL1        0.0236
     19 S           2.0200    0.7320    0.3536 S.O2    1  UNL1        0.0745
     20 O           1.4692    1.6907   -0.6263 O.2     1  UNL1       -0.1498
     21 O           1.5743    1.1848    1.7406 O.2     1  UNL1       -0.1498
     22 C           3.7762    0.7325    0.3604 C.ar    1  UNL1        0.1087
     23 C           4.4645    0.9062   -0.8152 C.ar    1  UNL1       -0.0348
     24 C           5.8653    0.9118   -0.8450 C.ar    1  UNL1       -0.0570
     25 C           6.5883    0.7412    0.3172 C.ar    1  UNL1       -0.0503
     26 C           8.0863    0.7459    0.2940 C.3     1  UNL1       -0.0397
     27 C           5.8873    0.5676    1.4922 C.ar    1  UNL1       -0.0570
     28 C           4.4871    0.5614    1.5260 C.ar    1  UNL1       -0.0348
     29 C          -4.3698    1.0932    1.4550 C.ar    1  UNL1       -0.0348
     30 C          -5.7485    1.2093    1.4463 C.ar    1  UNL1       -0.0570
     31 H          -8.2778    1.8751    1.3165 H       1  UNL1        0.0278
     32 H          -8.3087    2.1006   -0.4697 H       1  UNL1        0.0278
     33 H          -8.3525    0.4149    0.1817 H       1  UNL1        0.0278
     34 H          -6.3874    1.4082   -1.8376 H       1  UNL1        0.0621
     35 H          -3.9387    1.2046   -1.8829 H       1  UNL1        0.0637
     36 H          -2.9855   -1.6767    1.3030 H       1  UNL1        0.0446
     37 H          -1.4201   -1.2117    2.1490 H       1  UNL1        0.0446
     38 H          -1.4516   -2.6113    1.0610 H       1  UNL1        0.0446
     39 H          -2.5222   -1.6732   -2.0480 H       1  UNL1        0.0637
     40 H          -1.3114   -2.6059   -4.0497 H       1  UNL1        0.0618
     41 H           1.1514   -2.6656   -4.0149 H       1  UNL1        0.0618
     42 H           2.3534   -1.8092   -2.0172 H       1  UNL1        0.0637
     43 H           1.9274   -1.3459    2.1085 H       1  UNL1        0.0446
     44 H           0.9439   -2.6153    1.2176 H       1  UNL1        0.0446
     45 H           2.6863   -2.2974    0.8109 H       1  UNL1        0.0446
     46 H           3.9289    1.0399   -1.7262 H       1  UNL1        0.0637
     47 H           6.3875    1.0525   -1.7973 H       1  UNL1        0.0621
     48 H           8.4159    0.2910    1.2423 H       1  UNL1        0.0278
     49 H           8.4009    0.1650   -0.5868 H       1  UNL1        0.0278
     50 H           8.4863    1.7781    0.1697 H       1  UNL1        0.0278
     51 H           6.4397    0.4340    2.4026 H       1  UNL1        0.0621
     52 H           3.9553    0.4228    2.4640 H       1  UNL1        0.0637
     53 H          -3.8604    1.0076    2.4225 H       1  UNL1        0.0637
     54 H          -6.2557    1.2091    2.4147 H       1  UNL1        0.0621
@<TRIPOS>BOND
     1     1     2    1
     2     2     3   ar
     3     3     4   ar
     4     4     5   ar
     5     5     6    1
     6     6     7    2
     7     6     8    2
     8     6     9    1
     9     9    10    1
    10     9    11    1
    11    11    12   ar
    12    12    13   ar
    13    13    14   ar
    14    14    15   ar
    15    15    16   ar
    16    16    17    1
    17    17    18    1
    18    17    19    1
    19    19    20    2
    20    19    21    2
    21    19    22    1
    22    22    23   ar
    23    23    24   ar
    24    24    25   ar
    25    25    26    1
    26    25    27   ar
    27    27    28   ar
    28     5    29   ar
    29    29    30   ar
    30    30     2   ar
    31    16    11   ar
    32    28    22   ar
    33     1    31    1
    34     1    32    1
    35     1    33    1
    36     3    34    1
    37     4    35    1
    38    10    36    1
    39    10    37    1
    40    10    38    1
    41    12    39    1
    42    13    40    1
    43    14    41    1
    44    15    42    1
    45    18    43    1
    46    18    44    1
    47    18    45    1
    48    23    46    1
    49    24    47    1
    50    26    48    1
    51    26    49    1
    52    26    50    1
    53    27    51    1
    54    28    52    1
    55    29    53    1
    56    30    54    1
