@<TRIPOS>MOLECULE
*****
 51 52 0 0 0
SMALL
GASTEIGER

@<TRIPOS>ATOM
      1 C          -2.7203   -0.3639   -0.6610 C.3     1  UNL1       -0.0277
      2 C          -4.2273   -0.3816   -0.6209 C.3     1  UNL1       -0.0611
      3 C          -2.0607    0.7132    0.1456 C.3     1  UNL1       -0.0099
      4 C          -2.0098    2.0184   -0.5341 C.3     1  UNL1       -0.0396
      5 C          -1.3528    3.1178    0.2641 C.3     1  UNL1       -0.0621
      6 C          -3.3749    2.5080   -0.9194 C.3     1  UNL1       -0.0621
      7 C          -0.6952    0.1024    0.3065 C.ar    1  UNL1       -0.0394
      8 C          -0.7578   -1.2663    0.2195 C.ar    1  UNL1       -0.0377
      9 C           0.3096   -2.1158    0.3140 C.ar    1  UNL1       -0.0542
     10 C           1.5491   -1.5391    0.5139 C.ar    1  UNL1       -0.0397
     11 C           2.7248   -2.4265    0.6076 C.3     1  UNL1       -0.0390
     12 C           1.7302   -0.1777    0.6172 C.ar    1  UNL1        0.0206
     13 C           0.5819    0.5753    0.5059 C.ar    1  UNL1       -0.0473
     14 C           2.9852    0.5138    0.8415 C.2     1  UNL1        0.1639
     15 O           2.9448    1.7934    0.8838 O.2     1  UNL1       -0.2920
     16 C           4.3817    0.2008    1.0504 C.3     1  UNL1        0.0205
     17 C           5.2637    0.3000   -0.1740 C.3     1  UNL1        0.0518
     18 C           5.2935    1.6602   -0.7703 C.2     1  UNL1        0.3051
     19 O           6.1118    1.6563   -1.8793 O.3     1  UNL1       -0.4806
     20 O           4.8195    2.8373   -0.6079 O.2     1  UNL1       -0.2510
     21 C          -2.1746   -1.6134    0.0191 C.3     1  UNL1       -0.0065
     22 C          -2.7692   -1.8020    1.4012 C.3     1  UNL1       -0.0555
     23 C          -2.3511   -2.8448   -0.8124 C.3     1  UNL1       -0.0555
     24 H          -2.3190   -0.3563   -1.6768 H       1  UNL1        0.0312
     25 H          -4.6758    0.4075   -0.0154 H       1  UNL1        0.0233
     26 H          -4.5946   -0.2885   -1.6605 H       1  UNL1        0.0233
     27 H          -4.5882   -1.4047   -0.2919 H       1  UNL1        0.0233
     28 H          -2.4548    0.7766    1.1801 H       1  UNL1        0.0354
     29 H          -1.4208    1.9350   -1.4966 H       1  UNL1        0.0301
     30 H          -2.0869    3.9768    0.3077 H       1  UNL1        0.0233
     31 H          -0.4646    3.5605   -0.2070 H       1  UNL1        0.0233
     32 H          -1.2473    2.8151    1.3153 H       1  UNL1        0.0233
     33 H          -4.0562    2.6428   -0.0433 H       1  UNL1        0.0233
     34 H          -3.9012    1.9144   -1.6717 H       1  UNL1        0.0233
     35 H          -3.3125    3.5648   -1.3317 H       1  UNL1        0.0233
     36 H           0.2001   -3.1891    0.2373 H       1  UNL1        0.0623
     37 H           2.3974   -3.4635    0.2705 H       1  UNL1        0.0278
     38 H           3.0719   -2.5998    1.6441 H       1  UNL1        0.0278
     39 H           3.5156   -2.1556   -0.1167 H       1  UNL1        0.0278
     40 H           0.6614    1.6460    0.5778 H       1  UNL1        0.0627
     41 H           4.5638   -0.8273    1.4685 H       1  UNL1        0.0350
     42 H           4.8075    0.8606    1.8492 H       1  UNL1        0.0350
     43 H           6.2975    0.0052    0.1284 H       1  UNL1        0.0382
     44 H           4.9302   -0.4191   -0.9447 H       1  UNL1        0.0382
     45 H           6.2640    2.3924   -2.5359 H       1  UNL1        0.2951
     46 H          -3.7511   -1.3377    1.5405 H       1  UNL1        0.0238
     47 H          -2.9086   -2.9133    1.5510 H       1  UNL1        0.0238
     48 H          -2.0750   -1.4660    2.2182 H       1  UNL1        0.0238
     49 H          -3.3215   -2.8995   -1.3379 H       1  UNL1        0.0238
     50 H          -2.2042   -3.7104   -0.1121 H       1  UNL1        0.0238
     51 H          -1.5293   -2.9327   -1.5576 H       1  UNL1        0.0238
@<TRIPOS>BOND
     1     1     2    1
     2     1     3    1
     3     3     4    1
     4     4     5    1
     5     4     6    1
     6     3     7    1
     7     7     8   ar
     8     8     9   ar
     9     9    10   ar
    10    10    11    1
    11    10    12   ar
    12    12    13   ar
    13    12    14    1
    14    14    15    2
    15    14    16    1
    16    16    17    1
    17    17    18    1
    18    18    19    1
    19    18    20    2
    20     8    21    1
    21    21    22    1
    22    21    23    1
    23    21     1    1
    24    13     7   ar
    25     1    24    1
    26     2    25    1
    27     2    26    1
    28     2    27    1
    29     3    28    1
    30     4    29    1
    31     5    30    1
    32     5    31    1
    33     5    32    1
    34     6    33    1
    35     6    34    1
    36     6    35    1
    37     9    36    1
    38    11    37    1
    39    11    38    1
    40    11    39    1
    41    13    40    1
    42    16    41    1
    43    16    42    1
    44    17    43    1
    45    17    44    1
    46    19    45    1
    47    22    46    1
    48    22    47    1
    49    22    48    1
    50    23    49    1
    51    23    50    1
    52    23    51    1
