
     RDKit          3D

 51 52  0  0  0  0  0  0  0  0999 V2000
   -2.7203   -0.3639   -0.6610 C   0  0  1  0  0  0  0  0  0  0  0  0
   -4.2273   -0.3816   -0.6209 C   0  0  0  0  0  0  0  0  0  0  0  0
   -2.0607    0.7132    0.1456 C   0  0  2  0  0  0  0  0  0  0  0  0
   -2.0098    2.0184   -0.5341 C   0  0  0  0  0  0  0  0  0  0  0  0
   -1.3528    3.1178    0.2641 C   0  0  0  0  0  0  0  0  0  0  0  0
   -3.3749    2.5080   -0.9194 C   0  0  0  0  0  0  0  0  0  0  0  0
   -0.6952    0.1024    0.3065 C   0  0  0  0  0  0  0  0  0  0  0  0
   -0.7578   -1.2663    0.2195 C   0  0  0  0  0  0  0  0  0  0  0  0
    0.3096   -2.1158    0.3140 C   0  0  0  0  0  0  0  0  0  0  0  0
    1.5491   -1.5391    0.5139 C   0  0  0  0  0  0  0  0  0  0  0  0
    2.7248   -2.4265    0.6076 C   0  0  0  0  0  0  0  0  0  0  0  0
    1.7302   -0.1777    0.6172 C   0  0  0  0  0  0  0  0  0  0  0  0
    0.5819    0.5753    0.5059 C   0  0  0  0  0  0  0  0  0  0  0  0
    2.9852    0.5138    0.8415 C   0  0  0  0  0  0  0  0  0  0  0  0
    2.9448    1.7934    0.8838 O   0  0  0  0  0  0  0  0  0  0  0  0
    4.3817    0.2008    1.0504 C   0  0  0  0  0  0  0  0  0  0  0  0
    5.2637    0.3000   -0.1740 C   0  0  0  0  0  0  0  0  0  0  0  0
    5.2935    1.6602   -0.7703 C   0  0  0  0  0  0  0  0  0  0  0  0
    6.1118    1.6563   -1.8793 O   0  0  0  0  0  0  0  0  0  0  0  0
    4.8195    2.8373   -0.6079 O   0  0  0  0  0  0  0  0  0  0  0  0
   -2.1746   -1.6134    0.0191 C   0  0  0  0  0  0  0  0  0  0  0  0
   -2.7692   -1.8020    1.4012 C   0  0  0  0  0  0  0  0  0  0  0  0
   -2.3511   -2.8448   -0.8124 C   0  0  0  0  0  0  0  0  0  0  0  0
   -2.3190   -0.3563   -1.6768 H   0  0  0  0  0  0  0  0  0  0  0  0
   -4.6758    0.4075   -0.0154 H   0  0  0  0  0  0  0  0  0  0  0  0
   -4.5946   -0.2885   -1.6605 H   0  0  0  0  0  0  0  0  0  0  0  0
   -4.5882   -1.4047   -0.2919 H   0  0  0  0  0  0  0  0  0  0  0  0
   -2.4548    0.7766    1.1801 H   0  0  0  0  0  0  0  0  0  0  0  0
   -1.4208    1.9350   -1.4966 H   0  0  0  0  0  0  0  0  0  0  0  0
   -2.0869    3.9768    0.3077 H   0  0  0  0  0  0  0  0  0  0  0  0
   -0.4646    3.5605   -0.2070 H   0  0  0  0  0  0  0  0  0  0  0  0
   -1.2473    2.8151    1.3153 H   0  0  0  0  0  0  0  0  0  0  0  0
   -4.0562    2.6428   -0.0433 H   0  0  0  0  0  0  0  0  0  0  0  0
   -3.9012    1.9144   -1.6717 H   0  0  0  0  0  0  0  0  0  0  0  0
   -3.3125    3.5648   -1.3317 H   0  0  0  0  0  0  0  0  0  0  0  0
    0.2001   -3.1891    0.2373 H   0  0  0  0  0  0  0  0  0  0  0  0
    2.3974   -3.4635    0.2705 H   0  0  0  0  0  0  0  0  0  0  0  0
    3.0719   -2.5998    1.6441 H   0  0  0  0  0  0  0  0  0  0  0  0
    3.5156   -2.1556   -0.1167 H   0  0  0  0  0  0  0  0  0  0  0  0
    0.6614    1.6460    0.5778 H   0  0  0  0  0  0  0  0  0  0  0  0
    4.5638   -0.8273    1.4685 H   0  0  0  0  0  0  0  0  0  0  0  0
    4.8075    0.8606    1.8492 H   0  0  0  0  0  0  0  0  0  0  0  0
    6.2975    0.0052    0.1284 H   0  0  0  0  0  0  0  0  0  0  0  0
    4.9302   -0.4191   -0.9447 H   0  0  0  0  0  0  0  0  0  0  0  0
    6.2640    2.3924   -2.5359 H   0  0  0  0  0  0  0  0  0  0  0  0
   -3.7511   -1.3377    1.5405 H   0  0  0  0  0  0  0  0  0  0  0  0
   -2.9086   -2.9133    1.5510 H   0  0  0  0  0  0  0  0  0  0  0  0
   -2.0750   -1.4660    2.2182 H   0  0  0  0  0  0  0  0  0  0  0  0
   -3.3215   -2.8995   -1.3379 H   0  0  0  0  0  0  0  0  0  0  0  0
   -2.2042   -3.7104   -0.1121 H   0  0  0  0  0  0  0  0  0  0  0  0
   -1.5293   -2.9327   -1.5576 H   0  0  0  0  0  0  0  0  0  0  0  0
  1  2  1  0
  1  3  1  0
  3  4  1  0
  4  5  1  0
  4  6  1  0
  3  7  1  0
  7  8  2  0
  8  9  1  0
  9 10  2  0
 10 11  1  0
 10 12  1  0
 12 13  2  0
 12 14  1  0
 14 15  2  0
 14 16  1  0
 16 17  1  0
 17 18  1  0
 18 19  1  0
 18 20  2  0
  8 21  1  0
 21 22  1  0
 21 23  1  0
 21  1  1  0
 13  7  1  0
  1 24  1  6
  2 25  1  0
  2 26  1  0
  2 27  1  0
  3 28  1  1
  4 29  1  0
  5 30  1  0
  5 31  1  0
  5 32  1  0
  6 33  1  0
  6 34  1  0
  6 35  1  0
  9 36  1  0
 11 37  1  0
 11 38  1  0
 11 39  1  0
 13 40  1  0
 16 41  1  0
 16 42  1  0
 17 43  1  0
 17 44  1  0
 19 45  1  0
 22 46  1  0
 22 47  1  0
 22 48  1  0
 23 49  1  0
 23 50  1  0
 23 51  1  0
M  END
$$$$
