@<TRIPOS>MOLECULE
*****
 57 59 0 0 0
SMALL
GASTEIGER

@<TRIPOS>ATOM
      1 C          -7.0903   -0.1743   -0.8242 C.3     1  UNL1       -0.0524
      2 C          -5.6392   -0.4813   -0.9634 C.3     1  UNL1       -0.0039
      3 N          -4.7307    0.3482   -0.2380 N.3     1  UNL1       -0.3025
      4 C          -4.5628    1.6825   -0.6648 C.3     1  UNL1       -0.0039
      5 C          -5.7071    2.6245   -0.4293 C.3     1  UNL1       -0.0524
      6 C          -4.8855    0.2064    1.1989 C.3     1  UNL1        0.0028
      7 C          -4.3396   -1.1499    1.6005 C.3     1  UNL1       -0.0149
      8 C          -2.8717   -1.2068    1.2596 C.ar    1  UNL1       -0.0459
      9 C          -2.3651   -1.6527    0.1076 C.ar    1  UNL1       -0.0551
     10 C          -1.0005   -1.6355   -0.1620 C.ar    1  UNL1       -0.0197
     11 C          -0.1738   -1.1338    0.8142 C.ar    1  UNL1        0.1216
     12 O           1.1825   -1.0558    0.6734 O.3     1  UNL1       -0.4807
     13 C           1.8755   -1.4479   -0.4515 C.3     1  UNL1        0.1661
     14 C           2.2867   -0.1921   -1.1904 C.3     1  UNL1        0.0177
     15 C           3.7018    0.0114   -0.8310 C.ar    1  UNL1       -0.0292
     16 C           4.5557    1.1045   -1.0188 C.ar    1  UNL1       -0.0123
     17 C           5.8653    1.0217   -0.6531 C.ar    1  UNL1        0.1618
     18 O           6.7168    2.1075   -0.8363 O.3     1  UNL1       -0.4914
     19 C           6.2554    3.3301   -1.3948 C.3     1  UNL1        0.0790
     20 C           6.4205   -0.1247   -0.0852 C.ar    1  UNL1        0.1622
     21 O           7.7608   -0.1098    0.2435 O.3     1  UNL1       -0.4914
     22 C           8.5164   -1.1352    0.8111 C.3     1  UNL1        0.0790
     23 C           5.5582   -1.1717    0.0875 C.ar    1  UNL1       -0.0054
     24 C           4.2079   -1.1196   -0.2768 C.ar    1  UNL1        0.0282
     25 C           3.1567   -2.1171   -0.1460 C.2     1  UNL1        0.2040
     26 O           3.3416   -3.3265    0.1724 O.2     1  UNL1       -0.2881
     27 C          -0.7179   -0.6731    2.0111 C.ar    1  UNL1       -0.0197
     28 C          -2.0555   -0.6912    2.2754 C.ar    1  UNL1       -0.0551
     29 H          -7.6136   -0.0159   -1.8202 H       1  UNL1        0.0242
     30 H          -7.3594    0.5874   -0.0929 H       1  UNL1        0.0242
     31 H          -7.6051   -1.1128   -0.4429 H       1  UNL1        0.0242
     32 H          -5.3973   -0.3913   -2.0618 H       1  UNL1        0.0424
     33 H          -5.4603   -1.5400   -0.7022 H       1  UNL1        0.0424
     34 H          -4.2697    1.7172   -1.7492 H       1  UNL1        0.0424
     35 H          -3.6647    2.1240   -0.1461 H       1  UNL1        0.0424
     36 H          -6.2012    2.5092    0.5545 H       1  UNL1        0.0242
     37 H          -6.4641    2.4772   -1.2240 H       1  UNL1        0.0242
     38 H          -5.3618    3.7042   -0.5577 H       1  UNL1        0.0242
     39 H          -5.9560    0.2645    1.4591 H       1  UNL1        0.0430
     40 H          -4.3417    1.0348    1.6762 H       1  UNL1        0.0430
     41 H          -4.4851   -1.3405    2.6843 H       1  UNL1        0.0326
     42 H          -4.8213   -1.9926    1.0876 H       1  UNL1        0.0326
     43 H          -3.0486   -2.0503   -0.6714 H       1  UNL1        0.0621
     44 H          -0.6638   -2.0027   -1.1064 H       1  UNL1        0.0654
     45 H           1.2594   -2.0891   -1.1492 H       1  UNL1        0.0821
     46 H           2.2904   -0.4347   -2.3053 H       1  UNL1        0.0354
     47 H           1.6240    0.6777   -0.9742 H       1  UNL1        0.0354
     48 H           4.1148    2.0077   -1.4705 H       1  UNL1        0.0658
     49 H           5.6804    3.8990   -0.6169 H       1  UNL1        0.0660
     50 H           7.1542    3.9264   -1.6509 H       1  UNL1        0.0660
     51 H           5.6245    3.1680   -2.2677 H       1  UNL1        0.0660
     52 H           7.9985   -2.1016    0.6557 H       1  UNL1        0.0660
     53 H           8.7103   -0.9390    1.8874 H       1  UNL1        0.0660
     54 H           9.5068   -1.2290    0.2598 H       1  UNL1        0.0660
     55 H           5.9683   -2.0837    0.5327 H       1  UNL1        0.0662
     56 H          -0.0092   -0.2846    2.7572 H       1  UNL1        0.0654
     57 H          -2.4703   -0.3276    3.2111 H       1  UNL1        0.0621
@<TRIPOS>BOND
     1     1     2    1
     2     2     3    1
     3     3     4    1
     4     4     5    1
     5     3     6    1
     6     6     7    1
     7     7     8    1
     8     8     9   ar
     9     9    10   ar
    10    10    11   ar
    11    11    12    1
    12    12    13    1
    13    13    14    1
    14    14    15    1
    15    15    16   ar
    16    16    17   ar
    17    17    18    1
    18    18    19    1
    19    17    20   ar
    20    20    21    1
    21    21    22    1
    22    20    23   ar
    23    23    24   ar
    24    24    25    1
    25    25    26    2
    26    11    27   ar
    27    27    28   ar
    28    28     8   ar
    29    25    13    1
    30    24    15   ar
    31     1    29    1
    32     1    30    1
    33     1    31    1
    34     2    32    1
    35     2    33    1
    36     4    34    1
    37     4    35    1
    38     5    36    1
    39     5    37    1
    40     5    38    1
    41     6    39    1
    42     6    40    1
    43     7    41    1
    44     7    42    1
    45     9    43    1
    46    10    44    1
    47    13    45    1
    48    14    46    1
    49    14    47    1
    50    16    48    1
    51    19    49    1
    52    19    50    1
    53    19    51    1
    54    22    52    1
    55    22    53    1
    56    22    54    1
    57    23    55    1
    58    27    56    1
    59    28    57    1
