
     RDKit          3D

 57 59  0  0  0  0  0  0  0  0999 V2000
   -7.0903   -0.1743   -0.8242 C   0  0  0  0  0  0  0  0  0  0  0  0
   -5.6392   -0.4813   -0.9634 C   0  0  0  0  0  0  0  0  0  0  0  0
   -4.7307    0.3482   -0.2380 N   0  0  0  0  0  0  0  0  0  0  0  0
   -4.5628    1.6825   -0.6648 C   0  0  0  0  0  0  0  0  0  0  0  0
   -5.7071    2.6245   -0.4293 C   0  0  0  0  0  0  0  0  0  0  0  0
   -4.8855    0.2064    1.1989 C   0  0  0  0  0  0  0  0  0  0  0  0
   -4.3396   -1.1499    1.6005 C   0  0  0  0  0  0  0  0  0  0  0  0
   -2.8717   -1.2068    1.2596 C   0  0  0  0  0  0  0  0  0  0  0  0
   -2.3651   -1.6527    0.1076 C   0  0  0  0  0  0  0  0  0  0  0  0
   -1.0005   -1.6355   -0.1620 C   0  0  0  0  0  0  0  0  0  0  0  0
   -0.1738   -1.1338    0.8142 C   0  0  0  0  0  0  0  0  0  0  0  0
    1.1825   -1.0558    0.6734 O   0  0  0  0  0  0  0  0  0  0  0  0
    1.8755   -1.4479   -0.4515 C   0  0  0  0  0  0  0  0  0  0  0  0
    2.2867   -0.1921   -1.1904 C   0  0  0  0  0  0  0  0  0  0  0  0
    3.7018    0.0114   -0.8310 C   0  0  0  0  0  0  0  0  0  0  0  0
    4.5557    1.1045   -1.0188 C   0  0  0  0  0  0  0  0  0  0  0  0
    5.8653    1.0217   -0.6531 C   0  0  0  0  0  0  0  0  0  0  0  0
    6.7168    2.1075   -0.8363 O   0  0  0  0  0  0  0  0  0  0  0  0
    6.2554    3.3301   -1.3948 C   0  0  0  0  0  0  0  0  0  0  0  0
    6.4205   -0.1247   -0.0852 C   0  0  0  0  0  0  0  0  0  0  0  0
    7.7608   -0.1098    0.2435 O   0  0  0  0  0  0  0  0  0  0  0  0
    8.5164   -1.1352    0.8111 C   0  0  0  0  0  0  0  0  0  0  0  0
    5.5582   -1.1717    0.0875 C   0  0  0  0  0  0  0  0  0  0  0  0
    4.2079   -1.1196   -0.2768 C   0  0  0  0  0  0  0  0  0  0  0  0
    3.1567   -2.1171   -0.1460 C   0  0  0  0  0  0  0  0  0  0  0  0
    3.3416   -3.3265    0.1724 O   0  0  0  0  0  0  0  0  0  0  0  0
   -0.7179   -0.6731    2.0111 C   0  0  0  0  0  0  0  0  0  0  0  0
   -2.0555   -0.6912    2.2754 C   0  0  0  0  0  0  0  0  0  0  0  0
   -7.6136   -0.0159   -1.8202 H   0  0  0  0  0  0  0  0  0  0  0  0
   -7.3594    0.5874   -0.0929 H   0  0  0  0  0  0  0  0  0  0  0  0
   -7.6051   -1.1128   -0.4429 H   0  0  0  0  0  0  0  0  0  0  0  0
   -5.3973   -0.3913   -2.0618 H   0  0  0  0  0  0  0  0  0  0  0  0
   -5.4603   -1.5400   -0.7022 H   0  0  0  0  0  0  0  0  0  0  0  0
   -4.2697    1.7172   -1.7492 H   0  0  0  0  0  0  0  0  0  0  0  0
   -3.6647    2.1240   -0.1461 H   0  0  0  0  0  0  0  0  0  0  0  0
   -6.2012    2.5092    0.5545 H   0  0  0  0  0  0  0  0  0  0  0  0
   -6.4641    2.4772   -1.2240 H   0  0  0  0  0  0  0  0  0  0  0  0
   -5.3618    3.7042   -0.5577 H   0  0  0  0  0  0  0  0  0  0  0  0
   -5.9560    0.2645    1.4591 H   0  0  0  0  0  0  0  0  0  0  0  0
   -4.3417    1.0348    1.6762 H   0  0  0  0  0  0  0  0  0  0  0  0
   -4.4851   -1.3405    2.6843 H   0  0  0  0  0  0  0  0  0  0  0  0
   -4.8213   -1.9926    1.0876 H   0  0  0  0  0  0  0  0  0  0  0  0
   -3.0486   -2.0503   -0.6714 H   0  0  0  0  0  0  0  0  0  0  0  0
   -0.6638   -2.0027   -1.1064 H   0  0  0  0  0  0  0  0  0  0  0  0
    1.2594   -2.0891   -1.1492 H   0  0  0  0  0  0  0  0  0  0  0  0
    2.2904   -0.4347   -2.3053 H   0  0  0  0  0  0  0  0  0  0  0  0
    1.6240    0.6777   -0.9742 H   0  0  0  0  0  0  0  0  0  0  0  0
    4.1148    2.0077   -1.4705 H   0  0  0  0  0  0  0  0  0  0  0  0
    5.6804    3.8990   -0.6169 H   0  0  0  0  0  0  0  0  0  0  0  0
    7.1542    3.9264   -1.6509 H   0  0  0  0  0  0  0  0  0  0  0  0
    5.6245    3.1680   -2.2677 H   0  0  0  0  0  0  0  0  0  0  0  0
    7.9985   -2.1016    0.6557 H   0  0  0  0  0  0  0  0  0  0  0  0
    8.7103   -0.9390    1.8874 H   0  0  0  0  0  0  0  0  0  0  0  0
    9.5068   -1.2290    0.2598 H   0  0  0  0  0  0  0  0  0  0  0  0
    5.9683   -2.0837    0.5327 H   0  0  0  0  0  0  0  0  0  0  0  0
   -0.0092   -0.2846    2.7572 H   0  0  0  0  0  0  0  0  0  0  0  0
   -2.4703   -0.3276    3.2111 H   0  0  0  0  0  0  0  0  0  0  0  0
  1  2  1  0
  2  3  1  0
  3  4  1  0
  4  5  1  0
  3  6  1  0
  6  7  1  0
  7  8  1  0
  8  9  2  0
  9 10  1  0
 10 11  2  0
 11 12  1  0
 12 13  1  0
 13 14  1  0
 14 15  1  0
 15 16  2  0
 16 17  1  0
 17 18  1  0
 18 19  1  0
 17 20  2  0
 20 21  1  0
 21 22  1  0
 20 23  1  0
 23 24  2  0
 24 25  1  0
 25 26  2  0
 11 27  1  0
 27 28  2  0
 28  8  1  0
 25 13  1  0
 24 15  1  0
  1 29  1  0
  1 30  1  0
  1 31  1  0
  2 32  1  0
  2 33  1  0
  4 34  1  0
  4 35  1  0
  5 36  1  0
  5 37  1  0
  5 38  1  0
  6 39  1  0
  6 40  1  0
  7 41  1  0
  7 42  1  0
  9 43  1  0
 10 44  1  0
 13 45  1  0
 14 46  1  0
 14 47  1  0
 16 48  1  0
 19 49  1  0
 19 50  1  0
 19 51  1  0
 22 52  1  0
 22 53  1  0
 22 54  1  0
 23 55  1  0
 27 56  1  0
 28 57  1  0
M  END
$$$$
