@<TRIPOS>MOLECULE
*****
 51 54 0 0 0
SMALL
GASTEIGER

@<TRIPOS>ATOM
      1 C          -5.6757    2.4919    0.3439 C.3     1  UNL1       -0.0620
      2 C          -4.6639    1.4206   -0.0123 C.3     1  UNL1       -0.0124
      3 C          -5.2291    0.0358    0.1756 C.3     1  UNL1        0.2054
      4 O          -5.5876   -0.1038    1.5040 O.3     1  UNL1       -0.3744
      5 C          -4.1480   -0.9408   -0.1119 C.ar    1  UNL1        0.1231
      6 C          -3.2627   -1.4412    0.8166 C.ar    1  UNL1        0.0522
      7 N          -2.4459   -2.2847    0.1887 N.ar    1  UNL1       -0.2470
      8 C          -1.3655   -3.0203    0.8358 C.3     1  UNL1        0.0682
      9 C          -0.1547   -2.1669    0.7510 C.ar    1  UNL1       -0.0250
     10 C           0.7262   -2.2226   -0.2963 C.ar    1  UNL1       -0.0562
     11 C           1.8554   -1.4495   -0.4088 C.ar    1  UNL1       -0.0526
     12 C           2.1682   -0.5114    0.6141 C.ar    1  UNL1       -0.0023
     13 C           3.2482    0.3128    0.6299 C.ar    1  UNL1        0.0091
     14 C           4.2989    0.3696   -0.4396 C.ar    1  UNL1       -0.0159
     15 C           5.4037   -0.4405   -0.3497 C.ar    1  UNL1       -0.0513
     16 C           6.3693   -0.3677   -1.3616 C.ar    1  UNL1       -0.0259
     17 C           6.1875    0.5068   -2.4116 C.ar    1  UNL1        0.1234
     18 F           7.1360    0.5564   -3.3749 F       1  UNL1       -0.2055
     19 C           5.0818    1.3246   -2.5114 C.ar    1  UNL1       -0.0259
     20 C           4.1282    1.2352   -1.4875 C.ar    1  UNL1       -0.0513
     21 C           3.3866    1.1466    1.6924 C.ar    1  UNL1        0.0824
     22 C           4.3706    2.1292    2.0440 C.2     1  UNL1        0.2488
     23 N           5.4534    2.3362    1.1578 N.am    1  UNL1       -0.3249
     24 O           4.3180    2.8112    3.0950 O.2     1  UNL1       -0.2698
     25 S           1.9225    0.7633    2.7398 S.2     1  UNL1       -0.0831
     26 C           1.2947   -0.4744    1.6259 C.ar    1  UNL1        0.0210
     27 C           0.1524   -1.2561    1.7404 C.ar    1  UNL1       -0.0425
     28 N          -2.7939   -2.3199   -1.0775 N.ar    1  UNL1       -0.0651
     29 N          -3.8121   -1.5199   -1.2728 N.ar    1  UNL1       -0.1313
     30 C          -6.3972   -0.2312   -0.7431 C.3     1  UNL1        0.4239
     31 F          -6.0132   -0.1154   -2.0484 F       1  UNL1       -0.1672
     32 F          -7.4946    0.5163   -0.4123 F       1  UNL1       -0.1672
     33 F          -6.7448   -1.5741   -0.5460 F       1  UNL1       -0.1672
     34 H          -6.2981    2.6815   -0.5469 H       1  UNL1        0.0231
     35 H          -5.1126    3.4267    0.5520 H       1  UNL1        0.0231
     36 H          -6.2566    2.2285    1.2477 H       1  UNL1        0.0231
     37 H          -3.8234    1.5251    0.7064 H       1  UNL1        0.0297
     38 H          -4.3254    1.6066   -1.0594 H       1  UNL1        0.0297
     39 H          -5.0084    0.4830    2.0608 H       1  UNL1        0.2110
     40 H          -3.2290   -1.1938    1.8876 H       1  UNL1        0.0846
     41 H          -1.2059   -3.9820    0.2823 H       1  UNL1        0.0559
     42 H          -1.6539   -3.2061    1.8688 H       1  UNL1        0.0559
     43 H           0.4800   -2.9506   -1.0864 H       1  UNL1        0.0621
     44 H           2.4755   -1.5804   -1.2794 H       1  UNL1        0.0624
     45 H           5.5299   -1.1226    0.4841 H       1  UNL1        0.0624
     46 H           7.2226   -1.0179   -1.2578 H       1  UNL1        0.0646
     47 H           4.9072    2.0209   -3.3192 H       1  UNL1        0.0646
     48 H           3.2409    1.8462   -1.5046 H       1  UNL1        0.0624
     49 H           5.4415    3.0333    0.3696 H       1  UNL1        0.1453
     50 H           6.3524    1.7911    1.2401 H       1  UNL1        0.1453
     51 H          -0.4494   -1.1056    2.6196 H       1  UNL1        0.0632
@<TRIPOS>BOND
     1     1     2    1
     2     2     3    1
     3     3     4    1
     4     3     5    1
     5     5     6   ar
     6     6     7   ar
     7     7     8    1
     8     8     9    1
     9     9    10   ar
    10    10    11   ar
    11    11    12   ar
    12    12    13   ar
    13    13    14    1
    14    14    15   ar
    15    15    16   ar
    16    16    17   ar
    17    17    18    1
    18    17    19   ar
    19    19    20   ar
    20    13    21   ar
    21    21    22    1
    22    22    23   am
    23    22    24    2
    24    21    25   ar
    25    25    26   ar
    26    26    27   ar
    27     7    28   ar
    28    28    29   ar
    29     3    30    1
    30    30    31    1
    31    30    32    1
    32    30    33    1
    33    29     5   ar
    34    27     9   ar
    35    26    12   ar
    36    20    14   ar
    37     1    34    1
    38     1    35    1
    39     1    36    1
    40     2    37    1
    41     2    38    1
    42     4    39    1
    43     6    40    1
    44     8    41    1
    45     8    42    1
    46    10    43    1
    47    11    44    1
    48    15    45    1
    49    16    46    1
    50    19    47    1
    51    20    48    1
    52    23    49    1
    53    23    50    1
    54    27    51    1
