
     RDKit          3D

 51 54  0  0  0  0  0  0  0  0999 V2000
   -5.6757    2.4919    0.3439 C   0  0  0  0  0  0  0  0  0  0  0  0
   -4.6639    1.4206   -0.0123 C   0  0  0  0  0  0  0  0  0  0  0  0
   -5.2291    0.0358    0.1756 C   0  0  2  0  0  0  0  0  0  0  0  0
   -5.5876   -0.1038    1.5040 O   0  0  0  0  0  0  0  0  0  0  0  0
   -4.1480   -0.9408   -0.1119 C   0  0  0  0  0  0  0  0  0  0  0  0
   -3.2627   -1.4412    0.8166 C   0  0  0  0  0  0  0  0  0  0  0  0
   -2.4459   -2.2847    0.1887 N   0  0  0  0  0  0  0  0  0  0  0  0
   -1.3655   -3.0203    0.8358 C   0  0  0  0  0  0  0  0  0  0  0  0
   -0.1547   -2.1669    0.7510 C   0  0  0  0  0  0  0  0  0  0  0  0
    0.7262   -2.2226   -0.2963 C   0  0  0  0  0  0  0  0  0  0  0  0
    1.8554   -1.4495   -0.4088 C   0  0  0  0  0  0  0  0  0  0  0  0
    2.1682   -0.5114    0.6141 C   0  0  0  0  0  0  0  0  0  0  0  0
    3.2482    0.3128    0.6299 C   0  0  0  0  0  0  0  0  0  0  0  0
    4.2989    0.3696   -0.4396 C   0  0  0  0  0  0  0  0  0  0  0  0
    5.4037   -0.4405   -0.3497 C   0  0  0  0  0  0  0  0  0  0  0  0
    6.3693   -0.3677   -1.3616 C   0  0  0  0  0  0  0  0  0  0  0  0
    6.1875    0.5068   -2.4116 C   0  0  0  0  0  0  0  0  0  0  0  0
    7.1360    0.5564   -3.3749 F   0  0  0  0  0  0  0  0  0  0  0  0
    5.0818    1.3246   -2.5114 C   0  0  0  0  0  0  0  0  0  0  0  0
    4.1282    1.2352   -1.4875 C   0  0  0  0  0  0  0  0  0  0  0  0
    3.3866    1.1466    1.6924 C   0  0  0  0  0  0  0  0  0  0  0  0
    4.3706    2.1292    2.0440 C   0  0  0  0  0  0  0  0  0  0  0  0
    5.4534    2.3362    1.1578 N   0  0  0  0  0  0  0  0  0  0  0  0
    4.3180    2.8112    3.0950 O   0  0  0  0  0  0  0  0  0  0  0  0
    1.9225    0.7633    2.7398 S   0  0  0  0  0  0  0  0  0  0  0  0
    1.2947   -0.4744    1.6259 C   0  0  0  0  0  0  0  0  0  0  0  0
    0.1524   -1.2561    1.7404 C   0  0  0  0  0  0  0  0  0  0  0  0
   -2.7939   -2.3199   -1.0775 N   0  0  0  0  0  0  0  0  0  0  0  0
   -3.8121   -1.5199   -1.2728 N   0  0  0  0  0  0  0  0  0  0  0  0
   -6.3972   -0.2312   -0.7431 C   0  0  0  0  0  0  0  0  0  0  0  0
   -6.0132   -0.1154   -2.0484 F   0  0  0  0  0  0  0  0  0  0  0  0
   -7.4946    0.5163   -0.4123 F   0  0  0  0  0  0  0  0  0  0  0  0
   -6.7448   -1.5741   -0.5460 F   0  0  0  0  0  0  0  0  0  0  0  0
   -6.2981    2.6815   -0.5469 H   0  0  0  0  0  0  0  0  0  0  0  0
   -5.1126    3.4267    0.5520 H   0  0  0  0  0  0  0  0  0  0  0  0
   -6.2566    2.2285    1.2477 H   0  0  0  0  0  0  0  0  0  0  0  0
   -3.8234    1.5251    0.7064 H   0  0  0  0  0  0  0  0  0  0  0  0
   -4.3254    1.6066   -1.0594 H   0  0  0  0  0  0  0  0  0  0  0  0
   -5.0084    0.4830    2.0608 H   0  0  0  0  0  0  0  0  0  0  0  0
   -3.2290   -1.1938    1.8876 H   0  0  0  0  0  0  0  0  0  0  0  0
   -1.2059   -3.9820    0.2823 H   0  0  0  0  0  0  0  0  0  0  0  0
   -1.6539   -3.2061    1.8688 H   0  0  0  0  0  0  0  0  0  0  0  0
    0.4800   -2.9506   -1.0864 H   0  0  0  0  0  0  0  0  0  0  0  0
    2.4755   -1.5804   -1.2794 H   0  0  0  0  0  0  0  0  0  0  0  0
    5.5299   -1.1226    0.4841 H   0  0  0  0  0  0  0  0  0  0  0  0
    7.2226   -1.0179   -1.2578 H   0  0  0  0  0  0  0  0  0  0  0  0
    4.9072    2.0209   -3.3192 H   0  0  0  0  0  0  0  0  0  0  0  0
    3.2409    1.8462   -1.5046 H   0  0  0  0  0  0  0  0  0  0  0  0
    5.4415    3.0333    0.3696 H   0  0  0  0  0  0  0  0  0  0  0  0
    6.3524    1.7911    1.2401 H   0  0  0  0  0  0  0  0  0  0  0  0
   -0.4494   -1.1056    2.6196 H   0  0  0  0  0  0  0  0  0  0  0  0
  1  2  1  0
  2  3  1  0
  3  4  1  1
  3  5  1  0
  5  6  2  0
  6  7  1  0
  7  8  1  0
  8  9  1  0
  9 10  2  0
 10 11  1  0
 11 12  2  0
 12 13  1  0
 13 14  1  0
 14 15  2  0
 15 16  1  0
 16 17  2  0
 17 18  1  0
 17 19  1  0
 19 20  2  0
 13 21  2  0
 21 22  1  0
 22 23  1  0
 22 24  2  0
 21 25  1  0
 25 26  1  0
 26 27  2  0
  7 28  1  0
 28 29  2  0
  3 30  1  0
 30 31  1  0
 30 32  1  0
 30 33  1  0
 29  5  1  0
 27  9  1  0
 26 12  1  0
 20 14  1  0
  1 34  1  0
  1 35  1  0
  1 36  1  0
  2 37  1  0
  2 38  1  0
  4 39  1  0
  6 40  1  0
  8 41  1  0
  8 42  1  0
 10 43  1  0
 11 44  1  0
 15 45  1  0
 16 46  1  0
 19 47  1  0
 20 48  1  0
 23 49  1  0
 23 50  1  0
 27 51  1  0
M  END
$$$$
