@<TRIPOS>MOLECULE
*****
 69 71 0 0 0
SMALL
GASTEIGER

@<TRIPOS>ATOM
      1 C           9.8995   -0.9477    1.5450 C.2     1  UNL1       -0.1026
      2 C           8.7199   -0.5424    1.1470 C.2     1  UNL1       -0.0911
      3 C           7.6067   -0.4428    2.1268 C.3     1  UNL1       -0.0350
      4 C           6.4984   -1.3647    1.6807 C.3     1  UNL1       -0.0496
      5 C           6.0189   -0.9823    0.3170 C.3     1  UNL1       -0.0528
      6 C           5.4922    0.4254    0.2894 C.3     1  UNL1       -0.0530
      7 C           4.3367    0.6568    1.2407 C.3     1  UNL1       -0.0531
      8 C           3.1539   -0.2055    0.9663 C.3     1  UNL1       -0.0530
      9 C           2.5678   -0.0243   -0.3994 C.3     1  UNL1       -0.0516
     10 C           2.0914    1.3577   -0.6810 C.3     1  UNL1       -0.0367
     11 C           1.5223    1.4423   -2.0783 C.3     1  UNL1        0.0202
     12 N           0.4066    0.5649   -2.3073 N.am    1  UNL1       -0.2641
     13 C           0.4954   -0.7710   -2.7865 C.2     1  UNL1        0.2913
     14 O           1.5613   -1.4108   -3.0908 O.2     1  UNL1       -0.2661
     15 C          -0.8740   -1.2602   -2.8599 C.2     1  UNL1        0.2496
     16 O          -1.2405   -2.4016   -3.2371 O.2     1  UNL1       -0.2817
     17 C          -1.7690   -0.1980   -2.4188 C.ar    1  UNL1        0.0502
     18 C          -3.1609   -0.1108   -2.2868 C.ar    1  UNL1       -0.0226
     19 C          -3.7883    1.0321   -1.8369 C.ar    1  UNL1        0.1063
     20 S          -5.5132    1.1681   -1.6654 S.O2    1  UNL1        0.0612
     21 O          -5.9057    2.5959   -1.9229 O.2     1  UNL1       -0.1528
     22 O          -6.1513    0.3393   -2.7380 O.2     1  UNL1       -0.1528
     23 N          -6.1158    0.7128   -0.1547 N.3     1  UNL1       -0.1713
     24 C          -5.6352    1.4917    0.9462 C.3     1  UNL1        0.0209
     25 C          -4.8545    0.5880    1.8627 C.3     1  UNL1       -0.0370
     26 C          -4.7089   -0.6797    1.0636 C.3     1  UNL1       -0.0323
     27 C          -5.9451   -0.6753    0.1897 C.3     1  UNL1        0.0552
     28 C          -7.1074   -1.0774    1.0738 C.3     1  UNL1        0.0645
     29 O          -8.3411   -0.9374    0.4887 O.3     1  UNL1       -0.3814
     30 C          -8.4567   -1.7117   -0.6348 C.3     1  UNL1        0.0365
     31 C          -2.9785    2.1034   -1.5166 C.ar    1  UNL1       -0.0335
     32 C          -1.6026    2.0244   -1.6446 C.ar    1  UNL1       -0.0377
     33 C          -0.9857    0.8758   -2.0958 C.ar    1  UNL1        0.0477
     34 H          10.0551   -1.2074    2.5862 H       1  UNL1        0.0532
     35 H          10.7528   -1.0387    0.8641 H       1  UNL1        0.0532
     36 H           8.5748   -0.2839    0.1086 H       1  UNL1        0.0566
     37 H           7.9712   -0.7501    3.1567 H       1  UNL1        0.0307
     38 H           7.1877    0.5782    2.2124 H       1  UNL1        0.0307
     39 H           6.8710   -2.4336    1.6980 H       1  UNL1        0.0268
     40 H           5.6813   -1.3259    2.4417 H       1  UNL1        0.0268
     41 H           6.8048   -1.0816   -0.4608 H       1  UNL1        0.0265
     42 H           5.1665   -1.6932    0.0887 H       1  UNL1        0.0265
     43 H           6.3313    1.1096    0.5088 H       1  UNL1        0.0265
     44 H           5.1708    0.6253   -0.7710 H       1  UNL1        0.0265
     45 H           4.0948    1.7421    1.2581 H       1  UNL1        0.0265
     46 H           4.7043    0.4328    2.2623 H       1  UNL1        0.0265
     47 H           2.4171   -0.0205    1.7760 H       1  UNL1        0.0265
     48 H           3.4509   -1.2665    1.0786 H       1  UNL1        0.0265
     49 H           1.6622   -0.6986   -0.4412 H       1  UNL1        0.0266
     50 H           3.2530   -0.3680   -1.1718 H       1  UNL1        0.0266
     51 H           1.3167    1.7218    0.0066 H       1  UNL1        0.0280
     52 H           2.9955    2.0271   -0.6846 H       1  UNL1        0.0280
     53 H           1.1514    2.4869   -2.2045 H       1  UNL1        0.0469
     54 H           2.3063    1.2994   -2.8516 H       1  UNL1        0.0469
     55 H          -3.7692   -0.9732   -2.5477 H       1  UNL1        0.0645
     56 H          -6.5423    1.8851    1.4838 H       1  UNL1        0.0444
     57 H          -5.0649    2.3906    0.6427 H       1  UNL1        0.0444
     58 H          -5.4431    0.3455    2.7809 H       1  UNL1        0.0279
     59 H          -3.8664    1.0281    2.1210 H       1  UNL1        0.0279
     60 H          -3.7737   -0.6913    0.4841 H       1  UNL1        0.0282
     61 H          -4.7132   -1.5875    1.7353 H       1  UNL1        0.0282
     62 H          -5.8444   -1.3345   -0.6758 H       1  UNL1        0.0502
     63 H          -7.1330   -0.4683    2.0096 H       1  UNL1        0.0576
     64 H          -7.0159   -2.1284    1.4215 H       1  UNL1        0.0576
     65 H          -7.7253   -1.4750   -1.4180 H       1  UNL1        0.0523
     66 H          -8.3606   -2.8031   -0.4314 H       1  UNL1        0.0523
     67 H          -9.4767   -1.5364   -1.0588 H       1  UNL1        0.0523
     68 H          -3.4626    3.0011   -1.1639 H       1  UNL1        0.0638
     69 H          -0.9645    2.8571   -1.3963 H       1  UNL1        0.0637
@<TRIPOS>BOND
     1     1     2    2
     2     2     3    1
     3     3     4    1
     4     4     5    1
     5     5     6    1
     6     6     7    1
     7     7     8    1
     8     8     9    1
     9     9    10    1
    10    10    11    1
    11    11    12    1
    12    12    13   am
    13    13    14    2
    14    13    15    1
    15    15    16    2
    16    15    17    1
    17    17    18   ar
    18    18    19   ar
    19    19    20    1
    20    20    21    2
    21    20    22    2
    22    20    23    1
    23    23    24    1
    24    24    25    1
    25    25    26    1
    26    26    27    1
    27    27    28    1
    28    28    29    1
    29    29    30    1
    30    19    31   ar
    31    31    32   ar
    32    32    33   ar
    33    33    12    1
    34    33    17   ar
    35    27    23    1
    36     1    34    1
    37     1    35    1
    38     2    36    1
    39     3    37    1
    40     3    38    1
    41     4    39    1
    42     4    40    1
    43     5    41    1
    44     5    42    1
    45     6    43    1
    46     6    44    1
    47     7    45    1
    48     7    46    1
    49     8    47    1
    50     8    48    1
    51     9    49    1
    52     9    50    1
    53    10    51    1
    54    10    52    1
    55    11    53    1
    56    11    54    1
    57    18    55    1
    58    24    56    1
    59    24    57    1
    60    25    58    1
    61    25    59    1
    62    26    60    1
    63    26    61    1
    64    27    62    1
    65    28    63    1
    66    28    64    1
    67    30    65    1
    68    30    66    1
    69    30    67    1
    70    31    68    1
    71    32    69    1
