@<TRIPOS>MOLECULE
*****
 61 65 0 0 0
SMALL
GASTEIGER

@<TRIPOS>ATOM
      1 O           7.7330    1.4175   -1.9005 O.2     1  UNL1       -0.2451
      2 C           6.8027    0.9816   -2.6224 C.2     1  UNL1        0.3368
      3 O           7.0891    0.5075   -3.8849 O.3     1  UNL1       -0.4771
      4 C           5.4535    1.0040   -2.0714 C.ar    1  UNL1        0.0589
      5 C           4.3951    0.5343   -2.8270 C.ar    1  UNL1       -0.0460
      6 C           3.0907    0.5366   -2.3425 C.ar    1  UNL1       -0.0397
      7 C           2.8173    1.0147   -1.0775 C.ar    1  UNL1        0.0335
      8 N           1.4823    1.0161   -0.5849 N.am    1  UNL1       -0.2838
      9 C           0.9213   -0.0677    0.1278 C.2     1  UNL1        0.2404
     10 O           1.6374   -1.0678    0.3296 O.2     1  UNL1       -0.2732
     11 C          -0.4480    0.0008    0.6019 C.3     1  UNL1        0.1154
     12 C          -0.9573   -1.1842    1.3344 C.3     1  UNL1       -0.0116
     13 C          -0.1408   -1.4613    2.5792 C.3     1  UNL1       -0.0479
     14 C          -0.8887   -2.4079    3.5054 C.3     1  UNL1       -0.0527
     15 C          -1.8044   -3.3154    2.7005 C.3     1  UNL1       -0.0530
     16 C          -1.0744   -3.6768    1.4196 C.3     1  UNL1       -0.0527
     17 C          -1.0114   -2.4494    0.5227 C.3     1  UNL1       -0.0479
     18 N          -1.4231    0.4023   -0.4122 N.ar    1  UNL1       -0.3112
     19 C          -2.5322    1.1695   -0.1924 C.ar    1  UNL1        0.1425
     20 C          -2.8802    1.6950    1.1271 C.ar    1  UNL1        0.0176
     21 C          -2.0989    2.7200    1.6428 C.ar    1  UNL1       -0.0497
     22 C          -2.3675    3.2730    2.8939 C.ar    1  UNL1       -0.0427
     23 C          -3.4284    2.7972    3.6388 C.ar    1  UNL1        0.0410
     24 CL         -3.7596    3.5012    5.2161 Cl      1  UNL1       -0.0835
     25 C          -4.1876    1.7814    3.1065 C.ar    1  UNL1       -0.0427
     26 C          -3.9384    1.2221    1.8726 C.ar    1  UNL1       -0.0497
     27 N          -3.1683    1.3190   -1.3466 N.ar    1  UNL1       -0.2274
     28 C          -2.5245    0.6781   -2.3362 C.ar    1  UNL1        0.0926
     29 C          -2.7972    0.5519   -3.6702 C.ar    1  UNL1        0.0039
     30 C          -1.9227   -0.1872   -4.4353 C.ar    1  UNL1        0.1605
     31 F          -2.1266   -0.3545   -5.7542 F       1  UNL1       -0.2024
     32 C          -0.8019   -0.7822   -3.8626 C.ar    1  UNL1        0.1605
     33 F           0.0549   -1.5061   -4.6115 F       1  UNL1       -0.2024
     34 C          -0.5544   -0.6383   -2.5225 C.ar    1  UNL1        0.0021
     35 C          -1.4099    0.0972   -1.7192 C.ar    1  UNL1        0.0727
     36 C           3.8792    1.4814   -0.3305 C.ar    1  UNL1       -0.0397
     37 C           5.1741    1.4792   -0.8113 C.ar    1  UNL1       -0.0460
     38 H           7.9224    0.8011   -4.4116 H       1  UNL1        0.2954
     39 H           4.6259    0.1591   -3.8257 H       1  UNL1        0.0626
     40 H           2.3159    0.1491   -3.0019 H       1  UNL1        0.0636
     41 H           0.9316    1.9015   -0.7944 H       1  UNL1        0.1549
     42 H          -0.4730    0.8521    1.3555 H       1  UNL1        0.0627
     43 H          -1.9886   -0.9157    1.7119 H       1  UNL1        0.0325
     44 H          -0.0673   -0.4812    3.1275 H       1  UNL1        0.0269
     45 H           0.8747   -1.8044    2.3950 H       1  UNL1        0.0269
     46 H          -0.1182   -3.0210    4.0165 H       1  UNL1        0.0265
     47 H          -1.4320   -1.8505    4.2902 H       1  UNL1        0.0265
     48 H          -2.7431   -2.8196    2.4266 H       1  UNL1        0.0265
     49 H          -2.0040   -4.2008    3.3125 H       1  UNL1        0.0265
     50 H          -1.6451   -4.4703    0.8866 H       1  UNL1        0.0265
     51 H          -0.0672   -4.0311    1.7125 H       1  UNL1        0.0265
     52 H          -1.9857   -2.4376   -0.0392 H       1  UNL1        0.0269
     53 H          -0.2197   -2.5343   -0.2208 H       1  UNL1        0.0269
     54 H          -1.2796    3.0925    1.0744 H       1  UNL1        0.0625
     55 H          -1.7685    4.0719    3.3104 H       1  UNL1        0.0632
     56 H          -5.0185    1.4013    3.6779 H       1  UNL1        0.0632
     57 H          -4.5254    0.4296    1.4495 H       1  UNL1        0.0625
     58 H          -3.6534    0.9971   -4.1481 H       1  UNL1        0.0669
     59 H           0.3038   -1.0879   -2.0591 H       1  UNL1        0.0668
     60 H           3.7117    1.8727    0.6844 H       1  UNL1        0.0636
     61 H           6.0194    1.8437   -0.2336 H       1  UNL1        0.0626
@<TRIPOS>BOND
     1     1     2    2
     2     2     3    1
     3     2     4    1
     4     4     5   ar
     5     5     6   ar
     6     6     7   ar
     7     7     8    1
     8     8     9   am
     9     9    10    2
    10     9    11    1
    11    11    12    1
    12    12    13    1
    13    13    14    1
    14    14    15    1
    15    15    16    1
    16    16    17    1
    17    11    18    1
    18    18    19   ar
    19    19    20    1
    20    20    21   ar
    21    21    22   ar
    22    22    23   ar
    23    23    24    1
    24    23    25   ar
    25    25    26   ar
    26    19    27   ar
    27    27    28   ar
    28    28    29   ar
    29    29    30   ar
    30    30    31    1
    31    30    32   ar
    32    32    33    1
    33    32    34   ar
    34    34    35   ar
    35     7    36   ar
    36    36    37   ar
    37    37     4   ar
    38    17    12    1
    39    35    18   ar
    40    26    20   ar
    41    35    28   ar
    42     3    38    1
    43     5    39    1
    44     6    40    1
    45     8    41    1
    46    11    42    1
    47    12    43    1
    48    13    44    1
    49    13    45    1
    50    14    46    1
    51    14    47    1
    52    15    48    1
    53    15    49    1
    54    16    50    1
    55    16    51    1
    56    17    52    1
    57    17    53    1
    58    21    54    1
    59    22    55    1
    60    25    56    1
    61    26    57    1
    62    29    58    1
    63    34    59    1
    64    36    60    1
    65    37    61    1
