
     RDKit          3D

 61 65  0  0  0  0  0  0  0  0999 V2000
    7.7330    1.4175   -1.9005 O   0  0  0  0  0  0  0  0  0  0  0  0
    6.8027    0.9816   -2.6224 C   0  0  0  0  0  0  0  0  0  0  0  0
    7.0891    0.5075   -3.8849 O   0  0  0  0  0  0  0  0  0  0  0  0
    5.4535    1.0040   -2.0714 C   0  0  0  0  0  0  0  0  0  0  0  0
    4.3951    0.5343   -2.8270 C   0  0  0  0  0  0  0  0  0  0  0  0
    3.0907    0.5366   -2.3425 C   0  0  0  0  0  0  0  0  0  0  0  0
    2.8173    1.0147   -1.0775 C   0  0  0  0  0  0  0  0  0  0  0  0
    1.4823    1.0161   -0.5849 N   0  0  0  0  0  0  0  0  0  0  0  0
    0.9213   -0.0677    0.1278 C   0  0  0  0  0  0  0  0  0  0  0  0
    1.6374   -1.0678    0.3296 O   0  0  0  0  0  0  0  0  0  0  0  0
   -0.4480    0.0008    0.6019 C   0  0  2  0  0  0  0  0  0  0  0  0
   -0.9573   -1.1842    1.3344 C   0  0  0  0  0  0  0  0  0  0  0  0
   -0.1408   -1.4613    2.5792 C   0  0  0  0  0  0  0  0  0  0  0  0
   -0.8887   -2.4079    3.5054 C   0  0  0  0  0  0  0  0  0  0  0  0
   -1.8044   -3.3154    2.7005 C   0  0  0  0  0  0  0  0  0  0  0  0
   -1.0744   -3.6768    1.4196 C   0  0  0  0  0  0  0  0  0  0  0  0
   -1.0114   -2.4494    0.5227 C   0  0  0  0  0  0  0  0  0  0  0  0
   -1.4231    0.4023   -0.4122 N   0  0  0  0  0  0  0  0  0  0  0  0
   -2.5322    1.1695   -0.1924 C   0  0  0  0  0  0  0  0  0  0  0  0
   -2.8802    1.6950    1.1271 C   0  0  0  0  0  0  0  0  0  0  0  0
   -2.0989    2.7200    1.6428 C   0  0  0  0  0  0  0  0  0  0  0  0
   -2.3675    3.2730    2.8939 C   0  0  0  0  0  0  0  0  0  0  0  0
   -3.4284    2.7972    3.6388 C   0  0  0  0  0  0  0  0  0  0  0  0
   -3.7596    3.5012    5.2161 Cl  0  0  0  0  0  0  0  0  0  0  0  0
   -4.1876    1.7814    3.1065 C   0  0  0  0  0  0  0  0  0  0  0  0
   -3.9384    1.2221    1.8726 C   0  0  0  0  0  0  0  0  0  0  0  0
   -3.1683    1.3190   -1.3466 N   0  0  0  0  0  0  0  0  0  0  0  0
   -2.5245    0.6781   -2.3362 C   0  0  0  0  0  0  0  0  0  0  0  0
   -2.7972    0.5519   -3.6702 C   0  0  0  0  0  0  0  0  0  0  0  0
   -1.9227   -0.1872   -4.4353 C   0  0  0  0  0  0  0  0  0  0  0  0
   -2.1266   -0.3545   -5.7542 F   0  0  0  0  0  0  0  0  0  0  0  0
   -0.8019   -0.7822   -3.8626 C   0  0  0  0  0  0  0  0  0  0  0  0
    0.0549   -1.5061   -4.6115 F   0  0  0  0  0  0  0  0  0  0  0  0
   -0.5544   -0.6383   -2.5225 C   0  0  0  0  0  0  0  0  0  0  0  0
   -1.4099    0.0972   -1.7192 C   0  0  0  0  0  0  0  0  0  0  0  0
    3.8792    1.4814   -0.3305 C   0  0  0  0  0  0  0  0  0  0  0  0
    5.1741    1.4792   -0.8113 C   0  0  0  0  0  0  0  0  0  0  0  0
    7.9224    0.8011   -4.4116 H   0  0  0  0  0  0  0  0  0  0  0  0
    4.6259    0.1591   -3.8257 H   0  0  0  0  0  0  0  0  0  0  0  0
    2.3159    0.1491   -3.0019 H   0  0  0  0  0  0  0  0  0  0  0  0
    0.9316    1.9015   -0.7944 H   0  0  0  0  0  0  0  0  0  0  0  0
   -0.4730    0.8521    1.3555 H   0  0  0  0  0  0  0  0  0  0  0  0
   -1.9886   -0.9157    1.7119 H   0  0  0  0  0  0  0  0  0  0  0  0
   -0.0673   -0.4812    3.1275 H   0  0  0  0  0  0  0  0  0  0  0  0
    0.8747   -1.8044    2.3950 H   0  0  0  0  0  0  0  0  0  0  0  0
   -0.1182   -3.0210    4.0165 H   0  0  0  0  0  0  0  0  0  0  0  0
   -1.4320   -1.8505    4.2902 H   0  0  0  0  0  0  0  0  0  0  0  0
   -2.7431   -2.8196    2.4266 H   0  0  0  0  0  0  0  0  0  0  0  0
   -2.0040   -4.2008    3.3125 H   0  0  0  0  0  0  0  0  0  0  0  0
   -1.6451   -4.4703    0.8866 H   0  0  0  0  0  0  0  0  0  0  0  0
   -0.0672   -4.0311    1.7125 H   0  0  0  0  0  0  0  0  0  0  0  0
   -1.9857   -2.4376   -0.0392 H   0  0  0  0  0  0  0  0  0  0  0  0
   -0.2197   -2.5343   -0.2208 H   0  0  0  0  0  0  0  0  0  0  0  0
   -1.2796    3.0925    1.0744 H   0  0  0  0  0  0  0  0  0  0  0  0
   -1.7685    4.0719    3.3104 H   0  0  0  0  0  0  0  0  0  0  0  0
   -5.0185    1.4013    3.6779 H   0  0  0  0  0  0  0  0  0  0  0  0
   -4.5254    0.4296    1.4495 H   0  0  0  0  0  0  0  0  0  0  0  0
   -3.6534    0.9971   -4.1481 H   0  0  0  0  0  0  0  0  0  0  0  0
    0.3038   -1.0879   -2.0591 H   0  0  0  0  0  0  0  0  0  0  0  0
    3.7117    1.8727    0.6844 H   0  0  0  0  0  0  0  0  0  0  0  0
    6.0194    1.8437   -0.2336 H   0  0  0  0  0  0  0  0  0  0  0  0
  1  2  2  0
  2  3  1  0
  2  4  1  0
  4  5  2  0
  5  6  1  0
  6  7  2  0
  7  8  1  0
  8  9  1  0
  9 10  2  0
  9 11  1  0
 11 12  1  0
 12 13  1  0
 13 14  1  0
 14 15  1  0
 15 16  1  0
 16 17  1  0
 11 18  1  0
 18 19  1  0
 19 20  1  0
 20 21  2  0
 21 22  1  0
 22 23  2  0
 23 24  1  0
 23 25  1  0
 25 26  2  0
 19 27  2  0
 27 28  1  0
 28 29  2  0
 29 30  1  0
 30 31  1  0
 30 32  2  0
 32 33  1  0
 32 34  1  0
 34 35  2  0
  7 36  1  0
 36 37  2  0
 37  4  1  0
 17 12  1  0
 35 18  1  0
 26 20  1  0
 35 28  1  0
  3 38  1  0
  5 39  1  0
  6 40  1  0
  8 41  1  0
 11 42  1  1
 12 43  1  0
 13 44  1  0
 13 45  1  0
 14 46  1  0
 14 47  1  0
 15 48  1  0
 15 49  1  0
 16 50  1  0
 16 51  1  0
 17 52  1  0
 17 53  1  0
 21 54  1  0
 22 55  1  0
 25 56  1  0
 26 57  1  0
 29 58  1  0
 34 59  1  0
 36 60  1  0
 37 61  1  0
M  END
$$$$
