@<TRIPOS>MOLECULE
*****
 44 46 0 0 0
SMALL
GASTEIGER

@<TRIPOS>ATOM
      1 O          -0.2154   -1.6458    0.9001 O.2     1  UNL1       -0.2738
      2 C          -0.4801   -0.4262    0.6179 C.2     1  UNL1        0.2338
      3 N          -1.8244   -0.1879    0.2161 N.am    1  UNL1       -0.3108
      4 C          -2.8355   -1.2168    0.1232 C.3     1  UNL1        0.0261
      5 C          -3.3993   -1.3525   -1.2682 C.3     1  UNL1       -0.0150
      6 C          -3.9525   -0.0639   -1.8088 C.3     1  UNL1        0.0674
      7 S          -5.2165    0.5249   -0.6975 S.O2    1  UNL1       -0.0309
      8 O          -6.3451   -0.4887   -0.6784 O.2     1  UNL1       -0.1744
      9 O          -5.6914    1.8839   -1.0530 O.2     1  UNL1       -0.1744
     10 C          -4.4971    0.4772    0.9455 C.3     1  UNL1        0.0674
     11 C          -3.9363   -0.9148    1.1159 C.3     1  UNL1       -0.0150
     12 C           0.5439    0.6223    0.7108 C.3     1  UNL1        0.1038
     13 C           1.0490    0.9989   -0.7691 C.3     1  UNL1       -0.0239
     14 C           2.5658    1.1782   -0.7147 C.3     1  UNL1       -0.0282
     15 C           3.3918    0.0037   -0.3075 C.3     1  UNL1        0.0727
     16 C           2.3126   -0.9836    0.2797 C.3     1  UNL1        0.0381
     17 N           1.8104    0.1562    1.1208 N.am    1  UNL1       -0.2704
     18 C           2.9321    0.3914    1.8997 C.2     1  UNL1        0.3305
     19 O           2.9573    0.6969    3.1131 O.2     1  UNL1       -0.2502
     20 N           4.0879    0.2093    0.9955 N.am    1  UNL1       -0.1323
     21 O           5.3564    0.2350    1.3294 O.3     1  UNL1       -0.0962
     22 S           6.3354   -0.0119    0.0189 S.O2    1  UNL1        0.2271
     23 O           7.7737    0.1517    0.4896 O.2     1  UNL1       -0.1164
     24 O           6.1330   -1.4345   -0.4615 O.2     1  UNL1       -0.1164
     25 O           6.0262    1.0342   -1.2366 O.3     1  UNL1       -0.2297
     26 H          -2.0687    0.7980   -0.0204 H       1  UNL1        0.1490
     27 H          -2.4405   -2.2174    0.4012 H       1  UNL1        0.0499
     28 H          -2.6423   -1.7834   -1.9335 H       1  UNL1        0.0299
     29 H          -4.2377   -2.0773   -1.2047 H       1  UNL1        0.0299
     30 H          -3.2007    0.6973   -2.0114 H       1  UNL1        0.0500
     31 H          -4.4641   -0.3021   -2.7641 H       1  UNL1        0.0500
     32 H          -5.3144    0.5722    1.7069 H       1  UNL1        0.0500
     33 H          -3.7553    1.2713    1.0237 H       1  UNL1        0.0500
     34 H          -3.4759   -0.9429    2.1417 H       1  UNL1        0.0299
     35 H          -4.7759   -1.6225    1.0296 H       1  UNL1        0.0299
     36 H           0.1511    1.5122    1.1853 H       1  UNL1        0.0597
     37 H           0.6138    1.9854   -0.9303 H       1  UNL1        0.0288
     38 H           0.6976    0.2636   -1.4649 H       1  UNL1        0.0288
     39 H           2.7398    1.9841    0.0467 H       1  UNL1        0.0285
     40 H           2.8352    1.5967   -1.6933 H       1  UNL1        0.0285
     41 H           4.0033   -0.4698   -1.0481 H       1  UNL1        0.0542
     42 H           2.7558   -1.7710    0.8477 H       1  UNL1        0.0484
     43 H           1.6290   -1.2909   -0.4825 H       1  UNL1        0.0484
     44 H           6.0683    1.9595   -0.9344 H       1  UNL1        0.2470
@<TRIPOS>BOND
     1     1     2    2
     2     2     3   am
     3     3     4    1
     4     4     5    1
     5     5     6    1
     6     6     7    1
     7     7     8    2
     8     7     9    2
     9     7    10    1
    10    10    11    1
    11     2    12    1
    12    12    13    1
    13    13    14    1
    14    14    15    1
    15    15    16    1
    16    16    17    1
    17    17    18   am
    18    18    19    2
    19    18    20   am
    20    20    21    1
    21    21    22    1
    22    22    23    2
    23    22    24    2
    24    22    25    1
    25    11     4    1
    26    17    12    1
    27    20    15    1
    28     3    26    1
    29     4    27    1
    30     5    28    1
    31     5    29    1
    32     6    30    1
    33     6    31    1
    34    10    32    1
    35    10    33    1
    36    11    34    1
    37    11    35    1
    38    12    36    1
    39    13    37    1
    40    13    38    1
    41    14    39    1
    42    14    40    1
    43    15    41    1
    44    16    42    1
    45    16    43    1
    46    25    44    1
