
     RDKit          3D

 44 46  0  0  0  0  0  0  0  0999 V2000
   -0.2154   -1.6458    0.9001 O   0  0  0  0  0  0  0  0  0  0  0  0
   -0.4801   -0.4262    0.6179 C   0  0  0  0  0  0  0  0  0  0  0  0
   -1.8244   -0.1879    0.2161 N   0  0  0  0  0  0  0  0  0  0  0  0
   -2.8355   -1.2168    0.1232 C   0  0  0  0  0  0  0  0  0  0  0  0
   -3.3993   -1.3525   -1.2682 C   0  0  0  0  0  0  0  0  0  0  0  0
   -3.9525   -0.0639   -1.8088 C   0  0  0  0  0  0  0  0  0  0  0  0
   -5.2165    0.5249   -0.6975 S   0  0  0  0  0  6  0  0  0  0  0  0
   -6.3451   -0.4887   -0.6784 O   0  0  0  0  0  0  0  0  0  0  0  0
   -5.6914    1.8839   -1.0530 O   0  0  0  0  0  0  0  0  0  0  0  0
   -4.4971    0.4772    0.9455 C   0  0  0  0  0  0  0  0  0  0  0  0
   -3.9363   -0.9148    1.1159 C   0  0  0  0  0  0  0  0  0  0  0  0
    0.5439    0.6223    0.7108 C   0  0  2  0  0  0  0  0  0  0  0  0
    1.0490    0.9989   -0.7691 C   0  0  0  0  0  0  0  0  0  0  0  0
    2.5658    1.1782   -0.7147 C   0  0  0  0  0  0  0  0  0  0  0  0
    3.3918    0.0037   -0.3075 C   0  0  2  0  0  0  0  0  0  0  0  0
    2.3126   -0.9836    0.2797 C   0  0  0  0  0  0  0  0  0  0  0  0
    1.8104    0.1562    1.1208 N   0  0  0  0  0  0  0  0  0  0  0  0
    2.9321    0.3914    1.8997 C   0  0  0  0  0  0  0  0  0  0  0  0
    2.9573    0.6969    3.1131 O   0  0  0  0  0  0  0  0  0  0  0  0
    4.0879    0.2093    0.9955 N   0  0  0  0  0  0  0  0  0  0  0  0
    5.3564    0.2350    1.3294 O   0  0  0  0  0  0  0  0  0  0  0  0
    6.3354   -0.0119    0.0189 S   0  0  0  0  0  6  0  0  0  0  0  0
    7.7737    0.1517    0.4896 O   0  0  0  0  0  0  0  0  0  0  0  0
    6.1330   -1.4345   -0.4615 O   0  0  0  0  0  0  0  0  0  0  0  0
    6.0262    1.0342   -1.2366 O   0  0  0  0  0  0  0  0  0  0  0  0
   -2.0687    0.7980   -0.0204 H   0  0  0  0  0  0  0  0  0  0  0  0
   -2.4405   -2.2174    0.4012 H   0  0  0  0  0  0  0  0  0  0  0  0
   -2.6423   -1.7834   -1.9335 H   0  0  0  0  0  0  0  0  0  0  0  0
   -4.2377   -2.0773   -1.2047 H   0  0  0  0  0  0  0  0  0  0  0  0
   -3.2007    0.6973   -2.0114 H   0  0  0  0  0  0  0  0  0  0  0  0
   -4.4641   -0.3021   -2.7641 H   0  0  0  0  0  0  0  0  0  0  0  0
   -5.3144    0.5722    1.7069 H   0  0  0  0  0  0  0  0  0  0  0  0
   -3.7553    1.2713    1.0237 H   0  0  0  0  0  0  0  0  0  0  0  0
   -3.4759   -0.9429    2.1417 H   0  0  0  0  0  0  0  0  0  0  0  0
   -4.7759   -1.6225    1.0296 H   0  0  0  0  0  0  0  0  0  0  0  0
    0.1511    1.5122    1.1853 H   0  0  0  0  0  0  0  0  0  0  0  0
    0.6138    1.9854   -0.9303 H   0  0  0  0  0  0  0  0  0  0  0  0
    0.6976    0.2636   -1.4649 H   0  0  0  0  0  0  0  0  0  0  0  0
    2.7398    1.9841    0.0467 H   0  0  0  0  0  0  0  0  0  0  0  0
    2.8352    1.5967   -1.6933 H   0  0  0  0  0  0  0  0  0  0  0  0
    4.0033   -0.4698   -1.0481 H   0  0  0  0  0  0  0  0  0  0  0  0
    2.7558   -1.7710    0.8477 H   0  0  0  0  0  0  0  0  0  0  0  0
    1.6290   -1.2909   -0.4825 H   0  0  0  0  0  0  0  0  0  0  0  0
    6.0683    1.9595   -0.9344 H   0  0  0  0  0  0  0  0  0  0  0  0
  1  2  2  0
  2  3  1  0
  3  4  1  0
  4  5  1  0
  5  6  1  0
  6  7  1  0
  7  8  2  0
  7  9  2  0
  7 10  1  0
 10 11  1  0
  2 12  1  0
 12 13  1  0
 13 14  1  0
 14 15  1  0
 15 16  1  0
 16 17  1  0
 17 18  1  0
 18 19  2  0
 18 20  1  0
 20 21  1  0
 21 22  1  0
 22 23  2  0
 22 24  2  0
 22 25  1  0
 11  4  1  0
 17 12  1  0
 20 15  1  0
  3 26  1  0
  4 27  1  0
  5 28  1  0
  5 29  1  0
  6 30  1  0
  6 31  1  0
 10 32  1  0
 10 33  1  0
 11 34  1  0
 11 35  1  0
 12 36  1  1
 13 37  1  0
 13 38  1  0
 14 39  1  0
 14 40  1  0
 15 41  1  6
 16 42  1  0
 16 43  1  0
 25 44  1  0
M  END
$$$$
