@<TRIPOS>MOLECULE
*****
 37 39 0 0 0
SMALL
GASTEIGER

@<TRIPOS>ATOM
      1 C           0.8222    3.2270    1.7244 C.3     1  UNL1       -0.0222
      2 C           0.7210    1.8934    1.0353 C.ar    1  UNL1        0.0426
      3 C           1.8432    1.1691    0.7026 C.ar    1  UNL1        0.0018
      4 C           1.8341   -0.0631    0.0689 C.ar    1  UNL1        0.1324
      5 O           2.8924   -0.7881   -0.2664 O.3     1  UNL1       -0.4543
      6 C           4.1821   -0.9836   -0.3213 C.ar    1  UNL1        0.1492
      7 C           4.6071   -2.1945   -0.9285 C.ar    1  UNL1        0.0700
      8 N           5.9012   -2.4485   -1.0133 N.ar    1  UNL1       -0.2568
      9 C           6.8400   -1.6021   -0.5453 C.ar    1  UNL1        0.0630
     10 C           6.4606   -0.4197    0.0489 C.ar    1  UNL1        0.1449
     11 F           7.3940    0.4590    0.5334 F       1  UNL1       -0.2038
     12 C           5.1223   -0.1143    0.1586 C.ar    1  UNL1        0.0189
     13 C           0.5289   -0.5548   -0.2301 C.ar    1  UNL1        0.0112
     14 C          -0.5692    0.1750    0.1062 C.ar    1  UNL1        0.1295
     15 C          -1.8966   -0.3957   -0.2342 C.2     1  UNL1        0.2678
     16 O          -1.9846   -1.4987   -0.8043 O.2     1  UNL1       -0.2681
     17 N          -3.0705    0.3246    0.0945 N.am    1  UNL1       -0.2650
     18 C          -4.3948   -0.0626   -0.1514 C.ar    1  UNL1        0.1282
     19 C          -4.8127   -1.2074   -0.7546 C.ar    1  UNL1       -0.0213
     20 C          -6.1622   -1.5013   -0.9535 C.ar    1  UNL1       -0.0543
     21 C          -7.1105   -0.6024   -0.5250 C.ar    1  UNL1       -0.0071
     22 C          -6.6728    0.5458    0.0807 C.ar    1  UNL1        0.2149
     23 F          -7.5924    1.4444    0.5101 F       1  UNL1       -0.1838
     24 N          -5.3712    0.7874    0.2510 N.ar    1  UNL1       -0.2040
     25 N          -0.4676    1.3638    0.7209 N.ar    1  UNL1       -0.2470
     26 H           0.1020    3.9102    1.2524 H       1  UNL1        0.0293
     27 H           1.8484    3.6352    1.5211 H       1  UNL1        0.0293
     28 H           0.7199    3.1370    2.8080 H       1  UNL1        0.0293
     29 H           2.7955    1.6089    0.9624 H       1  UNL1        0.0672
     30 H           3.8692   -2.8999   -1.3171 H       1  UNL1        0.0867
     31 H           7.8974   -1.8184   -0.6191 H       1  UNL1        0.0859
     32 H           4.8816    0.8424    0.6417 H       1  UNL1        0.0684
     33 H           0.4831   -1.5181   -0.7270 H       1  UNL1        0.0677
     34 H          -2.8618    1.2623    0.5840 H       1  UNL1        0.1566
     35 H          -4.1048   -1.9178   -1.0948 H       1  UNL1        0.0652
     36 H          -6.4932   -2.4086   -1.4316 H       1  UNL1        0.0620
     37 H          -8.1813   -0.7857   -0.6571 H       1  UNL1        0.0662
@<TRIPOS>BOND
     1     1     2    1
     2     2     3   ar
     3     3     4   ar
     4     4     5    1
     5     5     6    1
     6     6     7   ar
     7     7     8   ar
     8     8     9   ar
     9     9    10   ar
    10    10    11    1
    11    10    12   ar
    12     4    13   ar
    13    13    14   ar
    14    14    15    1
    15    15    16    2
    16    15    17   am
    17    17    18    1
    18    18    19   ar
    19    19    20   ar
    20    20    21   ar
    21    21    22   ar
    22    22    23    1
    23    22    24   ar
    24    14    25   ar
    25    25     2   ar
    26    12     6   ar
    27    24    18   ar
    28     1    26    1
    29     1    27    1
    30     1    28    1
    31     3    29    1
    32     7    30    1
    33     9    31    1
    34    12    32    1
    35    13    33    1
    36    17    34    1
    37    19    35    1
    38    20    36    1
    39    21    37    1
