
     RDKit          3D

 37 39  0  0  0  0  0  0  0  0999 V2000
    0.8222    3.2270    1.7244 C   0  0  0  0  0  0  0  0  0  0  0  0
    0.7210    1.8934    1.0353 C   0  0  0  0  0  0  0  0  0  0  0  0
    1.8432    1.1691    0.7026 C   0  0  0  0  0  0  0  0  0  0  0  0
    1.8341   -0.0631    0.0689 C   0  0  0  0  0  0  0  0  0  0  0  0
    2.8924   -0.7881   -0.2664 O   0  0  0  0  0  0  0  0  0  0  0  0
    4.1821   -0.9836   -0.3213 C   0  0  0  0  0  0  0  0  0  0  0  0
    4.6071   -2.1945   -0.9285 C   0  0  0  0  0  0  0  0  0  0  0  0
    5.9012   -2.4485   -1.0133 N   0  0  0  0  0  0  0  0  0  0  0  0
    6.8400   -1.6021   -0.5453 C   0  0  0  0  0  0  0  0  0  0  0  0
    6.4606   -0.4197    0.0489 C   0  0  0  0  0  0  0  0  0  0  0  0
    7.3940    0.4590    0.5334 F   0  0  0  0  0  0  0  0  0  0  0  0
    5.1223   -0.1143    0.1586 C   0  0  0  0  0  0  0  0  0  0  0  0
    0.5289   -0.5548   -0.2301 C   0  0  0  0  0  0  0  0  0  0  0  0
   -0.5692    0.1750    0.1062 C   0  0  0  0  0  0  0  0  0  0  0  0
   -1.8966   -0.3957   -0.2342 C   0  0  0  0  0  0  0  0  0  0  0  0
   -1.9846   -1.4987   -0.8043 O   0  0  0  0  0  0  0  0  0  0  0  0
   -3.0705    0.3246    0.0945 N   0  0  0  0  0  0  0  0  0  0  0  0
   -4.3948   -0.0626   -0.1514 C   0  0  0  0  0  0  0  0  0  0  0  0
   -4.8127   -1.2074   -0.7546 C   0  0  0  0  0  0  0  0  0  0  0  0
   -6.1622   -1.5013   -0.9535 C   0  0  0  0  0  0  0  0  0  0  0  0
   -7.1105   -0.6024   -0.5250 C   0  0  0  0  0  0  0  0  0  0  0  0
   -6.6728    0.5458    0.0807 C   0  0  0  0  0  0  0  0  0  0  0  0
   -7.5924    1.4444    0.5101 F   0  0  0  0  0  0  0  0  0  0  0  0
   -5.3712    0.7874    0.2510 N   0  0  0  0  0  0  0  0  0  0  0  0
   -0.4676    1.3638    0.7209 N   0  0  0  0  0  0  0  0  0  0  0  0
    0.1020    3.9102    1.2524 H   0  0  0  0  0  0  0  0  0  0  0  0
    1.8484    3.6352    1.5211 H   0  0  0  0  0  0  0  0  0  0  0  0
    0.7199    3.1370    2.8080 H   0  0  0  0  0  0  0  0  0  0  0  0
    2.7955    1.6089    0.9624 H   0  0  0  0  0  0  0  0  0  0  0  0
    3.8692   -2.8999   -1.3171 H   0  0  0  0  0  0  0  0  0  0  0  0
    7.8974   -1.8184   -0.6191 H   0  0  0  0  0  0  0  0  0  0  0  0
    4.8816    0.8424    0.6417 H   0  0  0  0  0  0  0  0  0  0  0  0
    0.4831   -1.5181   -0.7270 H   0  0  0  0  0  0  0  0  0  0  0  0
   -2.8618    1.2623    0.5840 H   0  0  0  0  0  0  0  0  0  0  0  0
   -4.1048   -1.9178   -1.0948 H   0  0  0  0  0  0  0  0  0  0  0  0
   -6.4932   -2.4086   -1.4316 H   0  0  0  0  0  0  0  0  0  0  0  0
   -8.1813   -0.7857   -0.6571 H   0  0  0  0  0  0  0  0  0  0  0  0
  1  2  1  0
  2  3  2  0
  3  4  1  0
  4  5  1  0
  5  6  1  0
  6  7  2  0
  7  8  1  0
  8  9  2  0
  9 10  1  0
 10 11  1  0
 10 12  2  0
  4 13  2  0
 13 14  1  0
 14 15  1  0
 15 16  2  0
 15 17  1  0
 17 18  1  0
 18 19  2  0
 19 20  1  0
 20 21  2  0
 21 22  1  0
 22 23  1  0
 22 24  2  0
 14 25  2  0
 25  2  1  0
 12  6  1  0
 24 18  1  0
  1 26  1  0
  1 27  1  0
  1 28  1  0
  3 29  1  0
  7 30  1  0
  9 31  1  0
 12 32  1  0
 13 33  1  0
 17 34  1  0
 19 35  1  0
 20 36  1  0
 21 37  1  0
M  END
$$$$
