@<TRIPOS>MOLECULE
*****
 44 45 0 0 0
SMALL
GASTEIGER

@<TRIPOS>ATOM
      1 C           4.8482    1.6159    0.9972 C.3     1  UNL1       -0.0306
      2 C           3.9900    0.8337    1.9325 C.3     1  UNL1        0.0900
      3 O           2.9900    0.0522    1.3246 O.3     1  UNL1       -0.4616
      4 C           1.9571    0.4737    0.5412 C.2     1  UNL1        0.3375
      5 O           2.6019    1.4883    0.8689 O.2     1  UNL1       -0.2452
      6 C           1.0025   -0.4765   -0.0134 C.2     1  UNL1        0.0652
      7 C           1.1293   -1.7671    0.2377 C.2     1  UNL1        0.0157
      8 C           2.1990   -2.3731    1.0682 C.3     1  UNL1       -0.0260
      9 N           0.1347   -2.5484   -0.3642 N.pl3   1  UNL1       -0.3207
     10 C          -0.9576   -2.1741   -1.1797 C.2     1  UNL1        0.0157
     11 C          -1.9487   -3.0772   -1.7637 C.3     1  UNL1       -0.0260
     12 C          -1.0042   -0.8767   -1.3746 C.2     1  UNL1        0.0652
     13 C          -0.0664    0.1455   -0.8426 C.3     1  UNL1        0.0520
     14 C          -0.7908    1.1988   -0.0819 C.ar    1  UNL1       -0.0154
     15 C          -0.5040    2.5373   -0.2668 C.ar    1  UNL1        0.0633
     16 CL          0.7167    3.0672   -1.4031 Cl      1  UNL1       -0.0817
     17 C          -1.2274    3.4324    0.4874 C.ar    1  UNL1        0.0595
     18 CL         -0.9658    5.1512    0.3492 Cl      1  UNL1       -0.0820
     19 C          -2.1820    2.9800    1.3725 C.ar    1  UNL1       -0.0420
     20 C          -2.4608    1.6265    1.5492 C.ar    1  UNL1       -0.0600
     21 C          -1.7318    0.7210    0.7893 C.ar    1  UNL1       -0.0562
     22 C          -2.0004   -0.1710   -2.1646 C.2     1  UNL1        0.3373
     23 O          -2.7647    0.5662   -2.7957 O.2     1  UNL1       -0.2452
     24 O          -2.9412   -0.9910   -2.7198 O.3     1  UNL1       -0.4646
     25 C          -4.0293   -0.6672   -3.5257 C.3     1  UNL1        0.0820
     26 H           4.8180    1.0825    0.0144 H       1  UNL1        0.0262
     27 H           4.5656    2.6860    0.9297 H       1  UNL1        0.0262
     28 H           5.9137    1.5669    1.3797 H       1  UNL1        0.0262
     29 H           3.6235    1.4879    2.7521 H       1  UNL1        0.0695
     30 H           4.6367    0.0771    2.4775 H       1  UNL1        0.0695
     31 H           2.1685   -1.9790    2.1011 H       1  UNL1        0.0290
     32 H           2.0309   -3.4761    1.0941 H       1  UNL1        0.0290
     33 H           3.1903   -2.1469    0.5912 H       1  UNL1        0.0290
     34 H           0.2038   -3.5923   -0.1843 H       1  UNL1        0.1516
     35 H          -2.9775   -2.8738   -1.4142 H       1  UNL1        0.0290
     36 H          -1.7418   -4.1279   -1.4337 H       1  UNL1        0.0290
     37 H          -1.8785   -3.0198   -2.8687 H       1  UNL1        0.0290
     38 H           0.4301    0.6142   -1.7154 H       1  UNL1        0.0452
     39 H          -2.7510    3.6988    1.9655 H       1  UNL1        0.0633
     40 H          -3.2391    1.3618    2.2787 H       1  UNL1        0.0618
     41 H          -1.9496   -0.3151    0.9299 H       1  UNL1        0.0621
     42 H          -3.6665   -0.2277   -4.4949 H       1  UNL1        0.0661
     43 H          -4.7393   -0.0087   -3.0156 H       1  UNL1        0.0661
     44 H          -4.6319   -1.5755   -3.8007 H       1  UNL1        0.0661
@<TRIPOS>BOND
     1     1     2    1
     2     2     3    1
     3     3     4    1
     4     4     5    2
     5     4     6    1
     6     6     7    2
     7     7     8    1
     8     7     9    1
     9     9    10    1
    10    10    11    1
    11    10    12    2
    12    12    13    1
    13    13    14    1
    14    14    15   ar
    15    15    16    1
    16    15    17   ar
    17    17    18    1
    18    17    19   ar
    19    19    20   ar
    20    20    21   ar
    21    12    22    1
    22    22    23    2
    23    22    24    1
    24    24    25    1
    25    13     6    1
    26    21    14   ar
    27     1    26    1
    28     1    27    1
    29     1    28    1
    30     2    29    1
    31     2    30    1
    32     8    31    1
    33     8    32    1
    34     8    33    1
    35     9    34    1
    36    11    35    1
    37    11    36    1
    38    11    37    1
    39    13    38    1
    40    19    39    1
    41    20    40    1
    42    21    41    1
    43    25    42    1
    44    25    43    1
    45    25    44    1
