
     RDKit          3D

 45 49  0  0  0  0  0  0  0  0999 V2000
    5.3362    1.2378   -1.2506 N   0  0  0  0  0  0  0  0  0  0  0  0
    3.9712    0.9777   -0.9820 C   0  0  0  0  0  0  0  0  0  0  0  0
    3.1183    1.6396   -1.6245 O   0  0  0  0  0  0  0  0  0  0  0  0
    3.5427   -0.0158   -0.0011 C   0  0  0  0  0  0  0  0  0  0  0  0
    4.3582   -0.8198    0.7781 C   0  0  0  0  0  0  0  0  0  0  0  0
    3.5211   -1.5600    1.5158 N   0  0  0  0  0  0  0  0  0  0  0  0
    2.2206   -1.2353    1.2134 C   0  0  0  0  0  0  0  0  0  0  0  0
    1.0221   -1.7097    1.6959 C   0  0  0  0  0  0  0  0  0  0  0  0
   -0.1509   -1.1630    1.1753 C   0  0  0  0  0  0  0  0  0  0  0  0
   -0.0971   -0.1815    0.2107 C   0  0  0  0  0  0  0  0  0  0  0  0
   -1.3190    0.3750   -0.3155 C   0  0  0  0  0  0  0  0  0  0  0  0
   -2.2896   -0.3540   -0.9842 C   0  0  0  0  0  0  0  0  0  0  0  0
   -2.2252   -1.7843   -1.2553 C   0  0  0  0  0  0  0  0  0  0  0  0
   -3.1914   -2.5953   -0.7221 C   0  0  0  0  0  0  0  0  0  0  0  0
   -3.2004   -3.9462   -0.9303 C   0  0  0  0  0  0  0  0  0  0  0  0
   -2.2046   -4.5046   -1.7008 C   0  0  0  0  0  0  0  0  0  0  0  0
   -2.2038   -5.8393   -1.9129 F   0  0  0  0  0  0  0  0  0  0  0  0
   -1.2261   -3.7106   -2.2451 C   0  0  0  0  0  0  0  0  0  0  0  0
   -1.2343   -2.3403   -2.0222 C   0  0  0  0  0  0  0  0  0  0  0  0
   -3.2416    0.5338   -1.2982 N   0  0  0  0  0  0  0  0  0  0  0  0
   -2.8906    1.7550   -0.8521 C   0  0  0  0  0  0  0  0  0  0  0  0
   -1.6861    1.6570   -0.2362 N   0  0  0  0  0  0  0  0  0  0  0  0
   -0.9863    2.7427    0.3628 C   0  0  0  0  0  0  0  0  0  0  0  0
    0.0389    2.4709    1.3959 C   0  0  0  0  0  0  0  0  0  0  0  0
   -0.4899    3.6826    2.1749 C   0  0  0  0  0  0  0  0  0  0  0  0
    0.1791    4.8469    1.9006 F   0  0  0  0  0  0  0  0  0  0  0  0
   -0.7321    3.4289    3.5079 F   0  0  0  0  0  0  0  0  0  0  0  0
   -1.7835    3.5315    1.3976 C   0  0  0  0  0  0  0  0  0  0  0  0
    1.1119    0.2064   -0.1870 N   0  0  0  0  0  0  0  0  0  0  0  0
    2.2357   -0.2849    0.2800 N   0  0  0  0  0  0  0  0  0  0  0  0
    5.9502    1.4614   -0.4139 H   0  0  0  0  0  0  0  0  0  0  0  0
    5.7300    1.2131   -2.2219 H   0  0  0  0  0  0  0  0  0  0  0  0
    5.4523   -0.8276    0.7718 H   0  0  0  0  0  0  0  0  0  0  0  0
    1.0449   -2.4780    2.4500 H   0  0  0  0  0  0  0  0  0  0  0  0
   -1.0731   -1.5563    1.5745 H   0  0  0  0  0  0  0  0  0  0  0  0
   -3.9805   -2.1625   -0.1132 H   0  0  0  0  0  0  0  0  0  0  0  0
   -3.9845   -4.5936   -0.4964 H   0  0  0  0  0  0  0  0  0  0  0  0
   -0.4513   -4.1660   -2.8482 H   0  0  0  0  0  0  0  0  0  0  0  0
   -0.4645   -1.7118   -2.4501 H   0  0  0  0  0  0  0  0  0  0  0  0
   -3.5106    2.6325   -0.9927 H   0  0  0  0  0  0  0  0  0  0  0  0
   -0.5811    3.4956   -0.3788 H   0  0  0  0  0  0  0  0  0  0  0  0
    1.1012    2.6959    1.0962 H   0  0  0  0  0  0  0  0  0  0  0  0
   -0.0330    1.5928    2.0313 H   0  0  0  0  0  0  0  0  0  0  0  0
   -2.1819    4.4872    1.0107 H   0  0  0  0  0  0  0  0  0  0  0  0
   -2.5214    2.8761    1.8918 H   0  0  0  0  0  0  0  0  0  0  0  0
  1  2  1  0
  2  3  2  0
  2  4  1  0
  4  5  2  0
  5  6  1  0
  6  7  2  0
  7  8  1  0
  8  9  2  0
  9 10  1  0
 10 11  1  0
 11 12  2  0
 12 13  1  0
 13 14  2  0
 14 15  1  0
 15 16  2  0
 16 17  1  0
 16 18  1  0
 18 19  2  0
 12 20  1  0
 20 21  2  0
 21 22  1  0
 22 23  1  0
 23 24  1  0
 24 25  1  0
 25 26  1  0
 25 27  1  0
 25 28  1  0
 10 29  2  0
 29 30  1  0
 30  4  1  0
 30  7  1  0
 22 11  1  0
 28 23  1  0
 19 13  1  0
  1 31  1  0
  1 32  1  0
  5 33  1  0
  8 34  1  0
  9 35  1  0
 14 36  1  0
 15 37  1  0
 18 38  1  0
 19 39  1  0
 21 40  1  0
 23 41  1  0
 24 42  1  0
 24 43  1  0
 28 44  1  0
 28 45  1  0
M  END
$$$$
