@<TRIPOS>MOLECULE
*****
 45 49 0 0 0
SMALL
GASTEIGER

@<TRIPOS>ATOM
      1 N           5.3362    1.2378   -1.2506 N.am    1  UNL1       -0.3240
      2 C           3.9712    0.9777   -0.9820 C.2     1  UNL1        0.2615
      3 O           3.1183    1.6396   -1.6245 O.2     1  UNL1       -0.2687
      4 C           3.5427   -0.0158   -0.0011 C.ar    1  UNL1        0.1470
      5 C           4.3582   -0.8198    0.7781 C.ar    1  UNL1        0.0605
      6 N           3.5211   -1.5600    1.5158 N.ar    1  UNL1       -0.2339
      7 C           2.2206   -1.2353    1.2134 C.ar    1  UNL1        0.1549
      8 C           1.0221   -1.7097    1.6959 C.ar    1  UNL1       -0.0153
      9 C          -0.1509   -1.1630    1.1753 C.ar    1  UNL1       -0.0290
     10 C          -0.0971   -0.1815    0.2107 C.ar    1  UNL1        0.1103
     11 C          -1.3190    0.3750   -0.3155 C.ar    1  UNL1        0.0969
     12 C          -2.2896   -0.3540   -0.9842 C.ar    1  UNL1        0.0982
     13 C          -2.2252   -1.7843   -1.2553 C.ar    1  UNL1        0.0027
     14 C          -3.1914   -2.5953   -0.7221 C.ar    1  UNL1       -0.0498
     15 C          -3.2004   -3.9462   -0.9303 C.ar    1  UNL1       -0.0258
     16 C          -2.2046   -4.5046   -1.7008 C.ar    1  UNL1        0.1234
     17 F          -2.2038   -5.8393   -1.9129 F       1  UNL1       -0.2055
     18 C          -1.2261   -3.7106   -2.2451 C.ar    1  UNL1       -0.0258
     19 C          -1.2343   -2.3403   -2.0222 C.ar    1  UNL1       -0.0498
     20 N          -3.2416    0.5338   -1.2982 N.ar    1  UNL1       -0.2351
     21 C          -2.8906    1.7550   -0.8521 C.ar    1  UNL1        0.0974
     22 N          -1.6861    1.6570   -0.2362 N.ar    1  UNL1       -0.3249
     23 C          -0.9863    2.7427    0.3628 C.3     1  UNL1        0.0468
     24 C           0.0389    2.4709    1.3959 C.3     1  UNL1        0.0319
     25 C          -0.4899    3.6826    2.1749 C.3     1  UNL1        0.2527
     26 F           0.1791    4.8469    1.9006 F       1  UNL1       -0.2055
     27 F          -0.7321    3.4289    3.5079 F       1  UNL1       -0.2055
     28 C          -1.7835    3.5315    1.3976 C.3     1  UNL1        0.0319
     29 N           1.1119    0.2064   -0.1870 N.ar    1  UNL1       -0.1628
     30 N           2.2357   -0.2849    0.2800 N.ar    1  UNL1       -0.2076
     31 H           5.9502    1.4614   -0.4139 H       1  UNL1        0.1453
     32 H           5.7300    1.2131   -2.2219 H       1  UNL1        0.1453
     33 H           5.4523   -0.8276    0.7718 H       1  UNL1        0.0854
     34 H           1.0449   -2.4780    2.4500 H       1  UNL1        0.0655
     35 H          -1.0731   -1.5563    1.5745 H       1  UNL1        0.0641
     36 H          -3.9805   -2.1625   -0.1132 H       1  UNL1        0.0625
     37 H          -3.9845   -4.5936   -0.4964 H       1  UNL1        0.0646
     38 H          -0.4513   -4.1660   -2.8482 H       1  UNL1        0.0646
     39 H          -0.4645   -1.7118   -2.4501 H       1  UNL1        0.0625
     40 H          -3.5106    2.6325   -0.9927 H       1  UNL1        0.1029
     41 H          -0.5811    3.4956   -0.3788 H       1  UNL1        0.0532
     42 H           1.1012    2.6959    1.0962 H       1  UNL1        0.0343
     43 H          -0.0330    1.5928    2.0313 H       1  UNL1        0.0343
     44 H          -2.1819    4.4872    1.0107 H       1  UNL1        0.0343
     45 H          -2.5214    2.8761    1.8918 H       1  UNL1        0.0343
@<TRIPOS>BOND
     1     1     2   am
     2     2     3    2
     3     2     4    1
     4     4     5   ar
     5     5     6   ar
     6     6     7   ar
     7     7     8   ar
     8     8     9   ar
     9     9    10   ar
    10    10    11    1
    11    11    12   ar
    12    12    13    1
    13    13    14   ar
    14    14    15   ar
    15    15    16   ar
    16    16    17    1
    17    16    18   ar
    18    18    19   ar
    19    12    20   ar
    20    20    21   ar
    21    21    22   ar
    22    22    23    1
    23    23    24    1
    24    24    25    1
    25    25    26    1
    26    25    27    1
    27    25    28    1
    28    10    29   ar
    29    29    30   ar
    30    30     4   ar
    31    30     7   ar
    32    22    11   ar
    33    28    23    1
    34    19    13   ar
    35     1    31    1
    36     1    32    1
    37     5    33    1
    38     8    34    1
    39     9    35    1
    40    14    36    1
    41    15    37    1
    42    18    38    1
    43    19    39    1
    44    21    40    1
    45    23    41    1
    46    24    42    1
    47    24    43    1
    48    28    44    1
    49    28    45    1
