@<TRIPOS>MOLECULE
*****
 88 88 0 0 0
SMALL
GASTEIGER

@<TRIPOS>ATOM
      1 C          10.6837    2.9166   -1.0255 C.3     1  UNL1       -0.0653
      2 C           9.3694    3.4807   -0.5912 C.3     1  UNL1       -0.0559
      3 C           8.2945    2.4012   -0.6924 C.3     1  UNL1       -0.0533
      4 C           7.0158    3.0339   -0.2438 C.3     1  UNL1       -0.0531
      5 C           5.8861    2.0619   -0.3263 C.3     1  UNL1       -0.0531
      6 C           6.1441    0.8824    0.5607 C.3     1  UNL1       -0.0531
      7 C           4.9803   -0.0819    0.4713 C.3     1  UNL1       -0.0531
      8 C           3.7099    0.5606    0.8986 C.3     1  UNL1       -0.0531
      9 C           2.5683   -0.4447    0.8370 C.3     1  UNL1       -0.0529
     10 C           2.3618   -0.9926   -0.5345 C.3     1  UNL1       -0.0497
     11 C           1.2233   -1.9877   -0.6051 C.3     1  UNL1       -0.0155
     12 C          -0.0815   -1.3470   -0.1902 C.3     1  UNL1        0.1065
     13 C          -0.3739   -0.1785   -1.1486 C.3     1  UNL1        0.0223
     14 C          -1.6490    0.5031   -0.7804 C.3     1  UNL1        0.1193
     15 O          -2.8290   -0.2295   -0.7759 O.3     1  UNL1       -0.4601
     16 C          -3.3194    0.3225   -1.9389 C.2     1  UNL1        0.3141
     17 O          -4.3433    0.0707   -2.6585 O.2     1  UNL1       -0.2504
     18 C          -2.2267    1.2520   -1.9790 C.3     1  UNL1        0.0934
     19 C          -2.3429    2.6921   -1.7274 C.3     1  UNL1       -0.0366
     20 C          -3.1487    3.1925   -0.6005 C.3     1  UNL1       -0.0522
     21 C          -4.5931    2.8233   -0.6765 C.3     1  UNL1       -0.0530
     22 C          -5.3460    3.4460    0.5132 C.3     1  UNL1       -0.0533
     23 C          -6.7857    3.0508    0.3987 C.3     1  UNL1       -0.0559
     24 C          -7.5711    3.6551    1.5669 C.3     1  UNL1       -0.0653
     25 O          -1.1724   -2.1988   -0.3211 O.3     1  UNL1       -0.4599
     26 C          -2.0357   -2.4220    0.7224 C.2     1  UNL1        0.3279
     27 O          -1.7813   -1.8134    1.7941 O.2     1  UNL1       -0.2487
     28 C          -3.2389   -3.3356    0.6294 C.3     1  UNL1        0.1204
     29 C          -3.2255   -4.2403    1.8057 C.3     1  UNL1       -0.0218
     30 C          -4.3920   -5.2068    1.8208 C.3     1  UNL1       -0.0445
     31 C          -4.2610   -6.0636    3.0573 C.3     1  UNL1       -0.0626
     32 C          -5.7241   -4.4929    1.7743 C.3     1  UNL1       -0.0626
     33 N          -3.2629   -4.0030   -0.6423 N.am    1  UNL1       -0.3050
     34 C          -2.1108   -4.6569   -1.1324 C.2     1  UNL1        0.2006
     35 O          -1.0088   -4.7201   -0.5249 O.2     1  UNL1       -0.2795
     36 H          11.2882    2.6426   -0.1367 H       1  UNL1        0.0230
     37 H          10.5635    2.0044   -1.6512 H       1  UNL1        0.0230
     38 H          11.2491    3.6904   -1.6106 H       1  UNL1        0.0230
     39 H           9.4016    3.7696    0.4799 H       1  UNL1        0.0263
     40 H           9.0456    4.3166   -1.2478 H       1  UNL1        0.0263
     41 H           8.5420    1.5726    0.0094 H       1  UNL1        0.0265
     42 H           8.1821    2.0246   -1.7064 H       1  UNL1        0.0265
     43 H           6.7425    3.9283   -0.8470 H       1  UNL1        0.0265
     44 H           7.0860    3.3609    0.8274 H       1  UNL1        0.0265
     45 H           5.7615    1.6566   -1.3583 H       1  UNL1        0.0265
     46 H           4.9550    2.5961   -0.0270 H       1  UNL1        0.0265
     47 H           6.2094    1.1950    1.6292 H       1  UNL1        0.0265
     48 H           7.0596    0.3223    0.2446 H       1  UNL1        0.0265
     49 H           4.8770   -0.3645   -0.6031 H       1  UNL1        0.0265
     50 H           5.1471   -0.9781    1.1077 H       1  UNL1        0.0265
     51 H           3.7598    1.0592    1.8784 H       1  UNL1        0.0265
     52 H           3.4088    1.3803    0.1798 H       1  UNL1        0.0265
     53 H           2.7223   -1.2228    1.6082 H       1  UNL1        0.0265
     54 H           1.6677    0.1387    1.1930 H       1  UNL1        0.0265
     55 H           3.2765   -1.5899   -0.7905 H       1  UNL1        0.0266
     56 H           2.3017   -0.1977   -1.3021 H       1  UNL1        0.0266
     57 H           1.1228   -2.2645   -1.6782 H       1  UNL1        0.0301
     58 H           1.4694   -2.8207    0.0585 H       1  UNL1        0.0301
     59 H          -0.0288   -0.9200    0.8257 H       1  UNL1        0.0735
     60 H          -0.4856   -0.6634   -2.1558 H       1  UNL1        0.0337
     61 H           0.4292    0.5721   -1.1327 H       1  UNL1        0.0337
     62 H          -1.4777    1.1602    0.1028 H       1  UNL1        0.0743
     63 H          -1.5299    1.1072   -2.8769 H       1  UNL1        0.0450
     64 H          -1.2825    3.0789   -1.5739 H       1  UNL1        0.0274
     65 H          -2.6336    3.1965   -2.7096 H       1  UNL1        0.0274
     66 H          -3.1066    4.3269   -0.5456 H       1  UNL1        0.0266
     67 H          -2.7768    2.7819    0.3802 H       1  UNL1        0.0266
     68 H          -5.0101    3.1702   -1.6336 H       1  UNL1        0.0265
     69 H          -4.7295    1.7163   -0.6018 H       1  UNL1        0.0265
     70 H          -4.8905    3.0427    1.4201 H       1  UNL1        0.0265
     71 H          -5.2165    4.5531    0.4579 H       1  UNL1        0.0265
     72 H          -6.8732    1.9498    0.5227 H       1  UNL1        0.0263
     73 H          -7.2525    3.3883   -0.5278 H       1  UNL1        0.0263
     74 H          -8.6107    3.2707    1.5263 H       1  UNL1        0.0230
     75 H          -7.5323    4.7623    1.4399 H       1  UNL1        0.0230
     76 H          -7.0690    3.3699    2.5188 H       1  UNL1        0.0230
     77 H          -4.0872   -2.5611    0.6668 H       1  UNL1        0.0614
     78 H          -3.1716   -3.6549    2.7234 H       1  UNL1        0.0291
     79 H          -2.3094   -4.8584    1.7512 H       1  UNL1        0.0291
     80 H          -4.3712   -5.8852    0.9478 H       1  UNL1        0.0296
     81 H          -3.5772   -5.5868    3.8095 H       1  UNL1        0.0232
     82 H          -5.2673   -6.0920    3.5262 H       1  UNL1        0.0232
     83 H          -3.8870   -7.0682    2.8191 H       1  UNL1        0.0232
     84 H          -5.9996   -4.1956    0.7518 H       1  UNL1        0.0232
     85 H          -5.7841   -3.6780    2.5062 H       1  UNL1        0.0232
     86 H          -6.4906   -5.2518    2.0890 H       1  UNL1        0.0232
     87 H          -4.1271   -4.0135   -1.2189 H       1  UNL1        0.1492
     88 H          -2.1039   -5.1679   -2.1084 H       1  UNL1        0.1251
@<TRIPOS>BOND
     1     1     2    1
     2     2     3    1
     3     3     4    1
     4     4     5    1
     5     5     6    1
     6     6     7    1
     7     7     8    1
     8     8     9    1
     9     9    10    1
    10    10    11    1
    11    11    12    1
    12    12    13    1
    13    13    14    1
    14    14    15    1
    15    15    16    1
    16    16    17    2
    17    16    18    1
    18    18    19    1
    19    19    20    1
    20    20    21    1
    21    21    22    1
    22    22    23    1
    23    23    24    1
    24    12    25    1
    25    25    26    1
    26    26    27    2
    27    26    28    1
    28    28    29    1
    29    29    30    1
    30    30    31    1
    31    30    32    1
    32    28    33    1
    33    33    34   am
    34    34    35    2
    35    18    14    1
    36     1    36    1
    37     1    37    1
    38     1    38    1
    39     2    39    1
    40     2    40    1
    41     3    41    1
    42     3    42    1
    43     4    43    1
    44     4    44    1
    45     5    45    1
    46     5    46    1
    47     6    47    1
    48     6    48    1
    49     7    49    1
    50     7    50    1
    51     8    51    1
    52     8    52    1
    53     9    53    1
    54     9    54    1
    55    10    55    1
    56    10    56    1
    57    11    57    1
    58    11    58    1
    59    12    59    1
    60    13    60    1
    61    13    61    1
    62    14    62    1
    63    18    63    1
    64    19    64    1
    65    19    65    1
    66    20    66    1
    67    20    67    1
    68    21    68    1
    69    21    69    1
    70    22    70    1
    71    22    71    1
    72    23    72    1
    73    23    73    1
    74    24    74    1
    75    24    75    1
    76    24    76    1
    77    28    77    1
    78    29    78    1
    79    29    79    1
    80    30    80    1
    81    31    81    1
    82    31    82    1
    83    31    83    1
    84    32    84    1
    85    32    85    1
    86    32    86    1
    87    33    87    1
    88    34    88    1
