
     RDKit          3D

 48 51  0  0  0  0  0  0  0  0999 V2000
   -2.8737    4.5257   -0.6664 C   0  0  0  0  0  0  0  0  0  0  0  0
   -2.0715    3.5157   -0.1206 O   0  0  0  0  0  0  0  0  0  0  0  0
   -1.9830    2.2491   -0.7197 C   0  0  0  0  0  0  0  0  0  0  0  0
   -2.6657    1.9660   -1.8362 N   0  0  0  0  0  0  0  0  0  0  0  0
   -2.5560    0.7498   -2.3768 C   0  0  0  0  0  0  0  0  0  0  0  0
   -1.7425   -0.1758   -1.7671 C   0  0  0  0  0  0  0  0  0  0  0  0
   -1.0317    0.0945   -0.6186 C   0  0  0  0  0  0  0  0  0  0  0  0
   -0.1806   -0.8994    0.0046 C   0  0  0  0  0  0  0  0  0  0  0  0
   -0.6404   -2.1028    0.5276 C   0  0  0  0  0  0  0  0  0  0  0  0
   -2.0433   -2.5292    0.5203 C   0  0  0  0  0  0  0  0  0  0  0  0
   -2.3986   -3.6802   -0.1529 C   0  0  0  0  0  0  0  0  0  0  0  0
   -3.6914   -4.1493   -0.2086 C   0  0  0  0  0  0  0  0  0  0  0  0
   -4.6613   -3.4162    0.4480 C   0  0  0  0  0  0  0  0  0  0  0  0
   -5.9351   -3.8879    0.3870 F   0  0  0  0  0  0  0  0  0  0  0  0
   -4.3374   -2.2587    1.1313 C   0  0  0  0  0  0  0  0  0  0  0  0
   -3.0304   -1.8238    1.1623 C   0  0  0  0  0  0  0  0  0  0  0  0
    0.4470   -2.7321    1.0073 N   0  0  0  0  0  0  0  0  0  0  0  0
    1.5405   -1.9435    0.7876 C   0  0  0  0  0  0  0  0  0  0  0  0
    1.1509   -0.8137    0.1690 N   0  0  0  0  0  0  0  0  0  0  0  0
    1.9675    0.3051   -0.2568 C   0  0  1  0  0  0  0  0  0  0  0  0
    2.2434    1.2872    0.8254 C   0  0  0  0  0  0  0  0  0  0  0  0
    3.4159    2.1616    0.4191 C   0  0  0  0  0  0  0  0  0  0  0  0
    4.7151    1.4101    0.3950 C   0  0  2  0  0  0  0  0  0  0  0  0
    5.4838    1.6752   -0.7300 O   0  0  0  0  0  0  0  0  0  0  0  0
    4.3667   -0.0765    0.3447 C   0  0  0  0  0  0  0  0  0  0  0  0
    3.3213   -0.2261   -0.7447 C   0  0  0  0  0  0  0  0  0  0  0  0
   -1.1816    1.3337   -0.1211 N   0  0  0  0  0  0  0  0  0  0  0  0
   -3.9520    4.3215   -0.4302 H   0  0  0  0  0  0  0  0  0  0  0  0
   -2.6394    5.4805   -0.1446 H   0  0  0  0  0  0  0  0  0  0  0  0
   -2.7278    4.6616   -1.7570 H   0  0  0  0  0  0  0  0  0  0  0  0
   -3.1124    0.5389   -3.2753 H   0  0  0  0  0  0  0  0  0  0  0  0
   -1.6605   -1.1594   -2.2137 H   0  0  0  0  0  0  0  0  0  0  0  0
   -1.6197   -4.2347   -0.6581 H   0  0  0  0  0  0  0  0  0  0  0  0
   -3.9490   -5.0699   -0.7521 H   0  0  0  0  0  0  0  0  0  0  0  0
   -5.1475   -1.7297    1.6261 H   0  0  0  0  0  0  0  0  0  0  0  0
   -2.7835   -0.9256    1.6934 H   0  0  0  0  0  0  0  0  0  0  0  0
    2.5279   -2.2234    1.0792 H   0  0  0  0  0  0  0  0  0  0  0  0
    1.5282    0.8398   -1.1206 H   0  0  0  0  0  0  0  0  0  0  0  0
    1.3598    1.9762    0.8900 H   0  0  0  0  0  0  0  0  0  0  0  0
    2.4166    0.8527    1.8099 H   0  0  0  0  0  0  0  0  0  0  0  0
    3.2347    2.6118   -0.5754 H   0  0  0  0  0  0  0  0  0  0  0  0
    3.5037    2.9611    1.1837 H   0  0  0  0  0  0  0  0  0  0  0  0
    5.3003    1.5490    1.3302 H   0  0  0  0  0  0  0  0  0  0  0  0
    5.9201    0.8651   -1.0919 H   0  0  0  0  0  0  0  0  0  0  0  0
    4.0029   -0.3457    1.3383 H   0  0  0  0  0  0  0  0  0  0  0  0
    5.2383   -0.6895    0.0820 H   0  0  0  0  0  0  0  0  0  0  0  0
    3.6881    0.4073   -1.5996 H   0  0  0  0  0  0  0  0  0  0  0  0
    3.2432   -1.2462   -1.1344 H   0  0  0  0  0  0  0  0  0  0  0  0
  1  2  1  0
  2  3  1  0
  3  4  2  0
  4  5  1  0
  5  6  2  0
  6  7  1  0
  7  8  1  0
  8  9  2  0
  9 10  1  0
 10 11  2  0
 11 12  1  0
 12 13  2  0
 13 14  1  0
 13 15  1  0
 15 16  2  0
  9 17  1  0
 17 18  2  0
 18 19  1  0
 19 20  1  0
 20 21  1  0
 21 22  1  0
 22 23  1  0
 23 24  1  0
 23 25  1  0
 25 26  1  0
  7 27  2  0
 27  3  1  0
 19  8  1  0
 26 20  1  0
 16 10  1  0
  1 28  1  0
  1 29  1  0
  1 30  1  0
  5 31  1  0
  6 32  1  0
 11 33  1  0
 12 34  1  0
 15 35  1  0
 16 36  1  0
 18 37  1  0
 20 38  1  6
 21 39  1  0
 21 40  1  0
 22 41  1  0
 22 42  1  0
 23 43  1  1
 24 44  1  0
 25 45  1  0
 25 46  1  0
 26 47  1  0
 26 48  1  0
M  END
$$$$
