@<TRIPOS>MOLECULE
*****
 48 51 0 0 0
SMALL
GASTEIGER

@<TRIPOS>ATOM
      1 C          -2.8737    4.5257   -0.6664 C.3     1  UNL1        0.0819
      2 O          -2.0715    3.5157   -0.1206 O.3     1  UNL1       -0.4657
      3 C          -1.9830    2.2491   -0.7197 C.ar    1  UNL1        0.3182
      4 N          -2.6657    1.9660   -1.8362 N.ar    1  UNL1       -0.2033
      5 C          -2.5560    0.7498   -2.3768 C.ar    1  UNL1        0.0350
      6 C          -1.7425   -0.1758   -1.7671 C.ar    1  UNL1       -0.0158
      7 C          -1.0317    0.0945   -0.6186 C.ar    1  UNL1        0.0962
      8 C          -0.1806   -0.8994    0.0046 C.ar    1  UNL1        0.0953
      9 C          -0.6404   -2.1028    0.5276 C.ar    1  UNL1        0.0982
     10 C          -2.0433   -2.5292    0.5203 C.ar    1  UNL1        0.0027
     11 C          -2.3986   -3.6802   -0.1529 C.ar    1  UNL1       -0.0498
     12 C          -3.6914   -4.1493   -0.2086 C.ar    1  UNL1       -0.0258
     13 C          -4.6613   -3.4162    0.4480 C.ar    1  UNL1        0.1234
     14 F          -5.9351   -3.8879    0.3870 F       1  UNL1       -0.2055
     15 C          -4.3374   -2.2587    1.1313 C.ar    1  UNL1       -0.0258
     16 C          -3.0304   -1.8238    1.1623 C.ar    1  UNL1       -0.0498
     17 N           0.4470   -2.7321    1.0073 N.ar    1  UNL1       -0.2351
     18 C           1.5405   -1.9435    0.7876 C.ar    1  UNL1        0.0974
     19 N           1.1509   -0.8137    0.1690 N.ar    1  UNL1       -0.3253
     20 C           1.9675    0.3051   -0.2568 C.3     1  UNL1        0.0362
     21 C           2.2434    1.2872    0.8254 C.3     1  UNL1       -0.0297
     22 C           3.4159    2.1616    0.4191 C.3     1  UNL1       -0.0250
     23 C           4.7151    1.4101    0.3950 C.3     1  UNL1        0.0554
     24 O           5.4838    1.6752   -0.7300 O.3     1  UNL1       -0.3918
     25 C           4.3667   -0.0765    0.3447 C.3     1  UNL1       -0.0250
     26 C           3.3213   -0.2261   -0.7447 C.3     1  UNL1       -0.0297
     27 N          -1.1816    1.3337   -0.1211 N.ar    1  UNL1       -0.1934
     28 H          -3.9520    4.3215   -0.4302 H       1  UNL1        0.0661
     29 H          -2.6394    5.4805   -0.1446 H       1  UNL1        0.0661
     30 H          -2.7278    4.6616   -1.7570 H       1  UNL1        0.0661
     31 H          -3.1124    0.5389   -3.2753 H       1  UNL1        0.0832
     32 H          -1.6605   -1.1594   -2.2137 H       1  UNL1        0.0655
     33 H          -1.6197   -4.2347   -0.6581 H       1  UNL1        0.0625
     34 H          -3.9490   -5.0699   -0.7521 H       1  UNL1        0.0646
     35 H          -5.1475   -1.7297    1.6261 H       1  UNL1        0.0646
     36 H          -2.7835   -0.9256    1.6934 H       1  UNL1        0.0625
     37 H           2.5279   -2.2234    1.0792 H       1  UNL1        0.1029
     38 H           1.5282    0.8398   -1.1206 H       1  UNL1        0.0528
     39 H           1.3598    1.9762    0.8900 H       1  UNL1        0.0286
     40 H           2.4166    0.8527    1.8099 H       1  UNL1        0.0286
     41 H           3.2347    2.6118   -0.5754 H       1  UNL1        0.0291
     42 H           3.5037    2.9611    1.1837 H       1  UNL1        0.0291
     43 H           5.3003    1.5490    1.3302 H       1  UNL1        0.0593
     44 H           5.9201    0.8651   -1.0919 H       1  UNL1        0.2098
     45 H           4.0029   -0.3457    1.3383 H       1  UNL1        0.0291
     46 H           5.2383   -0.6895    0.0820 H       1  UNL1        0.0291
     47 H           3.6881    0.4073   -1.5996 H       1  UNL1        0.0286
     48 H           3.2432   -1.2462   -1.1344 H       1  UNL1        0.0286
@<TRIPOS>BOND
     1     1     2    1
     2     2     3    1
     3     3     4   ar
     4     4     5   ar
     5     5     6   ar
     6     6     7   ar
     7     7     8    1
     8     8     9   ar
     9     9    10    1
    10    10    11   ar
    11    11    12   ar
    12    12    13   ar
    13    13    14    1
    14    13    15   ar
    15    15    16   ar
    16     9    17   ar
    17    17    18   ar
    18    18    19   ar
    19    19    20    1
    20    20    21    1
    21    21    22    1
    22    22    23    1
    23    23    24    1
    24    23    25    1
    25    25    26    1
    26     7    27   ar
    27    27     3   ar
    28    19     8   ar
    29    26    20    1
    30    16    10   ar
    31     1    28    1
    32     1    29    1
    33     1    30    1
    34     5    31    1
    35     6    32    1
    36    11    33    1
    37    12    34    1
    38    15    35    1
    39    16    36    1
    40    18    37    1
    41    20    38    1
    42    21    39    1
    43    21    40    1
    44    22    41    1
    45    22    42    1
    46    23    43    1
    47    24    44    1
    48    25    45    1
    49    25    46    1
    50    26    47    1
    51    26    48    1
