@<TRIPOS>MOLECULE
*****
 57 61 0 0 0
SMALL
GASTEIGER

@<TRIPOS>ATOM
      1 C          -6.8030    1.8549   -0.3402 C.3     1  UNL1       -0.0524
      2 C          -5.6019    2.7407   -0.5154 C.3     1  UNL1       -0.0038
      3 N          -4.4393    2.2837    0.1788 N.3     1  UNL1       -0.2985
      4 C          -3.8300    1.0617   -0.3137 C.3     1  UNL1        0.0226
      5 C          -4.1976    0.2776    0.9041 C.3     1  UNL1        0.0786
      6 N          -3.1269   -0.3418    1.6450 N.ar    1  UNL1       -0.2581
      7 N          -2.9966   -0.2992    2.9857 N.ar    1  UNL1       -0.1788
      8 C          -1.9119   -0.9714    3.3390 C.ar    1  UNL1        0.0500
      9 C          -1.3077   -1.4732    2.1990 C.ar    1  UNL1       -0.0162
     10 C          -2.0980   -1.0576    1.1535 C.ar    1  UNL1        0.0728
     11 C          -1.9015   -1.2991   -0.2779 C.ar    1  UNL1        0.0437
     12 C          -2.9236   -1.7147   -1.0998 C.ar    1  UNL1       -0.0307
     13 C          -2.6813   -1.8923   -2.4530 C.ar    1  UNL1        0.0418
     14 CL         -3.9941   -2.4197   -3.4886 Cl      1  UNL1       -0.0835
     15 C          -1.4286   -1.6537   -2.9650 C.ar    1  UNL1       -0.0399
     16 C          -0.3641   -1.2294   -2.1568 C.ar    1  UNL1       -0.0173
     17 C          -0.6374   -1.0638   -0.8175 C.ar    1  UNL1        0.1377
     18 O           0.3463   -0.6522    0.0589 O.3     1  UNL1       -0.4541
     19 C           1.6388   -0.4205   -0.3015 C.ar    1  UNL1        0.1459
     20 C           2.1907    0.8411   -0.1852 C.ar    1  UNL1       -0.0162
     21 C           3.4857    1.1374   -0.5302 C.ar    1  UNL1       -0.0315
     22 C           4.3079    0.1188   -1.0299 C.ar    1  UNL1        0.1100
     23 S           5.9502    0.4567   -1.4610 S.O2    1  UNL1        0.0735
     24 O           6.2142    1.9460   -1.3084 O.2     1  UNL1       -0.1499
     25 O           6.2395    0.1067   -2.8961 O.2     1  UNL1       -0.1499
     26 N           7.0304   -0.3408   -0.4089 N.pl3   1  UNL1       -0.1990
     27 C           7.1273   -0.1254    0.9906 C.ar    1  UNL1        0.1449
     28 C           6.3341    0.8172    1.6296 C.ar    1  UNL1        0.0183
     29 S           6.8919    0.6732    3.3384 S.2     1  UNL1       -0.0819
     30 C           8.1508   -0.6838    2.9034 C.ar    1  UNL1        0.0669
     31 N           7.9548   -0.7611    1.7756 N.ar    1  UNL1       -0.2315
     32 C           3.7686   -1.1202   -1.1439 C.ar    1  UNL1       -0.0141
     33 C           2.4463   -1.4181   -0.7899 C.ar    1  UNL1        0.0958
     34 C           1.9992   -2.7510   -0.9176 C.1     1  UNL1        0.1029
     35 N           1.6068   -3.8890   -1.0454 N.1     1  UNL1       -0.1907
     36 C          -4.6092    1.6390    1.4421 C.3     1  UNL1        0.0226
     37 H          -6.6288    0.8266   -0.7366 H       1  UNL1        0.0242
     38 H          -7.2126    1.8247    0.6716 H       1  UNL1        0.0242
     39 H          -7.5977    2.2814   -0.9929 H       1  UNL1        0.0242
     40 H          -5.8581    3.7449   -0.1174 H       1  UNL1        0.0424
     41 H          -5.4155    2.8478   -1.5833 H       1  UNL1        0.0424
     42 H          -2.7454    1.1168   -0.4753 H       1  UNL1        0.0448
     43 H          -4.3408    0.7941   -1.2689 H       1  UNL1        0.0448
     44 H          -5.0589   -0.4236    0.7821 H       1  UNL1        0.0570
     45 H          -1.5133   -1.1410    4.3270 H       1  UNL1        0.0848
     46 H          -0.4150   -2.0611    2.1173 H       1  UNL1        0.0654
     47 H          -3.9188   -1.9046   -0.6841 H       1  UNL1        0.0640
     48 H          -1.2324   -1.7855   -4.0143 H       1  UNL1        0.0633
     49 H           0.6073   -1.0359   -2.6137 H       1  UNL1        0.0655
     50 H           1.6078    1.6785    0.1976 H       1  UNL1        0.0655
     51 H           3.9430    2.1186   -0.4510 H       1  UNL1        0.0638
     52 H           7.6774   -1.0569   -0.8771 H       1  UNL1        0.1753
     53 H           5.5884    1.4871    1.2950 H       1  UNL1        0.0729
     54 H           8.7511   -1.0753    3.7580 H       1  UNL1        0.0908
     55 H           4.4064   -1.9146   -1.5280 H       1  UNL1        0.0651
     56 H          -3.8700    2.0406    2.1915 H       1  UNL1        0.0448
     57 H          -5.6051    1.6749    1.9046 H       1  UNL1        0.0448
@<TRIPOS>BOND
     1     1     2    1
     2     2     3    1
     3     3     4    1
     4     4     5    1
     5     5     6    1
     6     6     7   ar
     7     7     8   ar
     8     8     9   ar
     9     9    10   ar
    10    10    11    1
    11    11    12   ar
    12    12    13   ar
    13    13    14    1
    14    13    15   ar
    15    15    16   ar
    16    16    17   ar
    17    17    18    1
    18    18    19    1
    19    19    20   ar
    20    20    21   ar
    21    21    22   ar
    22    22    23    1
    23    23    24    2
    24    23    25    2
    25    23    26    1
    26    26    27    1
    27    27    28   ar
    28    28    29   ar
    29    29    30   ar
    30    30    31   ar
    31    22    32   ar
    32    32    33   ar
    33    33    34    1
    34    34    35    3
    35     5    36    1
    36    36     3    1
    37    10     6   ar
    38    17    11   ar
    39    33    19   ar
    40    31    27   ar
    41     1    37    1
    42     1    38    1
    43     1    39    1
    44     2    40    1
    45     2    41    1
    46     4    42    1
    47     4    43    1
    48     5    44    1
    49     8    45    1
    50     9    46    1
    51    12    47    1
    52    15    48    1
    53    16    49    1
    54    20    50    1
    55    21    51    1
    56    26    52    1
    57    28    53    1
    58    30    54    1
    59    32    55    1
    60    36    56    1
    61    36    57    1
