@<TRIPOS>MOLECULE
*****
 16 16 0 0 0
SMALL
GASTEIGER

@<TRIPOS>ATOM
      1 O          -2.5647   -1.1213   -0.0052 O.3     1  UNL1       -0.3903
      2 C          -1.9981    0.1435   -0.1534 C.3     1  UNL1        0.0719
      3 C          -0.5048    0.0835   -0.0777 C.ar    1  UNL1        0.0132
      4 C           0.1465   -1.1284    0.1183 C.ar    1  UNL1       -0.0509
      5 C           1.5269   -1.1178    0.1793 C.ar    1  UNL1       -0.0259
      6 C           2.2539    0.0490    0.0518 C.ar    1  UNL1        0.1261
      7 F           3.6059    0.0402    0.1141 F       1  UNL1       -0.2054
      8 C           1.5839    1.2500   -0.1436 C.ar    1  UNL1        0.0091
      9 C           0.2043    1.2592   -0.2072 C.ar    1  UNL1        0.1315
     10 F          -0.4507    2.4201   -0.3963 F       1  UNL1       -0.2050
     11 H          -2.9178   -1.2593    0.9045 H       1  UNL1        0.2098
     12 H          -2.3706    0.8985    0.5484 H       1  UNL1        0.0608
     13 H          -2.1996    0.4059   -1.2337 H       1  UNL1        0.0608
     14 H          -0.4583   -2.0119    0.2124 H       1  UNL1        0.0623
     15 H           2.0169   -2.0915    0.3352 H       1  UNL1        0.0646
     16 H           2.1262    2.1802   -0.2469 H       1  UNL1        0.0675
@<TRIPOS>BOND
     1     1     2    1
     2     2     3    1
     3     3     4   ar
     4     4     5   ar
     5     5     6   ar
     6     6     7    1
     7     6     8   ar
     8     8     9   ar
     9     9    10    1
    10     9     3   ar
    11     1    11    1
    12     2    12    1
    13     2    13    1
    14     4    14    1
    15     5    15    1
    16     8    16    1
