
     RDKit          3D

 31 31  0  0  0  0  0  0  0  0999 V2000
    2.4904   -1.1873    1.3299 O   0  0  0  0  0  0  0  0  0  0  0  0
    2.8491   -0.6535    0.0838 C   0  0  0  0  0  0  0  0  0  0  0  0
    1.9530    0.5038   -0.2743 C   0  0  0  0  0  0  0  0  0  0  0  0
    0.6082    0.2570   -0.3759 N   0  0  0  0  0  0  0  0  0  0  0  0
    0.0772   -0.5435   -1.4071 C   0  0  0  0  0  0  0  0  0  0  0  0
   -0.9915   -1.4791   -0.8357 C   0  0  2  0  0  0  0  0  0  0  0  0
   -1.6550   -2.1050   -1.9025 O   0  0  0  0  0  0  0  0  0  0  0  0
   -2.0116   -0.6984   -0.0845 C   0  0  1  0  0  0  0  0  0  0  0  0
   -2.9341   -1.5579    0.5006 O   0  0  0  0  0  0  0  0  0  0  0  0
   -1.3542    0.2006    0.9562 C   0  0  2  0  0  0  0  0  0  0  0  0
   -2.3084    0.9573    1.6256 O   0  0  0  0  0  0  0  0  0  0  0  0
   -0.3812    1.0671    0.1894 C   0  0  1  0  0  0  0  0  0  0  0  0
    0.0640    2.2752    0.9485 C   0  0  0  0  0  0  0  0  0  0  0  0
    0.7875    3.1261    0.1144 O   0  0  0  0  0  0  0  0  0  0  0  0
    2.9165   -2.0644    1.4618 H   0  0  0  0  0  0  0  0  0  0  0  0
    2.8361   -1.4862   -0.6282 H   0  0  0  0  0  0  0  0  0  0  0  0
    3.9002   -0.3052    0.1903 H   0  0  0  0  0  0  0  0  0  0  0  0
    2.1603    1.2824    0.4954 H   0  0  0  0  0  0  0  0  0  0  0  0
    2.3251    0.9214   -1.2361 H   0  0  0  0  0  0  0  0  0  0  0  0
    0.7704   -1.0563   -2.0719 H   0  0  0  0  0  0  0  0  0  0  0  0
   -0.5196    0.1603   -2.0528 H   0  0  0  0  0  0  0  0  0  0  0  0
   -0.5130   -2.2354   -0.1945 H   0  0  0  0  0  0  0  0  0  0  0  0
   -1.6892   -3.0959   -1.7359 H   0  0  0  0  0  0  0  0  0  0  0  0
   -2.5506   -0.0192   -0.7884 H   0  0  0  0  0  0  0  0  0  0  0  0
   -3.1487   -2.2433   -0.1941 H   0  0  0  0  0  0  0  0  0  0  0  0
   -0.8313   -0.4665    1.6553 H   0  0  0  0  0  0  0  0  0  0  0  0
   -2.0878    1.0415    2.5809 H   0  0  0  0  0  0  0  0  0  0  0  0
   -0.9923    1.4563   -0.6790 H   0  0  0  0  0  0  0  0  0  0  0  0
    0.6250    2.0368    1.8699 H   0  0  0  0  0  0  0  0  0  0  0  0
   -0.8132    2.8817    1.2770 H   0  0  0  0  0  0  0  0  0  0  0  0
    0.4184    3.0297   -0.8180 H   0  0  0  0  0  0  0  0  0  0  0  0
  1  2  1  0
  2  3  1  0
  3  4  1  0
  4  5  1  0
  5  6  1  0
  6  7  1  0
  6  8  1  0
  8  9  1  0
  8 10  1  0
 10 11  1  0
 10 12  1  0
 12 13  1  0
 13 14  1  0
 12  4  1  0
  1 15  1  0
  2 16  1  0
  2 17  1  0
  3 18  1  0
  3 19  1  0
  5 20  1  0
  5 21  1  0
  6 22  1  1
  7 23  1  0
  8 24  1  6
  9 25  1  0
 10 26  1  1
 11 27  1  0
 12 28  1  6
 13 29  1  0
 13 30  1  0
 14 31  1  0
M  END
$$$$
