
     RDKit          3D

 35 37  0  0  0  0  0  0  0  0999 V2000
    3.0620   -1.1269    1.7784 C   0  0  0  0  0  0  0  0  0  0  0  0
    3.1675    0.0260    0.8791 C   0  0  0  0  0  0  0  0  0  0  0  0
    4.2280    0.9065    0.9628 C   0  0  0  0  0  0  0  0  0  0  0  0
    4.2702    1.9685    0.0910 C   0  0  0  0  0  0  0  0  0  0  0  0
    3.3192    2.1813   -0.8383 N   0  0  0  0  0  0  0  0  0  0  0  0
    2.2599    1.3404   -0.9547 C   0  0  0  0  0  0  0  0  0  0  0  0
    1.2839    1.5561   -1.9043 C   0  0  0  0  0  0  0  0  0  0  0  0
    0.2148    0.6965   -2.0102 C   0  0  0  0  0  0  0  0  0  0  0  0
    0.1375   -0.3795   -1.1531 C   0  0  0  0  0  0  0  0  0  0  0  0
   -1.0030   -1.3160   -1.2603 C   0  0  0  0  0  0  0  0  0  0  0  0
   -2.1817   -0.7522   -0.6072 C   0  0  0  0  0  0  0  0  0  0  0  0
   -3.1513   -0.1888   -1.4092 C   0  0  0  0  0  0  0  0  0  0  0  0
   -4.2273    0.3437   -0.8180 N   0  0  0  0  0  0  0  0  0  0  0  0
   -4.3672    0.3337    0.5208 C   0  0  0  0  0  0  0  0  0  0  0  0
   -5.5470    0.9261    1.0795 N   0  0  0  0  0  0  0  0  0  0  0  0
   -3.4267   -0.2141    1.3132 N   0  0  0  0  0  0  0  0  0  0  0  0
   -2.3232   -0.7627    0.7470 C   0  0  0  0  0  0  0  0  0  0  0  0
   -1.3861   -1.3253    1.6412 N   0  0  0  0  0  0  0  0  0  0  0  0
    1.1152   -0.5829   -0.2134 C   0  0  0  0  0  0  0  0  0  0  0  0
    2.2038    0.2668   -0.0838 C   0  0  0  0  0  0  0  0  0  0  0  0
    2.2181   -1.0513    2.5061 H   0  0  0  0  0  0  0  0  0  0  0  0
    3.0488   -2.1083    1.2410 H   0  0  0  0  0  0  0  0  0  0  0  0
    3.9877   -1.1788    2.4171 H   0  0  0  0  0  0  0  0  0  0  0  0
    4.9819    0.7223    1.7129 H   0  0  0  0  0  0  0  0  0  0  0  0
    5.1009    2.6717    0.1450 H   0  0  0  0  0  0  0  0  0  0  0  0
    1.3884    2.4104   -2.5508 H   0  0  0  0  0  0  0  0  0  0  0  0
   -0.5512    0.8841   -2.7722 H   0  0  0  0  0  0  0  0  0  0  0  0
   -1.1619   -1.5668   -2.3316 H   0  0  0  0  0  0  0  0  0  0  0  0
   -0.7531   -2.2645   -0.7311 H   0  0  0  0  0  0  0  0  0  0  0  0
   -3.0414   -0.1781   -2.5084 H   0  0  0  0  0  0  0  0  0  0  0  0
   -6.4615    0.5214    0.7852 H   0  0  0  0  0  0  0  0  0  0  0  0
   -5.4474    1.7253    1.7475 H   0  0  0  0  0  0  0  0  0  0  0  0
   -1.1032   -2.3256    1.5834 H   0  0  0  0  0  0  0  0  0  0  0  0
   -0.9567   -0.7414    2.3838 H   0  0  0  0  0  0  0  0  0  0  0  0
    1.1019   -1.4177    0.4748 H   0  0  0  0  0  0  0  0  0  0  0  0
  1  2  1  0
  2  3  2  0
  3  4  1  0
  4  5  2  0
  5  6  1  0
  6  7  2  0
  7  8  1  0
  8  9  2  0
  9 10  1  0
 10 11  1  0
 11 12  2  0
 12 13  1  0
 13 14  2  0
 14 15  1  0
 14 16  1  0
 16 17  2  0
 17 18  1  0
  9 19  1  0
 19 20  2  0
 20  2  1  0
 20  6  1  0
 17 11  1  0
  1 21  1  0
  1 22  1  0
  1 23  1  0
  3 24  1  0
  4 25  1  0
  7 26  1  0
  8 27  1  0
 10 28  1  0
 10 29  1  0
 12 30  1  0
 15 31  1  0
 15 32  1  0
 18 33  1  0
 18 34  1  0
 19 35  1  0
M  END
$$$$
