@<TRIPOS>MOLECULE
*****
 35 37 0 0 0
SMALL
GASTEIGER

@<TRIPOS>ATOM
      1 C           3.0620   -1.1269    1.7784 C.3     1  UNL1       -0.0390
      2 C           3.1675    0.0260    0.8791 C.ar    1  UNL1       -0.0398
      3 C           4.2280    0.9065    0.9628 C.ar    1  UNL1       -0.0401
      4 C           4.2702    1.9685    0.0910 C.ar    1  UNL1        0.0285
      5 N           3.3192    2.1813   -0.8383 N.ar    1  UNL1       -0.2550
      6 C           2.2599    1.3404   -0.9547 C.ar    1  UNL1        0.0712
      7 C           1.2839    1.5561   -1.9043 C.ar    1  UNL1       -0.0355
      8 C           0.2148    0.6965   -2.0102 C.ar    1  UNL1       -0.0562
      9 C           0.1375   -0.3795   -1.1531 C.ar    1  UNL1       -0.0422
     10 C          -1.0030   -1.3160   -1.2603 C.3     1  UNL1        0.0023
     11 C          -2.1817   -0.7522   -0.6072 C.ar    1  UNL1        0.0146
     12 C          -3.1513   -0.1888   -1.4092 C.ar    1  UNL1        0.0379
     13 N          -4.2273    0.3437   -0.8180 N.ar    1  UNL1       -0.2227
     14 C          -4.3672    0.3337    0.5208 C.ar    1  UNL1        0.2142
     15 N          -5.5470    0.9261    1.0795 N.pl3   1  UNL1       -0.3274
     16 N          -3.4267   -0.2141    1.3132 N.ar    1  UNL1       -0.1999
     17 C          -2.3232   -0.7627    0.7470 C.ar    1  UNL1        0.1247
     18 N          -1.3861   -1.3253    1.6412 N.pl3   1  UNL1       -0.3428
     19 C           1.1152   -0.5829   -0.2134 C.ar    1  UNL1       -0.0488
     20 C           2.2038    0.2668   -0.0838 C.ar    1  UNL1        0.0036
     21 H           2.2181   -1.0513    2.5061 H       1  UNL1        0.0278
     22 H           3.0488   -2.1083    1.2410 H       1  UNL1        0.0278
     23 H           3.9877   -1.1788    2.4171 H       1  UNL1        0.0278
     24 H           4.9819    0.7223    1.7129 H       1  UNL1        0.0635
     25 H           5.1009    2.6717    0.1450 H       1  UNL1        0.0830
     26 H           1.3884    2.4104   -2.5508 H       1  UNL1        0.0639
     27 H          -0.5512    0.8841   -2.7722 H       1  UNL1        0.0621
     28 H          -1.1619   -1.5668   -2.3316 H       1  UNL1        0.0363
     29 H          -0.7531   -2.2645   -0.7311 H       1  UNL1        0.0363
     30 H          -3.0414   -0.1781   -2.5084 H       1  UNL1        0.0834
     31 H          -6.4615    0.5214    0.7852 H       1  UNL1        0.1452
     32 H          -5.4474    1.7253    1.7475 H       1  UNL1        0.1452
     33 H          -1.1032   -2.3256    1.5834 H       1  UNL1        0.1437
     34 H          -0.9567   -0.7414    2.3838 H       1  UNL1        0.1437
     35 H           1.1019   -1.4177    0.4748 H       1  UNL1        0.0627
@<TRIPOS>BOND
     1     1     2    1
     2     2     3   ar
     3     3     4   ar
     4     4     5   ar
     5     5     6   ar
     6     6     7   ar
     7     7     8   ar
     8     8     9   ar
     9     9    10    1
    10    10    11    1
    11    11    12   ar
    12    12    13   ar
    13    13    14   ar
    14    14    15    1
    15    14    16   ar
    16    16    17   ar
    17    17    18    1
    18     9    19   ar
    19    19    20   ar
    20    20     2   ar
    21    20     6   ar
    22    17    11   ar
    23     1    21    1
    24     1    22    1
    25     1    23    1
    26     3    24    1
    27     4    25    1
    28     7    26    1
    29     8    27    1
    30    10    28    1
    31    10    29    1
    32    12    30    1
    33    15    31    1
    34    15    32    1
    35    18    33    1
    36    18    34    1
    37    19    35    1
