@<TRIPOS>MOLECULE
*****
 76 81 0 0 0
SMALL
GASTEIGER

@<TRIPOS>ATOM
      1 C          -3.3949    6.9027    2.8696 C.3     1  UNL1       -0.0151
      2 N          -3.1752    5.5128    2.5202 N.3     1  UNL1       -0.3089
      3 C          -3.8058    5.0903    1.3130 C.3     1  UNL1        0.0820
      4 C          -3.2628    5.9601    0.1922 C.3     1  UNL1       -0.0411
      5 C          -3.4604    3.6563    0.9449 C.2     1  UNL1        0.2350
      6 O          -3.6864    3.2011   -0.0960 O.2     1  UNL1       -0.2737
      7 N          -2.8125    2.8914    2.0422 N.am    1  UNL1       -0.2691
      8 C          -2.3286    1.6404    1.9121 C.ar    1  UNL1        0.1263
      9 C          -2.6571    0.3563    2.2492 C.ar    1  UNL1       -0.0208
     10 C          -2.2027   -0.8379    2.1489 C.ar    1  UNL1       -0.0466
     11 C          -0.8192   -0.8877    1.4065 C.ar    1  UNL1        0.0349
     12 C          -0.3882   -2.1142    0.9917 C.ar    1  UNL1        0.0837
     13 C          -1.3683   -2.9696    0.2928 C.ar    1  UNL1        0.0992
     14 C          -2.8005   -2.8477    0.2474 C.ar    1  UNL1        0.0208
     15 C          -3.6229   -3.8110    0.6753 C.ar    1  UNL1       -0.0460
     16 C          -4.9812   -3.8299    0.7651 C.ar    1  UNL1        0.0006
     17 C          -5.6149   -2.5757    0.3140 C.ar    1  UNL1        0.2144
     18 O          -7.0140   -2.6717    0.3645 O.3     1  UNL1       -0.4796
     19 C          -8.1938   -2.7122    0.3923 C.3     1  UNL1        0.0804
     20 N          -4.8090   -1.6623   -0.0827 N.ar    1  UNL1       -0.2207
     21 C          -3.4664   -1.6310   -0.1753 C.ar    1  UNL1        0.0406
     22 N          -0.6564   -3.9924   -0.1613 N.ar    1  UNL1       -0.2271
     23 C           0.6185   -3.8993    0.1667 C.ar    1  UNL1        0.1390
     24 C           1.6540   -4.7606   -0.1262 C.ar    1  UNL1       -0.0158
     25 C           2.9276   -4.4658    0.3655 C.ar    1  UNL1       -0.0456
     26 C           4.0430   -5.3514    0.0270 C.3     1  UNL1       -0.0395
     27 C           3.0880   -3.3087    1.1098 C.ar    1  UNL1       -0.0421
     28 C           2.0035   -2.4656    1.3558 C.ar    1  UNL1        0.0120
     29 N           0.8096   -2.7565    0.8914 N.ar    1  UNL1       -0.2986
     30 C          -0.6079    0.4199    1.1341 C.ar    1  UNL1        0.1250
     31 C           0.8198    0.3265    0.3784 C.1     1  UNL1       -0.0404
     32 C           2.0660    0.2284   -0.2905 C.1     1  UNL1       -0.0595
     33 C           3.4018    0.1367   -1.0110 C.ar    1  UNL1        0.0260
     34 C           3.1472   -0.7773   -1.9504 C.ar    1  UNL1       -0.0443
     35 C           4.3981   -0.5407   -2.9361 C.ar    1  UNL1       -0.0364
     36 C           5.2614    0.3828   -2.5877 C.ar    1  UNL1        0.0518
     37 C           5.3424    1.2301   -1.5132 C.ar    1  UNL1       -0.0001
     38 C           6.1888    2.1986   -1.1941 C.ar    1  UNL1       -0.0475
     39 C           7.1771    2.4244   -2.1236 C.ar    1  UNL1        0.0036
     40 C           7.1897    1.6411   -3.2853 C.ar    1  UNL1        0.2515
     41 O           8.1009    1.9264   -4.1303 O.2     1  UNL1       -0.2677
     42 N           6.3000    0.6754   -3.5109 N.ar    1  UNL1       -0.3112
     43 C           6.3315   -0.0528   -4.7504 C.3     1  UNL1        0.0153
     44 C           4.1493    1.0219   -0.5813 C.ar    1  UNL1       -0.0372
     45 N          -0.9854    1.5553    1.2032 N.ar    1  UNL1       -0.2229
     46 H          -2.5137    7.4843    2.6834 H       1  UNL1        0.0388
     47 H          -4.1773    7.3121    2.1303 H       1  UNL1        0.0388
     48 H          -3.7589    6.9904    3.8986 H       1  UNL1        0.0388
     49 H          -2.1474    5.2516    2.5343 H       1  UNL1        0.1223
     50 H          -4.8833    5.2350    1.4234 H       1  UNL1        0.0554
     51 H          -3.1796    5.3024   -0.7127 H       1  UNL1        0.0249
     52 H          -2.3026    6.3925    0.5100 H       1  UNL1        0.0249
     53 H          -3.9828    6.7842   -0.0880 H       1  UNL1        0.0249
     54 H          -2.7673    3.4109    2.9930 H       1  UNL1        0.1563
     55 H          -3.7428    0.4348    2.7458 H       1  UNL1        0.0652
     56 H          -2.4441   -1.8181    2.4209 H       1  UNL1        0.0626
     57 H          -3.0769   -4.7945    0.9639 H       1  UNL1        0.0626
     58 H          -5.6094   -4.6211    1.0991 H       1  UNL1        0.0671
     59 H          -8.7935   -2.2635    1.2532 H       1  UNL1        0.0660
     60 H          -8.8038   -2.1994   -0.5011 H       1  UNL1        0.0660
     61 H          -8.7213   -3.7933    0.3511 H       1  UNL1        0.0660
     62 H          -2.8366   -0.8567   -0.5035 H       1  UNL1        0.0837
     63 H           1.5111   -5.6216   -0.7459 H       1  UNL1        0.0657
     64 H           4.1715   -5.3237   -1.0754 H       1  UNL1        0.0278
     65 H           5.0349   -5.0975    0.4502 H       1  UNL1        0.0278
     66 H           3.7586   -6.4531    0.1796 H       1  UNL1        0.0278
     67 H           4.0189   -3.0992    1.5484 H       1  UNL1        0.0635
     68 H           2.1712   -1.5799    1.9438 H       1  UNL1        0.0813
     69 H           2.5173   -1.4563   -2.1906 H       1  UNL1        0.0630
     70 H           4.3239   -1.1537   -3.7570 H       1  UNL1        0.0639
     71 H           6.1266    2.7308   -0.2256 H       1  UNL1        0.0626
     72 H           7.9073    3.2007   -1.9487 H       1  UNL1        0.0672
     73 H           7.3508   -0.0970   -5.2320 H       1  UNL1        0.0457
     74 H           5.7211    0.5843   -5.5029 H       1  UNL1        0.0457
     75 H           6.0204   -1.0553   -4.6576 H       1  UNL1        0.0457
     76 H           4.2040    1.7133    0.2443 H       1  UNL1        0.0636
@<TRIPOS>BOND
     1     1     2    1
     2     2     3    1
     3     3     4    1
     4     3     5    1
     5     5     6    2
     6     5     7   am
     7     7     8    1
     8     8     9   ar
     9     9    10   ar
    10    10    11   ar
    11    11    12    1
    12    12    13   ar
    13    13    14    1
    14    14    15   ar
    15    15    16   ar
    16    16    17   ar
    17    17    18    1
    18    18    19    1
    19    17    20   ar
    20    20    21   ar
    21    13    22   ar
    22    22    23   ar
    23    23    24   ar
    24    24    25   ar
    25    25    26    1
    26    25    27   ar
    27    27    28   ar
    28    28    29   ar
    29    11    30   ar
    30    30    31    1
    31    31    32    3
    32    32    33    1
    33    33    34   ar
    34    34    35   ar
    35    35    36   ar
    36    36    37   ar
    37    37    38   ar
    38    38    39   ar
    39    39    40   ar
    40    40    41    2
    41    40    42   ar
    42    42    43    1
    43    37    44   ar
    44    30    45   ar
    45    45     8   ar
    46    29    12   ar
    47    44    33   ar
    48    21    14   ar
    49    29    23   ar
    50    42    36   ar
    51     1    46    1
    52     1    47    1
    53     1    48    1
    54     2    49    1
    55     3    50    1
    56     4    51    1
    57     4    52    1
    58     4    53    1
    59     7    54    1
    60     9    55    1
    61    10    56    1
    62    15    57    1
    63    16    58    1
    64    19    59    1
    65    19    60    1
    66    19    61    1
    67    21    62    1
    68    24    63    1
    69    26    64    1
    70    26    65    1
    71    26    66    1
    72    27    67    1
    73    28    68    1
    74    34    69    1
    75    35    70    1
    76    38    71    1
    77    39    72    1
    78    43    73    1
    79    43    74    1
    80    43    75    1
    81    44    76    1
