
     RDKit          3D

 40 42  0  0  0  0  0  0  0  0999 V2000
   -1.8200   -1.4450    2.0872 O   0  0  0  0  0  0  0  0  0  0  0  0
   -1.7966   -1.0254    0.8426 C   0  0  0  0  0  0  0  0  0  0  0  0
   -3.0168   -0.5350    0.4172 N   0  0  0  0  0  0  0  0  0  0  0  0
   -3.3180   -0.0373   -0.9035 C   0  0  0  0  0  0  0  0  0  0  0  0
   -3.4577    1.4778   -0.7133 C   0  0  0  0  0  0  0  0  0  0  0  0
   -4.3683    1.7202    0.2629 O   0  0  0  0  0  0  0  0  0  0  0  0
   -5.0705    0.6767    0.7874 C   0  0  0  0  0  0  0  0  0  0  0  0
   -4.1920   -0.4398    1.3149 C   0  0  0  0  0  0  0  0  0  0  0  0
   -0.5599   -1.1643    0.2307 N   0  0  0  0  0  0  0  0  0  0  0  0
   -0.1882   -0.7869   -1.0986 C   0  0  0  0  0  0  0  0  0  0  0  0
    1.3143   -0.9332   -1.3219 C   0  0  0  0  0  0  0  0  0  0  0  0
    2.0685   -0.4579   -0.2023 N   0  0  0  0  0  0  0  0  0  0  0  0
    3.2798    0.2380   -0.4209 C   0  0  0  0  0  0  0  0  0  0  0  0
    4.0554    0.7206    0.6305 C   0  0  0  0  0  0  0  0  0  0  0  0
    5.2396    1.4020    0.4504 C   0  0  0  0  0  0  0  0  0  0  0  0
    5.6753    1.6146   -0.8446 C   0  0  0  0  0  0  0  0  0  0  0  0
    7.3059    2.5487   -1.2242 Br  0  0  0  0  0  0  0  0  0  0  0  0
    4.9065    1.1363   -1.8870 C   0  0  0  0  0  0  0  0  0  0  0  0
    3.7580    0.4768   -1.6678 N   0  0  0  0  0  0  0  0  0  0  0  0
    1.5972   -0.6862    1.1422 C   0  0  0  0  0  0  0  0  0  0  0  0
    0.5277   -1.7851    1.0347 C   0  0  0  0  0  0  0  0  0  0  0  0
   -2.6381   -0.2923   -1.6902 H   0  0  0  0  0  0  0  0  0  0  0  0
   -4.3351   -0.4462   -1.2189 H   0  0  0  0  0  0  0  0  0  0  0  0
   -2.4603    1.8525   -0.4088 H   0  0  0  0  0  0  0  0  0  0  0  0
   -3.7989    1.8929   -1.6718 H   0  0  0  0  0  0  0  0  0  0  0  0
   -5.8266    0.2983    0.0516 H   0  0  0  0  0  0  0  0  0  0  0  0
   -5.6544    1.0599    1.6509 H   0  0  0  0  0  0  0  0  0  0  0  0
   -4.7661   -1.3743    1.2536 H   0  0  0  0  0  0  0  0  0  0  0  0
   -3.9184   -0.2365    2.3478 H   0  0  0  0  0  0  0  0  0  0  0  0
   -0.6497   -1.4533   -1.8470 H   0  0  0  0  0  0  0  0  0  0  0  0
   -0.4464    0.2643   -1.3658 H   0  0  0  0  0  0  0  0  0  0  0  0
    1.5601   -2.0013   -1.5184 H   0  0  0  0  0  0  0  0  0  0  0  0
    1.5417   -0.3866   -2.2628 H   0  0  0  0  0  0  0  0  0  0  0  0
    3.6763    0.5320    1.6416 H   0  0  0  0  0  0  0  0  0  0  0  0
    5.8390    1.7750    1.2697 H   0  0  0  0  0  0  0  0  0  0  0  0
    5.2743    1.3184   -2.8967 H   0  0  0  0  0  0  0  0  0  0  0  0
    1.1535    0.2140    1.5993 H   0  0  0  0  0  0  0  0  0  0  0  0
    2.3671   -1.0836    1.8176 H   0  0  0  0  0  0  0  0  0  0  0  0
    0.9439   -2.6571    0.5325 H   0  0  0  0  0  0  0  0  0  0  0  0
    0.1979   -1.9917    2.0589 H   0  0  0  0  0  0  0  0  0  0  0  0
  1  2  2  0
  2  3  1  0
  3  4  1  0
  4  5  1  0
  5  6  1  0
  6  7  1  0
  7  8  1  0
  2  9  1  0
  9 10  1  0
 10 11  1  0
 11 12  1  0
 12 13  1  0
 13 14  2  0
 14 15  1  0
 15 16  2  0
 16 17  1  0
 16 18  1  0
 18 19  2  0
 12 20  1  0
 20 21  1  0
  8  3  1  0
 21  9  1  0
 19 13  1  0
  4 22  1  0
  4 23  1  0
  5 24  1  0
  5 25  1  0
  7 26  1  0
  7 27  1  0
  8 28  1  0
  8 29  1  0
 10 30  1  0
 10 31  1  0
 11 32  1  0
 11 33  1  0
 14 34  1  0
 15 35  1  0
 18 36  1  0
 20 37  1  0
 20 38  1  0
 21 39  1  0
 21 40  1  0
M  END
$$$$
