@<TRIPOS>MOLECULE
*****
 40 42 0 0 0
SMALL
GASTEIGER

@<TRIPOS>ATOM
      1 O          -1.8200   -1.4450    2.0872 O.2     1  UNL1       -0.2524
      2 C          -1.7966   -1.0254    0.8426 C.2     1  UNL1        0.3050
      3 N          -3.0168   -0.5350    0.4172 N.am    1  UNL1       -0.2811
      4 C          -3.3180   -0.0373   -0.9035 C.3     1  UNL1        0.0396
      5 C          -3.4577    1.4778   -0.7133 C.3     1  UNL1        0.0635
      6 O          -4.3683    1.7202    0.2629 O.3     1  UNL1       -0.3767
      7 C          -5.0705    0.6767    0.7874 C.3     1  UNL1        0.0635
      8 C          -4.1920   -0.4398    1.3149 C.3     1  UNL1        0.0396
      9 N          -0.5599   -1.1643    0.2307 N.am    1  UNL1       -0.2825
     10 C          -0.1882   -0.7869   -1.0986 C.3     1  UNL1        0.0319
     11 C           1.3143   -0.9332   -1.3219 C.3     1  UNL1        0.0294
     12 N           2.0685   -0.4579   -0.2023 N.pl3   1  UNL1       -0.3122
     13 C           3.2798    0.2380   -0.4209 C.ar    1  UNL1        0.1214
     14 C           4.0554    0.7206    0.6305 C.ar    1  UNL1       -0.0207
     15 C           5.2396    1.4020    0.4504 C.ar    1  UNL1       -0.0431
     16 C           5.6753    1.6146   -0.8446 C.ar    1  UNL1        0.0361
     17 BR          7.3059    2.5487   -1.2242 Br      1  UNL1       -0.0487
     18 C           4.9065    1.1363   -1.8870 C.ar    1  UNL1        0.0436
     19 N           3.7580    0.4768   -1.6678 N.ar    1  UNL1       -0.2392
     20 C           1.5972   -0.6862    1.1422 C.3     1  UNL1        0.0294
     21 C           0.5277   -1.7851    1.0347 C.3     1  UNL1        0.0319
     22 H          -2.6381   -0.2923   -1.6902 H       1  UNL1        0.0488
     23 H          -4.3351   -0.4462   -1.2189 H       1  UNL1        0.0488
     24 H          -2.4603    1.8525   -0.4088 H       1  UNL1        0.0575
     25 H          -3.7989    1.8929   -1.6718 H       1  UNL1        0.0575
     26 H          -5.8266    0.2983    0.0516 H       1  UNL1        0.0575
     27 H          -5.6544    1.0599    1.6509 H       1  UNL1        0.0575
     28 H          -4.7661   -1.3743    1.2536 H       1  UNL1        0.0488
     29 H          -3.9184   -0.2365    2.3478 H       1  UNL1        0.0488
     30 H          -0.6497   -1.4533   -1.8470 H       1  UNL1        0.0480
     31 H          -0.4464    0.2643   -1.3658 H       1  UNL1        0.0480
     32 H           1.5601   -2.0013   -1.5184 H       1  UNL1        0.0480
     33 H           1.5417   -0.3866   -2.2628 H       1  UNL1        0.0480
     34 H           3.6763    0.5320    1.6416 H       1  UNL1        0.0652
     35 H           5.8390    1.7750    1.2697 H       1  UNL1        0.0630
     36 H           5.2743    1.3184   -2.8967 H       1  UNL1        0.0841
     37 H           1.1535    0.2140    1.5993 H       1  UNL1        0.0480
     38 H           2.3671   -1.0836    1.8176 H       1  UNL1        0.0480
     39 H           0.9439   -2.6571    0.5325 H       1  UNL1        0.0480
     40 H           0.1979   -1.9917    2.0589 H       1  UNL1        0.0480
@<TRIPOS>BOND
     1     1     2    2
     2     2     3   am
     3     3     4    1
     4     4     5    1
     5     5     6    1
     6     6     7    1
     7     7     8    1
     8     2     9   am
     9     9    10    1
    10    10    11    1
    11    11    12    1
    12    12    13    1
    13    13    14   ar
    14    14    15   ar
    15    15    16   ar
    16    16    17    1
    17    16    18   ar
    18    18    19   ar
    19    12    20    1
    20    20    21    1
    21     8     3    1
    22    21     9    1
    23    19    13   ar
    24     4    22    1
    25     4    23    1
    26     5    24    1
    27     5    25    1
    28     7    26    1
    29     7    27    1
    30     8    28    1
    31     8    29    1
    32    10    30    1
    33    10    31    1
    34    11    32    1
    35    11    33    1
    36    14    34    1
    37    15    35    1
    38    18    36    1
    39    20    37    1
    40    20    38    1
    41    21    39    1
    42    21    40    1
