@<TRIPOS>MOLECULE
*****
 61 63 0 0 0
SMALL
GASTEIGER

@<TRIPOS>ATOM
      1 C          -4.9434    4.4471    1.8310 C.3     1  UNL1       -0.0653
      2 C          -3.8020    3.4707    1.9917 C.3     1  UNL1       -0.0555
      3 C          -3.9237    2.3307    0.9886 C.3     1  UNL1       -0.0450
      4 C          -2.7797    1.3484    1.1482 C.3     1  UNL1        0.0242
      5 C          -2.8388    0.2146    0.2035 C.2     1  UNL1        0.2165
      6 O          -3.7801    0.3228   -0.6557 O.2     1  UNL1       -0.2756
      7 N          -1.9125   -0.8915    0.2684 N.am    1  UNL1       -0.2834
      8 C          -0.8279   -1.0234    1.2349 C.3     1  UNL1        0.0406
      9 C           0.4501   -0.4664    0.7897 C.ar    1  UNL1       -0.0300
     10 C           1.2635   -1.3395    0.0575 C.ar    1  UNL1       -0.0565
     11 C           2.4997   -0.9657   -0.4262 C.ar    1  UNL1       -0.0537
     12 C           3.0172    0.2994   -0.2186 C.ar    1  UNL1       -0.0172
     13 C           2.2184    1.1865    0.5115 C.ar    1  UNL1       -0.0537
     14 C           0.9873    0.7865    0.9831 C.ar    1  UNL1       -0.0565
     15 C           4.2663    0.8670   -0.6364 C.ar    1  UNL1       -0.0071
     16 C           4.1471    1.9294   -1.5326 C.ar    1  UNL1       -0.0534
     17 C           5.3031    2.5486   -2.0040 C.ar    1  UNL1       -0.0611
     18 C           6.5441    2.1156   -1.5893 C.ar    1  UNL1       -0.0611
     19 C           6.6853    1.0536   -0.6923 C.ar    1  UNL1       -0.0503
     20 C           5.5215    0.4650   -0.2467 C.ar    1  UNL1        0.0304
     21 C           5.6204   -0.6422    0.6892 C.ar    1  UNL1        0.2049
     22 N           6.7945   -1.1241    1.1300 N.ar    1  UNL1       -0.1331
     23 N           6.6583   -2.1189    1.9672 N.ar    1  UNL1       -0.1761
     24 N           5.3456   -2.2858    2.0709 N.ar    1  UNL1       -0.0485
     25 N           4.7134   -1.4084    1.3111 N.ar    1  UNL1       -0.1080
     26 C          -2.0959   -1.9476   -0.7024 C.3     1  UNL1        0.1254
     27 C          -3.4599   -2.5975   -0.6435 C.3     1  UNL1       -0.0177
     28 C          -3.7385   -3.2166    0.6982 C.3     1  UNL1       -0.0605
     29 C          -3.4443   -3.7678   -1.6388 C.3     1  UNL1       -0.0605
     30 C          -1.9027   -1.3933   -2.0650 C.2     1  UNL1        0.3257
     31 O          -1.8338   -1.4007   -3.4364 O.3     1  UNL1       -0.4793
     32 O          -1.6255   -0.2497   -2.5160 O.2     1  UNL1       -0.2489
     33 H          -5.0022    4.7369    0.7654 H       1  UNL1        0.0230
     34 H          -4.7000    5.3254    2.4891 H       1  UNL1        0.0230
     35 H          -5.8916    3.9682    2.1678 H       1  UNL1        0.0230
     36 H          -3.8373    3.0479    3.0186 H       1  UNL1        0.0263
     37 H          -2.8685    4.0419    1.8854 H       1  UNL1        0.0263
     38 H          -3.9569    2.7813   -0.0139 H       1  UNL1        0.0270
     39 H          -4.9012    1.8542    1.1582 H       1  UNL1        0.0270
     40 H          -1.8558    1.9631    0.9322 H       1  UNL1        0.0358
     41 H          -2.7158    1.0332    2.1879 H       1  UNL1        0.0358
     42 H          -1.1862   -0.4415    2.1345 H       1  UNL1        0.0514
     43 H          -0.7336   -2.0609    1.6146 H       1  UNL1        0.0514
     44 H           1.0390   -2.3631   -0.2070 H       1  UNL1        0.0621
     45 H           3.1624   -1.6015   -0.9978 H       1  UNL1        0.0624
     46 H           2.5018    2.2093    0.7475 H       1  UNL1        0.0624
     47 H           0.3639    1.4587    1.5524 H       1  UNL1        0.0621
     48 H           3.1779    2.3042   -1.8873 H       1  UNL1        0.0624
     49 H           5.2072    3.3805   -2.7056 H       1  UNL1        0.0618
     50 H           7.4083    2.6395   -1.9933 H       1  UNL1        0.0618
     51 H           7.6638    0.7247   -0.3755 H       1  UNL1        0.0625
     52 H           7.4776   -2.6058    2.4021 H       1  UNL1        0.2143
     53 H          -1.3034   -2.7072   -0.5272 H       1  UNL1        0.0619
     54 H          -4.2155   -1.8989   -0.9988 H       1  UNL1        0.0319
     55 H          -2.8231   -3.6931    1.1086 H       1  UNL1        0.0233
     56 H          -4.5094   -4.0126    0.6483 H       1  UNL1        0.0233
     57 H          -4.1499   -2.4556    1.4250 H       1  UNL1        0.0233
     58 H          -2.4147   -4.1938   -1.5781 H       1  UNL1        0.0233
     59 H          -3.6386   -3.4176   -2.6630 H       1  UNL1        0.0233
     60 H          -4.2243   -4.4700   -1.3136 H       1  UNL1        0.0233
     61 H          -2.2010   -2.0942   -4.0520 H       1  UNL1        0.2951
@<TRIPOS>BOND
     1     1     2    1
     2     2     3    1
     3     3     4    1
     4     4     5    1
     5     5     6    2
     6     5     7   am
     7     7     8    1
     8     8     9    1
     9     9    10   ar
    10    10    11   ar
    11    11    12   ar
    12    12    13   ar
    13    13    14   ar
    14    12    15    1
    15    15    16   ar
    16    16    17   ar
    17    17    18   ar
    18    18    19   ar
    19    19    20   ar
    20    20    21    1
    21    21    22   ar
    22    22    23   ar
    23    23    24   ar
    24    24    25   ar
    25     7    26    1
    26    26    27    1
    27    27    28    1
    28    27    29    1
    29    26    30    1
    30    30    31    1
    31    30    32    2
    32    14     9   ar
    33    20    15   ar
    34    25    21   ar
    35     1    33    1
    36     1    34    1
    37     1    35    1
    38     2    36    1
    39     2    37    1
    40     3    38    1
    41     3    39    1
    42     4    40    1
    43     4    41    1
    44     8    42    1
    45     8    43    1
    46    10    44    1
    47    11    45    1
    48    13    46    1
    49    14    47    1
    50    16    48    1
    51    17    49    1
    52    18    50    1
    53    19    51    1
    54    23    52    1
    55    26    53    1
    56    27    54    1
    57    28    55    1
    58    28    56    1
    59    28    57    1
    60    29    58    1
    61    29    59    1
    62    29    60    1
    63    31    61    1
