@<TRIPOS>MOLECULE
*****
 86 90 0 0 0
SMALL
GASTEIGER

@<TRIPOS>ATOM
      1 C          -2.3953    1.9081    0.9627 C.3     1  UNL1        0.3087
      2 C          -2.7177    2.4983    2.3306 C.3     1  UNL1        0.0379
      3 O          -2.6086    0.5122    1.0967 O.3     1  UNL1       -0.3873
      4 C          -3.5700   -0.1731    0.4100 C.2     1  UNL1        0.4128
      5 O          -4.1836    0.6444   -0.3191 O.2     1  UNL1       -0.2257
      6 N          -4.4309   -1.2090   -0.1068 N.am    1  UNL1       -0.2241
      7 C          -3.8988   -2.3533    0.5908 C.3     1  UNL1        0.0128
      8 C          -5.2347   -0.4422   -0.9695 C.ar    1  UNL1        0.1362
      9 C          -6.3731    0.1840   -0.5411 C.ar    1  UNL1        0.0301
     10 C          -7.0568    0.1412    0.7645 C.3     1  UNL1        0.1207
     11 O          -7.9575   -0.8860    0.8478 O.3     1  UNL1       -0.4589
     12 C          -8.0541   -2.1881    0.7829 C.2     1  UNL1        0.3214
     13 O          -7.0132   -2.8260    0.5723 O.2     1  UNL1       -0.2494
     14 C          -9.3597   -2.8361    0.9576 C.3     1  UNL1        0.0942
     15 N         -10.4570   -1.9320    1.1728 N.3     1  UNL1       -0.3097
     16 C         -10.7494   -1.1456   -0.0136 C.3     1  UNL1       -0.0153
     17 C          -7.0048    0.9350   -1.5172 C.ar    1  UNL1       -0.0506
     18 C          -6.4655    0.9886   -2.7822 C.ar    1  UNL1       -0.0431
     19 C          -5.3185    0.3480   -3.1926 C.ar    1  UNL1        0.0297
     20 N          -4.7232   -0.3790   -2.2090 N.ar    1  UNL1       -0.2394
     21 N          -1.0555    2.2239    0.5837 N.ar    1  UNL1       -0.1311
     22 C           0.0868    1.7047    1.0242 C.ar    1  UNL1        0.2685
     23 N           1.1910    2.2173    0.4668 N.ar    1  UNL1       -0.2070
     24 C           2.6253    2.1988    0.3753 C.3     1  UNL1        0.0809
     25 C           3.1647    1.2964   -0.7339 C.3     1  UNL1        0.1216
     26 O           2.5034    1.8304   -1.8836 O.3     1  UNL1       -0.3814
     27 C           2.8581   -0.1019   -0.6084 C.ar    1  UNL1        0.0242
     28 C           3.1912   -0.8613   -1.7351 C.ar    1  UNL1        0.1295
     29 F           3.7031   -0.4815   -2.9402 F       1  UNL1       -0.2051
     30 C           2.9987   -2.2372   -1.7623 C.ar    1  UNL1       -0.0234
     31 C           2.4674   -2.9196   -0.6744 C.ar    1  UNL1       -0.0237
     32 C           2.1209   -2.1969    0.4716 C.ar    1  UNL1        0.1239
     33 F           1.6005   -2.7708    1.5716 F       1  UNL1       -0.2055
     34 C           2.3438   -0.8419    0.4163 C.ar    1  UNL1       -0.0177
     35 C           4.6127    1.5436   -0.9758 C.3     1  UNL1        0.0397
     36 C           4.8756    2.9985   -1.3719 C.3     1  UNL1       -0.0534
     37 C           5.5247    1.1078    0.1192 C.ar    1  UNL1        0.0849
     38 N           6.5975    0.5972   -0.0665 N.ar    1  UNL1       -0.2437
     39 C           7.4273    0.2018    0.8811 C.ar    1  UNL1        0.0784
     40 C           7.0282    0.3912    2.2321 C.ar    1  UNL1        0.0033
     41 S           5.3441    1.1914    1.9814 S.2     1  UNL1       -0.0795
     42 C           8.7380   -0.4332    0.6196 C.ar    1  UNL1        0.0009
     43 C           9.1880   -0.6570   -0.6632 C.ar    1  UNL1       -0.0513
     44 C          10.3839   -1.2432   -0.9950 C.ar    1  UNL1       -0.0437
     45 C          11.1966   -1.6377    0.0252 C.ar    1  UNL1        0.0518
     46 C          10.8079   -1.4433    1.3532 C.ar    1  UNL1       -0.0437
     47 C           9.5899   -0.8467    1.6046 C.ar    1  UNL1       -0.0513
     48 C          12.4742   -2.2652   -0.1562 C.1     1  UNL1        0.0992
     49 N          13.5141   -2.7574   -0.3138 N.1     1  UNL1       -0.1909
     50 N           0.6558    3.1233   -0.3810 N.ar    1  UNL1       -0.1082
     51 C          -0.6732    3.1354   -0.3198 C.ar    1  UNL1        0.2882
     52 H          -3.0989    2.3887    0.2464 H       1  UNL1        0.1568
     53 H          -2.2975    1.8046    3.0990 H       1  UNL1        0.0333
     54 H          -2.3126    3.5012    2.4696 H       1  UNL1        0.0333
     55 H          -3.8173    2.5398    2.4887 H       1  UNL1        0.0333
     56 H          -4.3624   -3.3182    0.2622 H       1  UNL1        0.0434
     57 H          -4.0142   -2.2937    1.6777 H       1  UNL1        0.0434
     58 H          -2.8047   -2.5129    0.3722 H       1  UNL1        0.0434
     59 H          -7.5521    1.1320    0.9380 H       1  UNL1        0.0750
     60 H          -6.3035    0.0675    1.6054 H       1  UNL1        0.0750
     61 H          -9.3295   -3.5305    1.8256 H       1  UNL1        0.0539
     62 H          -9.5783   -3.4462    0.0642 H       1  UNL1        0.0539
     63 H         -11.3020   -2.5312    1.3228 H       1  UNL1        0.1221
     64 H         -11.8274   -1.1601   -0.2764 H       1  UNL1        0.0388
     65 H         -10.4671   -0.1028    0.2323 H       1  UNL1        0.0388
     66 H         -10.2217   -1.5187   -0.9206 H       1  UNL1        0.0388
     67 H          -7.9157    1.4862   -1.3201 H       1  UNL1        0.0623
     68 H          -6.9740    1.5806   -3.5289 H       1  UNL1        0.0633
     69 H          -4.9733    0.4496   -4.2101 H       1  UNL1        0.0830
     70 H           0.2377    0.9444    1.7655 H       1  UNL1        0.1617
     71 H           3.0484    3.1850    0.2540 H       1  UNL1        0.0543
     72 H           3.0373    1.8252    1.3726 H       1  UNL1        0.0543
     73 H           1.7738    1.2407   -2.1640 H       1  UNL1        0.2107
     74 H           3.2148   -2.9268   -2.5638 H       1  UNL1        0.0647
     75 H           2.2907   -3.9832   -0.6277 H       1  UNL1        0.0647
     76 H           2.1087   -0.2907    1.2984 H       1  UNL1        0.0651
     77 H           4.9539    0.9682   -1.8596 H       1  UNL1        0.0399
     78 H           3.9359    3.4409   -1.7139 H       1  UNL1        0.0237
     79 H           5.3185    3.4736   -0.4914 H       1  UNL1        0.0237
     80 H           5.6148    3.0840   -2.1941 H       1  UNL1        0.0237
     81 H           7.4893    0.2003    3.1647 H       1  UNL1        0.0715
     82 H           8.5623   -0.3530   -1.5085 H       1  UNL1        0.0624
     83 H          10.7028   -1.4028   -2.0124 H       1  UNL1        0.0631
     84 H          11.4257   -1.7428    2.1846 H       1  UNL1        0.0631
     85 H           9.3093   -0.7060    2.6404 H       1  UNL1        0.0624
     86 H          -1.3843    3.7484   -0.8752 H       1  UNL1        0.1636
@<TRIPOS>UNITY_ATOM_ATTR
21 1
charge 1
@<TRIPOS>BOND
     1     1     2    1
     2     1     3    1
     3     3     4    1
     4     4     5    2
     5     4     6   am
     6     6     7    1
     7     6     8    1
     8     8     9   ar
     9     9    10    1
    10    10    11    1
    11    11    12    1
    12    12    13    2
    13    12    14    1
    14    14    15    1
    15    15    16    1
    16     9    17   ar
    17    17    18   ar
    18    18    19   ar
    19    19    20   ar
    20     1    21    1
    21    21    22   ar
    22    22    23   ar
    23    23    24    1
    24    24    25    1
    25    25    26    1
    26    25    27    1
    27    27    28   ar
    28    28    29    1
    29    28    30   ar
    30    30    31   ar
    31    31    32   ar
    32    32    33    1
    33    32    34   ar
    34    25    35    1
    35    35    36    1
    36    35    37    1
    37    37    38   ar
    38    38    39   ar
    39    39    40   ar
    40    40    41   ar
    41    39    42    1
    42    42    43   ar
    43    43    44   ar
    44    44    45   ar
    45    45    46   ar
    46    46    47   ar
    47    45    48    1
    48    48    49    3
    49    23    50   ar
    50    50    51   ar
    51    20     8   ar
    52    51    21   ar
    53    34    27   ar
    54    41    37   ar
    55    47    42   ar
    56     1    52    1
    57     2    53    1
    58     2    54    1
    59     2    55    1
    60     7    56    1
    61     7    57    1
    62     7    58    1
    63    10    59    1
    64    10    60    1
    65    14    61    1
    66    14    62    1
    67    15    63    1
    68    16    64    1
    69    16    65    1
    70    16    66    1
    71    17    67    1
    72    18    68    1
    73    19    69    1
    74    22    70    1
    75    24    71    1
    76    24    72    1
    77    26    73    1
    78    30    74    1
    79    31    75    1
    80    34    76    1
    81    35    77    1
    82    36    78    1
    83    36    79    1
    84    36    80    1
    85    40    81    1
    86    43    82    1
    87    44    83    1
    88    46    84    1
    89    47    85    1
    90    51    86    1
