
     RDKit          3D

 86 90  0  0  0  0  0  0  0  0999 V2000
   -2.3953    1.9081    0.9627 C   0  0  0  0  0  0  0  0  0  0  0  0
   -2.7177    2.4983    2.3306 C   0  0  0  0  0  0  0  0  0  0  0  0
   -2.6086    0.5122    1.0967 O   0  0  0  0  0  0  0  0  0  0  0  0
   -3.5700   -0.1731    0.4100 C   0  0  0  0  0  0  0  0  0  0  0  0
   -4.1836    0.6444   -0.3191 O   0  0  0  0  0  0  0  0  0  0  0  0
   -4.4309   -1.2090   -0.1068 N   0  0  0  0  0  0  0  0  0  0  0  0
   -3.8988   -2.3533    0.5908 C   0  0  0  0  0  0  0  0  0  0  0  0
   -5.2347   -0.4422   -0.9695 C   0  0  0  0  0  0  0  0  0  0  0  0
   -6.3731    0.1840   -0.5411 C   0  0  0  0  0  0  0  0  0  0  0  0
   -7.0568    0.1412    0.7645 C   0  0  0  0  0  0  0  0  0  0  0  0
   -7.9575   -0.8860    0.8478 O   0  0  0  0  0  0  0  0  0  0  0  0
   -8.0541   -2.1881    0.7829 C   0  0  0  0  0  0  0  0  0  0  0  0
   -7.0132   -2.8260    0.5723 O   0  0  0  0  0  0  0  0  0  0  0  0
   -9.3597   -2.8361    0.9576 C   0  0  0  0  0  0  0  0  0  0  0  0
  -10.4570   -1.9320    1.1728 N   0  0  0  0  0  0  0  0  0  0  0  0
  -10.7494   -1.1456   -0.0136 C   0  0  0  0  0  0  0  0  0  0  0  0
   -7.0048    0.9350   -1.5172 C   0  0  0  0  0  0  0  0  0  0  0  0
   -6.4655    0.9886   -2.7822 C   0  0  0  0  0  0  0  0  0  0  0  0
   -5.3185    0.3480   -3.1926 C   0  0  0  0  0  0  0  0  0  0  0  0
   -4.7232   -0.3790   -2.2090 N   0  0  0  0  0  0  0  0  0  0  0  0
   -1.0555    2.2239    0.5837 N   0  0  0  0  0  4  0  0  0  0  0  0
    0.0868    1.7047    1.0242 C   0  0  0  0  0  0  0  0  0  0  0  0
    1.1910    2.2173    0.4668 N   0  0  0  0  0  0  0  0  0  0  0  0
    2.6253    2.1988    0.3753 C   0  0  0  0  0  0  0  0  0  0  0  0
    3.1647    1.2964   -0.7339 C   0  0  2  0  0  0  0  0  0  0  0  0
    2.5034    1.8304   -1.8836 O   0  0  0  0  0  0  0  0  0  0  0  0
    2.8581   -0.1019   -0.6084 C   0  0  0  0  0  0  0  0  0  0  0  0
    3.1912   -0.8613   -1.7351 C   0  0  0  0  0  0  0  0  0  0  0  0
    3.7031   -0.4815   -2.9402 F   0  0  0  0  0  0  0  0  0  0  0  0
    2.9987   -2.2372   -1.7623 C   0  0  0  0  0  0  0  0  0  0  0  0
    2.4674   -2.9196   -0.6744 C   0  0  0  0  0  0  0  0  0  0  0  0
    2.1209   -2.1969    0.4716 C   0  0  0  0  0  0  0  0  0  0  0  0
    1.6005   -2.7708    1.5716 F   0  0  0  0  0  0  0  0  0  0  0  0
    2.3438   -0.8419    0.4163 C   0  0  0  0  0  0  0  0  0  0  0  0
    4.6127    1.5436   -0.9758 C   0  0  1  0  0  0  0  0  0  0  0  0
    4.8756    2.9985   -1.3719 C   0  0  0  0  0  0  0  0  0  0  0  0
    5.5247    1.1078    0.1192 C   0  0  0  0  0  0  0  0  0  0  0  0
    6.5975    0.5972   -0.0665 N   0  0  0  0  0  0  0  0  0  0  0  0
    7.4273    0.2018    0.8811 C   0  0  0  0  0  0  0  0  0  0  0  0
    7.0282    0.3912    2.2321 C   0  0  0  0  0  0  0  0  0  0  0  0
    5.3441    1.1914    1.9814 S   0  0  0  0  0  0  0  0  0  0  0  0
    8.7380   -0.4332    0.6196 C   0  0  0  0  0  0  0  0  0  0  0  0
    9.1880   -0.6570   -0.6632 C   0  0  0  0  0  0  0  0  0  0  0  0
   10.3839   -1.2432   -0.9950 C   0  0  0  0  0  0  0  0  0  0  0  0
   11.1966   -1.6377    0.0252 C   0  0  0  0  0  0  0  0  0  0  0  0
   10.8079   -1.4433    1.3532 C   0  0  0  0  0  0  0  0  0  0  0  0
    9.5899   -0.8467    1.6046 C   0  0  0  0  0  0  0  0  0  0  0  0
   12.4742   -2.2652   -0.1562 C   0  0  0  0  0  0  0  0  0  0  0  0
   13.5141   -2.7574   -0.3138 N   0  0  0  0  0  0  0  0  0  0  0  0
    0.6558    3.1233   -0.3810 N   0  0  0  0  0  0  0  0  0  0  0  0
   -0.6732    3.1354   -0.3198 C   0  0  0  0  0  0  0  0  0  0  0  0
   -3.0989    2.3887    0.2464 H   0  0  0  0  0  0  0  0  0  0  0  0
   -2.2975    1.8046    3.0990 H   0  0  0  0  0  0  0  0  0  0  0  0
   -2.3126    3.5012    2.4696 H   0  0  0  0  0  0  0  0  0  0  0  0
   -3.8173    2.5398    2.4887 H   0  0  0  0  0  0  0  0  0  0  0  0
   -4.3624   -3.3182    0.2622 H   0  0  0  0  0  0  0  0  0  0  0  0
   -4.0142   -2.2937    1.6777 H   0  0  0  0  0  0  0  0  0  0  0  0
   -2.8047   -2.5129    0.3722 H   0  0  0  0  0  0  0  0  0  0  0  0
   -7.5521    1.1320    0.9380 H   0  0  0  0  0  0  0  0  0  0  0  0
   -6.3035    0.0675    1.6054 H   0  0  0  0  0  0  0  0  0  0  0  0
   -9.3295   -3.5305    1.8256 H   0  0  0  0  0  0  0  0  0  0  0  0
   -9.5783   -3.4462    0.0642 H   0  0  0  0  0  0  0  0  0  0  0  0
  -11.3020   -2.5312    1.3228 H   0  0  0  0  0  0  0  0  0  0  0  0
  -11.8274   -1.1601   -0.2764 H   0  0  0  0  0  0  0  0  0  0  0  0
  -10.4671   -0.1028    0.2323 H   0  0  0  0  0  0  0  0  0  0  0  0
  -10.2217   -1.5187   -0.9206 H   0  0  0  0  0  0  0  0  0  0  0  0
   -7.9157    1.4862   -1.3201 H   0  0  0  0  0  0  0  0  0  0  0  0
   -6.9740    1.5806   -3.5289 H   0  0  0  0  0  0  0  0  0  0  0  0
   -4.9733    0.4496   -4.2101 H   0  0  0  0  0  0  0  0  0  0  0  0
    0.2377    0.9444    1.7655 H   0  0  0  0  0  0  0  0  0  0  0  0
    3.0484    3.1850    0.2540 H   0  0  0  0  0  0  0  0  0  0  0  0
    3.0373    1.8252    1.3726 H   0  0  0  0  0  0  0  0  0  0  0  0
    1.7738    1.2407   -2.1640 H   0  0  0  0  0  0  0  0  0  0  0  0
    3.2148   -2.9268   -2.5638 H   0  0  0  0  0  0  0  0  0  0  0  0
    2.2907   -3.9832   -0.6277 H   0  0  0  0  0  0  0  0  0  0  0  0
    2.1087   -0.2907    1.2984 H   0  0  0  0  0  0  0  0  0  0  0  0
    4.9539    0.9682   -1.8596 H   0  0  0  0  0  0  0  0  0  0  0  0
    3.9359    3.4409   -1.7139 H   0  0  0  0  0  0  0  0  0  0  0  0
    5.3185    3.4736   -0.4914 H   0  0  0  0  0  0  0  0  0  0  0  0
    5.6148    3.0840   -2.1941 H   0  0  0  0  0  0  0  0  0  0  0  0
    7.4893    0.2003    3.1647 H   0  0  0  0  0  0  0  0  0  0  0  0
    8.5623   -0.3530   -1.5085 H   0  0  0  0  0  0  0  0  0  0  0  0
   10.7028   -1.4028   -2.0124 H   0  0  0  0  0  0  0  0  0  0  0  0
   11.4257   -1.7428    2.1846 H   0  0  0  0  0  0  0  0  0  0  0  0
    9.3093   -0.7060    2.6404 H   0  0  0  0  0  0  0  0  0  0  0  0
   -1.3843    3.7484   -0.8752 H   0  0  0  0  0  0  0  0  0  0  0  0
  1  2  1  0
  1  3  1  0
  3  4  1  0
  4  5  2  0
  4  6  1  0
  6  7  1  0
  6  8  1  0
  8  9  2  0
  9 10  1  0
 10 11  1  0
 11 12  1  0
 12 13  2  0
 12 14  1  0
 14 15  1  0
 15 16  1  0
  9 17  1  0
 17 18  2  0
 18 19  1  0
 19 20  2  0
  1 21  1  0
 21 22  2  0
 22 23  1  0
 23 24  1  0
 24 25  1  0
 25 26  1  6
 25 27  1  0
 27 28  2  0
 28 29  1  0
 28 30  1  0
 30 31  2  0
 31 32  1  0
 32 33  1  0
 32 34  2  0
 25 35  1  0
 35 36  1  0
 35 37  1  0
 37 38  2  0
 38 39  1  0
 39 40  2  0
 40 41  1  0
 39 42  1  0
 42 43  2  0
 43 44  1  0
 44 45  2  0
 45 46  1  0
 46 47  2  0
 45 48  1  0
 48 49  3  0
 23 50  1  0
 50 51  2  0
 20  8  1  0
 51 21  1  0
 34 27  1  0
 41 37  1  0
 47 42  1  0
  1 52  1  0
  2 53  1  0
  2 54  1  0
  2 55  1  0
  7 56  1  0
  7 57  1  0
  7 58  1  0
 10 59  1  0
 10 60  1  0
 14 61  1  0
 14 62  1  0
 15 63  1  0
 16 64  1  0
 16 65  1  0
 16 66  1  0
 17 67  1  0
 18 68  1  0
 19 69  1  0
 22 70  1  0
 24 71  1  0
 24 72  1  0
 26 73  1  0
 30 74  1  0
 31 75  1  0
 34 76  1  0
 35 77  1  6
 36 78  1  0
 36 79  1  0
 36 80  1  0
 40 81  1  0
 43 82  1  0
 44 83  1  0
 46 84  1  0
 47 85  1  0
 51 86  1  0
M  CHG  1  21   1
M  END
$$$$
