@<TRIPOS>MOLECULE
*****
 61 68 0 0 0
SMALL
GASTEIGER

@<TRIPOS>ATOM
      1 C          -1.3708   -1.7651    2.0658 C.3     1  UNL1       -0.0155
      2 N          -1.5723   -0.5760    1.2590 N.3     1  UNL1       -0.3136
      3 C          -2.4095   -0.9241    0.1459 C.3     1  UNL1        0.0423
      4 C          -1.8454   -1.9902   -0.7508 C.3     1  UNL1        0.0107
      5 C          -0.8311   -1.4783   -1.7230 C.3     1  UNL1        0.1402
      6 O          -0.9502   -0.2553   -2.1989 O.3     1  UNL1       -0.3282
      7 C          -1.4976    0.7829   -1.4432 C.3     1  UNL1        0.1741
      8 C          -1.9465    1.7763   -2.5198 C.3     1  UNL1       -0.0136
      9 C          -2.6952    0.2652   -0.7677 C.3     1  UNL1        0.1214
     10 O          -3.4809    1.1163   -0.0526 O.3     1  UNL1       -0.3735
     11 C          -4.8182    1.1327   -0.4206 C.3     1  UNL1        0.0371
     12 N          -0.4578    1.3069   -0.5933 N.ar    1  UNL1       -0.3070
     13 C          -0.3783    2.5415   -0.1034 C.ar    1  UNL1        0.0527
     14 C          -1.2202    3.6304   -0.2005 C.ar    1  UNL1       -0.0375
     15 C          -0.9056    4.8193    0.4168 C.ar    1  UNL1       -0.0598
     16 C           0.2502    4.9752    1.1517 C.ar    1  UNL1       -0.0611
     17 C           1.1097    3.9037    1.2661 C.ar    1  UNL1       -0.0520
     18 C           0.7811    2.7183    0.6418 C.ar    1  UNL1        0.0081
     19 C           1.4402    1.4855    0.5900 C.ar    1  UNL1        0.0151
     20 C           2.6301    1.0441    1.1299 C.ar    1  UNL1       -0.0078
     21 C           3.0488   -0.2724    0.9059 C.ar    1  UNL1        0.0518
     22 C           2.2601   -1.1195    0.1432 C.ar    1  UNL1        0.0221
     23 C           2.3768   -2.4359   -0.2400 C.ar    1  UNL1        0.0085
     24 C           3.2836   -3.4433   -0.0607 C.ar    1  UNL1       -0.0520
     25 C           3.0948   -4.7011   -0.5998 C.ar    1  UNL1       -0.0611
     26 C           1.9629   -4.9881   -1.3518 C.ar    1  UNL1       -0.0598
     27 C           1.0585   -3.9633   -1.5237 C.ar    1  UNL1       -0.0375
     28 C           1.2317   -2.7066   -0.9939 C.ar    1  UNL1        0.0524
     29 N           0.4779   -1.6163   -1.0565 N.ar    1  UNL1       -0.3115
     30 C           1.0643   -0.6141   -0.3775 C.ar    1  UNL1        0.0774
     31 C           0.6596    0.6834   -0.1551 C.ar    1  UNL1        0.0772
     32 C           4.3071   -0.4623    1.5734 C.2     1  UNL1        0.2453
     33 O           5.0380   -1.4562    1.6464 O.2     1  UNL1       -0.2702
     34 N           4.6399    0.7755    2.2085 N.am    1  UNL1       -0.3072
     35 C           3.6268    1.7606    1.9696 C.3     1  UNL1        0.0385
     36 H          -0.4011   -2.2416    1.8744 H       1  UNL1        0.0388
     37 H          -1.4118   -1.5301    3.1597 H       1  UNL1        0.0388
     38 H          -2.1964   -2.5046    1.8951 H       1  UNL1        0.0388
     39 H          -2.1153    0.0906    1.8525 H       1  UNL1        0.1220
     40 H          -3.3959   -1.2285    0.5474 H       1  UNL1        0.0489
     41 H          -2.6864   -2.4996   -1.2662 H       1  UNL1        0.0325
     42 H          -1.3863   -2.7560   -0.0910 H       1  UNL1        0.0325
     43 H          -0.7978   -2.2047   -2.5696 H       1  UNL1        0.0839
     44 H          -2.0040    1.2776   -3.5414 H       1  UNL1        0.0277
     45 H          -1.1975    2.5760   -2.6908 H       1  UNL1        0.0277
     46 H          -2.9827    2.1281   -2.3832 H       1  UNL1        0.0277
     47 H          -3.3498   -0.2014   -1.5622 H       1  UNL1        0.0660
     48 H          -5.0123    1.4226   -1.4659 H       1  UNL1        0.0524
     49 H          -5.2470    0.1047   -0.3174 H       1  UNL1        0.0524
     50 H          -5.3634    1.8536    0.2277 H       1  UNL1        0.0524
     51 H          -2.1252    3.5446   -0.7511 H       1  UNL1        0.0638
     52 H          -1.5563    5.6786    0.3477 H       1  UNL1        0.0618
     53 H           0.5125    5.8845    1.6363 H       1  UNL1        0.0618
     54 H           2.0326    3.9769    1.8345 H       1  UNL1        0.0624
     55 H           4.1641   -3.2924    0.4993 H       1  UNL1        0.0624
     56 H           3.8111   -5.4844   -0.4539 H       1  UNL1        0.0618
     57 H           1.8429   -5.9763   -1.7589 H       1  UNL1        0.0618
     58 H           0.1739   -4.1820   -2.1095 H       1  UNL1        0.0638
     59 H           5.5046    0.9191    2.7633 H       1  UNL1        0.1493
     60 H           4.0486    2.6185    1.4083 H       1  UNL1        0.0512
     61 H           3.1766    2.0765    2.9338 H       1  UNL1        0.0512
@<TRIPOS>BOND
     1     1     2    1
     2     2     3    1
     3     3     4    1
     4     4     5    1
     5     5     6    1
     6     6     7    1
     7     7     8    1
     8     7     9    1
     9     9    10    1
    10    10    11    1
    11     7    12    1
    12    12    13   ar
    13    13    14   ar
    14    14    15   ar
    15    15    16   ar
    16    16    17   ar
    17    17    18   ar
    18    18    19   ar
    19    19    20   ar
    20    20    21   ar
    21    21    22   ar
    22    22    23   ar
    23    23    24   ar
    24    24    25   ar
    25    25    26   ar
    26    26    27   ar
    27    27    28   ar
    28    28    29   ar
    29    29    30   ar
    30    30    31   ar
    31    21    32    1
    32    32    33    2
    33    32    34   am
    34    34    35    1
    35     9     3    1
    36    31    12   ar
    37    29     5    1
    38    18    13   ar
    39    31    19   ar
    40    35    20    1
    41    30    22   ar
    42    28    23   ar
    43     1    36    1
    44     1    37    1
    45     1    38    1
    46     2    39    1
    47     3    40    1
    48     4    41    1
    49     4    42    1
    50     5    43    1
    51     8    44    1
    52     8    45    1
    53     8    46    1
    54     9    47    1
    55    11    48    1
    56    11    49    1
    57    11    50    1
    58    14    51    1
    59    15    52    1
    60    16    53    1
    61    17    54    1
    62    24    55    1
    63    25    56    1
    64    26    57    1
    65    27    58    1
    66    34    59    1
    67    35    60    1
    68    35    61    1
