
     RDKit          3D

 43 46  0  0  0  0  0  0  0  0999 V2000
   -3.3199   -2.1986   -1.8582 N   0  0  0  0  0  0  0  0  0  0  0  0
   -3.6088   -1.4702   -0.9966 C   0  0  0  0  0  0  0  0  0  0  0  0
   -3.9951   -0.5443    0.0864 C   0  0  2  0  0  0  0  0  0  0  0  0
   -5.5136   -0.7229    0.2395 C   0  0  0  0  0  0  0  0  0  0  0  0
   -5.9708    0.1926   -0.9053 C   0  0  2  0  0  0  0  0  0  0  0  0
   -5.5402   -0.3800   -2.0615 F   0  0  0  0  0  0  0  0  0  0  0  0
   -5.1267    1.4165   -0.6217 C   0  0  0  0  0  0  0  0  0  0  0  0
   -3.8306    0.8233   -0.3576 N   0  0  0  0  0  0  0  0  0  0  0  0
   -2.5915    1.4818   -0.5096 C   0  0  0  0  0  0  0  0  0  0  0  0
   -2.5357    2.6857   -0.9051 O   0  0  0  0  0  0  0  0  0  0  0  0
   -1.3357    0.7462   -0.1991 C   0  0  0  0  0  0  0  0  0  0  0  0
   -0.1832    1.5636   -0.4074 N   0  0  0  0  0  0  0  0  0  0  0  0
    1.0054    0.8306   -0.0508 C   0  0  1  0  0  0  0  0  0  0  0  0
    1.2039    0.3622    1.3422 C   0  0  2  0  0  0  0  0  0  0  0  0
    2.5915    0.0839    1.8187 C   0  0  0  0  0  0  0  0  0  0  0  0
    3.1558   -0.6358    0.7005 N   0  0  0  0  0  0  0  0  0  0  0  0
    4.4668   -0.5442    0.1635 C   0  0  0  0  0  0  0  0  0  0  0  0
    5.3148    0.3336    0.7329 N   0  0  0  0  0  0  0  0  0  0  0  0
    6.5789    0.4565    0.2549 C   0  0  0  0  0  0  0  0  0  0  0  0
    6.9725   -0.3171   -0.8025 C   0  0  0  0  0  0  0  0  0  0  0  0
    6.1046   -1.2053   -1.3737 C   0  0  0  0  0  0  0  0  0  0  0  0
    4.8518   -1.2968   -0.8664 N   0  0  0  0  0  0  0  0  0  0  0  0
    2.0965   -1.5001    0.2083 C   0  0  0  0  0  0  0  0  0  0  0  0
    0.8602   -0.6241    0.2832 C   0  0  2  0  0  0  0  0  0  0  0  0
   -3.4668   -0.7553    1.0227 H   0  0  0  0  0  0  0  0  0  0  0  0
   -5.8298   -1.7541    0.0937 H   0  0  0  0  0  0  0  0  0  0  0  0
   -5.7856   -0.2848    1.2215 H   0  0  0  0  0  0  0  0  0  0  0  0
   -7.0486    0.3866   -0.8613 H   0  0  0  0  0  0  0  0  0  0  0  0
   -5.4873    1.9241    0.3180 H   0  0  0  0  0  0  0  0  0  0  0  0
   -5.1057    2.1154   -1.4765 H   0  0  0  0  0  0  0  0  0  0  0  0
   -1.3939    0.4054    0.8400 H   0  0  0  0  0  0  0  0  0  0  0  0
   -1.2956   -0.0770   -0.9558 H   0  0  0  0  0  0  0  0  0  0  0  0
   -0.2171    2.4445    0.1823 H   0  0  0  0  0  0  0  0  0  0  0  0
    1.9576    1.1308   -0.5702 H   0  0  0  0  0  0  0  0  0  0  0  0
    0.4531    0.5249    2.1357 H   0  0  0  0  0  0  0  0  0  0  0  0
    3.1284    1.0481    1.9639 H   0  0  0  0  0  0  0  0  0  0  0  0
    2.6005   -0.5302    2.7385 H   0  0  0  0  0  0  0  0  0  0  0  0
    7.2664    1.1675    0.7151 H   0  0  0  0  0  0  0  0  0  0  0  0
    7.9780   -0.2243   -1.1886 H   0  0  0  0  0  0  0  0  0  0  0  0
    6.4477   -1.7956   -2.2015 H   0  0  0  0  0  0  0  0  0  0  0  0
    1.9508   -2.3446    0.9119 H   0  0  0  0  0  0  0  0  0  0  0  0
    2.3197   -1.8240   -0.8171 H   0  0  0  0  0  0  0  0  0  0  0  0
   -0.1225   -1.0942    0.3063 H   0  0  0  0  0  0  0  0  0  0  0  0
  1  2  3  0
  2  3  1  0
  3  4  1  0
  4  5  1  0
  5  6  1  0
  5  7  1  0
  7  8  1  0
  8  9  1  0
  9 10  2  0
  9 11  1  0
 11 12  1  0
 12 13  1  0
 13 14  1  0
 14 15  1  0
 15 16  1  0
 16 17  1  0
 17 18  2  0
 18 19  1  0
 19 20  2  0
 20 21  1  0
 21 22  2  0
 16 23  1  0
 23 24  1  0
  8  3  1  0
 24 13  1  0
 24 14  1  0
 22 17  1  0
  3 25  1  1
  4 26  1  0
  4 27  1  0
  5 28  1  6
  7 29  1  0
  7 30  1  0
 11 31  1  0
 11 32  1  0
 12 33  1  0
 13 34  1  6
 14 35  1  1
 15 36  1  0
 15 37  1  0
 19 38  1  0
 20 39  1  0
 21 40  1  0
 23 41  1  0
 23 42  1  0
 24 43  1  1
M  END
$$$$
