@<TRIPOS>MOLECULE
*****
 43 46 0 0 0
SMALL
GASTEIGER

@<TRIPOS>ATOM
      1 N          -3.3199   -2.1986   -1.8582 N.1     1  UNL1       -0.1946
      2 C          -3.6088   -1.4702   -0.9966 C.1     1  UNL1        0.0852
      3 C          -3.9951   -0.5443    0.0864 C.3     1  UNL1        0.1157
      4 C          -5.5136   -0.7229    0.2395 C.3     1  UNL1        0.0117
      5 C          -5.9708    0.1926   -0.9053 C.3     1  UNL1        0.1193
      6 F          -5.5402   -0.3800   -2.0615 F       1  UNL1       -0.2438
      7 C          -5.1267    1.4165   -0.6217 C.3     1  UNL1        0.0472
      8 N          -3.8306    0.8233   -0.3576 N.am    1  UNL1       -0.2818
      9 C          -2.5915    1.4818   -0.5096 C.2     1  UNL1        0.2305
     10 O          -2.5357    2.6857   -0.9051 O.2     1  UNL1       -0.2742
     11 C          -1.3357    0.7462   -0.1991 C.3     1  UNL1        0.0737
     12 N          -0.1832    1.5636   -0.4074 N.3     1  UNL1       -0.3048
     13 C           1.0054    0.8306   -0.0508 C.3     1  UNL1        0.0173
     14 C           1.2039    0.3622    1.3422 C.3     1  UNL1       -0.0038
     15 C           2.5915    0.0839    1.8187 C.3     1  UNL1        0.0195
     16 N           3.1558   -0.6358    0.7005 N.pl3   1  UNL1       -0.2990
     17 C           4.4668   -0.5442    0.1635 C.ar    1  UNL1        0.2177
     18 N           5.3148    0.3336    0.7329 N.ar    1  UNL1       -0.2228
     19 C           6.5789    0.4565    0.2549 C.ar    1  UNL1        0.0326
     20 C           6.9725   -0.3171   -0.8025 C.ar    1  UNL1       -0.0253
     21 C           6.1046   -1.2053   -1.3737 C.ar    1  UNL1        0.0326
     22 N           4.8518   -1.2968   -0.8664 N.ar    1  UNL1       -0.2228
     23 C           2.0965   -1.5001    0.2083 C.3     1  UNL1        0.0195
     24 C           0.8602   -0.6241    0.2832 C.3     1  UNL1       -0.0038
     25 H          -3.4668   -0.7553    1.0227 H       1  UNL1        0.0660
     26 H          -5.8298   -1.7541    0.0937 H       1  UNL1        0.0322
     27 H          -5.7856   -0.2848    1.2215 H       1  UNL1        0.0322
     28 H          -7.0486    0.3866   -0.8613 H       1  UNL1        0.0668
     29 H          -5.4873    1.9241    0.3180 H       1  UNL1        0.0493
     30 H          -5.1057    2.1154   -1.4765 H       1  UNL1        0.0493
     31 H          -1.3939    0.4054    0.8400 H       1  UNL1        0.0520
     32 H          -1.2956   -0.0770   -0.9558 H       1  UNL1        0.0520
     33 H          -0.2171    2.4445    0.1823 H       1  UNL1        0.1227
     34 H           1.9576    1.1308   -0.5702 H       1  UNL1        0.0467
     35 H           0.4531    0.5249    2.1357 H       1  UNL1        0.0335
     36 H           3.1284    1.0481    1.9639 H       1  UNL1        0.0468
     37 H           2.6005   -0.5302    2.7385 H       1  UNL1        0.0468
     38 H           7.2664    1.1675    0.7151 H       1  UNL1        0.0831
     39 H           7.9780   -0.2243   -1.1886 H       1  UNL1        0.0648
     40 H           6.4477   -1.7956   -2.2015 H       1  UNL1        0.0831
     41 H           1.9508   -2.3446    0.9119 H       1  UNL1        0.0468
     42 H           2.3197   -1.8240   -0.8171 H       1  UNL1        0.0468
     43 H          -0.1225   -1.0942    0.3063 H       1  UNL1        0.0335
@<TRIPOS>BOND
     1     1     2    3
     2     2     3    1
     3     3     4    1
     4     4     5    1
     5     5     6    1
     6     5     7    1
     7     7     8    1
     8     8     9   am
     9     9    10    2
    10     9    11    1
    11    11    12    1
    12    12    13    1
    13    13    14    1
    14    14    15    1
    15    15    16    1
    16    16    17    1
    17    17    18   ar
    18    18    19   ar
    19    19    20   ar
    20    20    21   ar
    21    21    22   ar
    22    16    23    1
    23    23    24    1
    24     8     3    1
    25    24    13    1
    26    24    14    1
    27    22    17   ar
    28     3    25    1
    29     4    26    1
    30     4    27    1
    31     5    28    1
    32     7    29    1
    33     7    30    1
    34    11    31    1
    35    11    32    1
    36    12    33    1
    37    13    34    1
    38    14    35    1
    39    15    36    1
    40    15    37    1
    41    19    38    1
    42    20    39    1
    43    21    40    1
    44    23    41    1
    45    23    42    1
    46    24    43    1
