
     RDKit          3D

 35 37  0  0  0  0  0  0  0  0999 V2000
    0.3497    0.3439    0.5730 C   0  0  1  0  0  0  0  0  0  0  0  0
    0.7211   -0.5713    1.6987 C   0  0  0  0  0  0  0  0  0  0  0  0
    0.3682   -2.2784    1.2009 S   0  0  0  0  0  0  0  0  0  0  0  0
    1.1272    0.0390   -0.6693 C   0  0  0  0  0  0  0  0  0  0  0  0
    2.5873    0.1799   -0.4834 C   0  0  0  0  0  0  0  0  0  0  0  0
    3.5038   -0.7634   -0.0940 C   0  0  0  0  0  0  0  0  0  0  0  0
    4.8423   -0.4549    0.0314 C   0  0  0  0  0  0  0  0  0  0  0  0
    5.3353    0.8079   -0.2247 C   0  0  0  0  0  0  0  0  0  0  0  0
    4.4469    1.7862   -0.6190 C   0  0  0  0  0  0  0  0  0  0  0  0
    3.1139    1.4530   -0.7369 C   0  0  0  0  0  0  0  0  0  0  0  0
   -1.1123    0.2111    0.3460 C   0  0  0  0  0  0  0  0  0  0  0  0
   -1.7008   -0.9645    0.0310 N   0  0  0  0  0  0  0  0  0  0  0  0
   -3.0065   -0.7827   -0.1118 C   0  0  0  0  0  0  0  0  0  0  0  0
   -3.2938    0.5460    0.1137 C   0  0  0  0  0  0  0  0  0  0  0  0
   -2.0992    1.1164    0.3912 N   0  0  0  0  0  0  0  0  0  0  0  0
   -4.5689    1.0869    0.0467 C   0  0  0  0  0  0  0  0  0  0  0  0
   -5.6052    0.2120   -0.2698 C   0  0  0  0  0  0  0  0  0  0  0  0
   -5.3173   -1.0830   -0.4885 N   0  0  0  0  0  4  0  0  0  0  0  0
   -4.0878   -1.5866   -0.4203 C   0  0  0  0  0  0  0  0  0  0  0  0
    0.5202    1.4142    0.8097 H   0  0  0  0  0  0  0  0  0  0  0  0
    1.7353   -0.4415    2.0794 H   0  0  0  0  0  0  0  0  0  0  0  0
    0.0371   -0.3505    2.5651 H   0  0  0  0  0  0  0  0  0  0  0  0
    1.4374   -3.1141    1.5885 H   0  0  0  0  0  0  0  0  0  0  0  0
    0.9678   -1.0418   -0.9569 H   0  0  0  0  0  0  0  0  0  0  0  0
    0.8216    0.6676   -1.5117 H   0  0  0  0  0  0  0  0  0  0  0  0
    3.0921   -1.7390    0.0979 H   0  0  0  0  0  0  0  0  0  0  0  0
    5.5093   -1.2549    0.3446 H   0  0  0  0  0  0  0  0  0  0  0  0
    6.3936    0.9989   -0.1117 H   0  0  0  0  0  0  0  0  0  0  0  0
    4.7883    2.7888   -0.8300 H   0  0  0  0  0  0  0  0  0  0  0  0
    2.4555    2.2706   -1.0535 H   0  0  0  0  0  0  0  0  0  0  0  0
   -1.8899    2.1040    0.6168 H   0  0  0  0  0  0  0  0  0  0  0  0
   -4.7477    2.1355    0.2312 H   0  0  0  0  0  0  0  0  0  0  0  0
   -6.6332    0.5982   -0.3338 H   0  0  0  0  0  0  0  0  0  0  0  0
   -6.1503   -1.6764   -0.7210 H   0  0  0  0  0  0  0  0  0  0  0  0
   -3.9407   -2.6571   -0.6135 H   0  0  0  0  0  0  0  0  0  0  0  0
  1  2  1  0
  2  3  1  0
  1  4  1  0
  4  5  1  0
  5  6  2  0
  6  7  1  0
  7  8  2  0
  8  9  1  0
  9 10  2  0
  1 11  1  0
 11 12  2  0
 12 13  1  0
 13 14  2  0
 14 15  1  0
 14 16  1  0
 16 17  2  0
 17 18  1  0
 18 19  2  0
 10  5  1  0
 15 11  1  0
 19 13  1  0
  1 20  1  1
  2 21  1  0
  2 22  1  0
  3 23  1  0
  4 24  1  0
  4 25  1  0
  6 26  1  0
  7 27  1  0
  8 28  1  0
  9 29  1  0
 10 30  1  0
 15 31  1  0
 16 32  1  0
 17 33  1  0
 18 34  1  0
 19 35  1  0
M  CHG  1  18   1
M  END
$$$$
