@<TRIPOS>MOLECULE
*****
 35 37 0 0 0
SMALL
GASTEIGER

@<TRIPOS>ATOM
      1 C           0.3497    0.3439    0.5730 C.3     1  UNL1        0.0298
      2 C           0.7211   -0.5713    1.6987 C.3     1  UNL1        0.0006
      3 S           0.3682   -2.2784    1.2009 S.3     1  UNL1       -0.1775
      4 C           1.1272    0.0390   -0.6693 C.3     1  UNL1       -0.0173
      5 C           2.5873    0.1799   -0.4834 C.ar    1  UNL1       -0.0467
      6 C           3.5038   -0.7634   -0.0940 C.ar    1  UNL1       -0.0586
      7 C           4.8423   -0.4549    0.0314 C.ar    1  UNL1       -0.0615
      8 C           5.3353    0.8079   -0.2247 C.ar    1  UNL1       -0.0617
      9 C           4.4469    1.7862   -0.6190 C.ar    1  UNL1       -0.0615
     10 C           3.1139    1.4530   -0.7369 C.ar    1  UNL1       -0.0586
     11 C          -1.1123    0.2111    0.3460 C.ar    1  UNL1        0.1126
     12 N          -1.7008   -0.9645    0.0310 N.ar    1  UNL1       -0.2262
     13 C          -3.0065   -0.7827   -0.1118 C.ar    1  UNL1        0.1523
     14 C          -3.2938    0.5460    0.1137 C.ar    1  UNL1        0.0777
     15 N          -2.0992    1.1164    0.3912 N.ar    1  UNL1       -0.3412
     16 C          -4.5689    1.0869    0.0467 C.ar    1  UNL1        0.0275
     17 C          -5.6052    0.2120   -0.2698 C.ar    1  UNL1        0.1716
     18 N          -5.3173   -1.0830   -0.4885 N.ar    1  UNL1       -0.2154
     19 C          -4.0878   -1.5866   -0.4203 C.ar    1  UNL1        0.1972
     20 H           0.5202    1.4142    0.8097 H       1  UNL1        0.0390
     21 H           1.7353   -0.4415    2.0794 H       1  UNL1        0.0381
     22 H           0.0371   -0.3505    2.5651 H       1  UNL1        0.0381
     23 H           1.4374   -3.1141    1.5885 H       1  UNL1        0.1017
     24 H           0.9678   -1.0418   -0.9569 H       1  UNL1        0.0320
     25 H           0.8216    0.6676   -1.5117 H       1  UNL1        0.0320
     26 H           3.0921   -1.7390    0.0979 H       1  UNL1        0.0620
     27 H           5.5093   -1.2549    0.3446 H       1  UNL1        0.0618
     28 H           6.3936    0.9989   -0.1117 H       1  UNL1        0.0618
     29 H           4.7883    2.7888   -0.8300 H       1  UNL1        0.0618
     30 H           2.4555    2.2706   -1.0535 H       1  UNL1        0.0620
     31 H          -1.8899    2.1040    0.6168 H       1  UNL1        0.1671
     32 H          -4.7477    2.1355    0.2312 H       1  UNL1        0.0698
     33 H          -6.6332    0.5982   -0.3338 H       1  UNL1        0.1376
     34 H          -6.1503   -1.6764   -0.7210 H       1  UNL1        0.4523
     35 H          -3.9407   -2.6571   -0.6135 H       1  UNL1        0.1399
@<TRIPOS>UNITY_ATOM_ATTR
18 1
charge 1
@<TRIPOS>BOND
     1     1     2    1
     2     2     3    1
     3     1     4    1
     4     4     5    1
     5     5     6   ar
     6     6     7   ar
     7     7     8   ar
     8     8     9   ar
     9     9    10   ar
    10     1    11    1
    11    11    12   ar
    12    12    13   ar
    13    13    14   ar
    14    14    15   ar
    15    14    16   ar
    16    16    17   ar
    17    17    18   ar
    18    18    19   ar
    19    10     5   ar
    20    15    11   ar
    21    19    13   ar
    22     1    20    1
    23     2    21    1
    24     2    22    1
    25     3    23    1
    26     4    24    1
    27     4    25    1
    28     6    26    1
    29     7    27    1
    30     8    28    1
    31     9    29    1
    32    10    30    1
    33    15    31    1
    34    16    32    1
    35    17    33    1
    36    18    34    1
    37    19    35    1
