@<TRIPOS>MOLECULE
*****
 35 37 0 0 0
SMALL
GASTEIGER

@<TRIPOS>ATOM
      1 O           4.1838    0.9841   -1.5910 O.3     1  UNL1       -0.4806
      2 C           2.8337    0.6326   -1.5159 C.2     1  UNL1        0.3047
      3 O           2.2260    1.6915   -1.9198 O.2     1  UNL1       -0.2510
      4 C           2.6502   -0.7504   -1.0258 C.3     1  UNL1        0.0456
      5 C           1.2735   -1.1946   -0.7246 C.3     1  UNL1       -0.0319
      6 C           0.5395   -0.6936    0.4361 C.3     1  UNL1        0.0167
      7 C           0.3000    0.7057    0.6831 C.ar    1  UNL1        0.0026
      8 C           1.3677    1.5594    0.9886 C.ar    1  UNL1       -0.0511
      9 C           1.3028    2.9253    1.1920 C.ar    1  UNL1       -0.0197
     10 C           0.0855    3.5561    1.0965 C.ar    1  UNL1        0.1204
     11 O          -0.0072    4.9082    1.2895 O.3     1  UNL1       -0.5066
     12 C          -1.0173    2.7834    0.8037 C.ar    1  UNL1        0.0224
     13 C          -0.8698    1.4250    0.6173 C.ar    1  UNL1        0.1356
     14 O          -2.0709    0.7920    0.3657 O.3     1  UNL1       -0.4552
     15 C          -2.1128   -0.5714    0.1893 C.ar    1  UNL1        0.1356
     16 C          -0.9239   -1.2458    0.2724 C.ar    1  UNL1        0.0026
     17 C          -0.9148   -2.6250    0.1170 C.ar    1  UNL1       -0.0511
     18 C          -2.0870   -3.3276   -0.1241 C.ar    1  UNL1       -0.0197
     19 C          -3.2985   -2.6331   -0.2116 C.ar    1  UNL1        0.1204
     20 O          -4.5348   -3.1884   -0.4462 O.3     1  UNL1       -0.5066
     21 C          -3.2713   -1.2647   -0.0503 C.ar    1  UNL1        0.0224
     22 H           4.5849    1.6745   -2.1915 H       1  UNL1        0.2951
     23 H           3.3037   -0.8005   -0.0893 H       1  UNL1        0.0378
     24 H           3.1748   -1.4538   -1.7425 H       1  UNL1        0.0378
     25 H           0.6313   -1.1963   -1.6764 H       1  UNL1        0.0279
     26 H           1.3804   -2.3275   -0.5710 H       1  UNL1        0.0279
     27 H           0.8643   -1.1908    1.3633 H       1  UNL1        0.0400
     28 H           2.4006    1.1995    1.1332 H       1  UNL1        0.0623
     29 H           2.1557    3.5402    1.4242 H       1  UNL1        0.0654
     30 H          -0.8744    5.2988    1.6101 H       1  UNL1        0.2921
     31 H          -1.9512    3.3099    0.7383 H       1  UNL1        0.0691
     32 H          -0.1250   -3.3741    0.1473 H       1  UNL1        0.0623
     33 H          -2.2429   -4.3892   -0.2656 H       1  UNL1        0.0654
     34 H          -4.8116   -4.1269   -0.2244 H       1  UNL1        0.2921
     35 H          -4.1452   -0.6325   -0.0979 H       1  UNL1        0.0691
@<TRIPOS>BOND
     1     1     2    1
     2     2     3    2
     3     2     4    1
     4     4     5    1
     5     5     6    1
     6     6     7    1
     7     7     8   ar
     8     8     9   ar
     9     9    10   ar
    10    10    11    1
    11    10    12   ar
    12    12    13   ar
    13    13    14    1
    14    14    15    1
    15    15    16   ar
    16    16    17   ar
    17    17    18   ar
    18    18    19   ar
    19    19    20    1
    20    19    21   ar
    21    16     6    1
    22    13     7   ar
    23    21    15   ar
    24     1    22    1
    25     4    23    1
    26     4    24    1
    27     5    25    1
    28     5    26    1
    29     6    27    1
    30     8    28    1
    31     9    29    1
    32    11    30    1
    33    12    31    1
    34    17    32    1
    35    18    33    1
    36    20    34    1
    37    21    35    1
