
     RDKit          3D

 35 37  0  0  0  0  0  0  0  0999 V2000
    4.1838    0.9841   -1.5910 O   0  0  0  0  0  0  0  0  0  0  0  0
    2.8337    0.6326   -1.5159 C   0  0  0  0  0  0  0  0  0  0  0  0
    2.2260    1.6915   -1.9198 O   0  0  0  0  0  0  0  0  0  0  0  0
    2.6502   -0.7504   -1.0258 C   0  0  0  0  0  0  0  0  0  0  0  0
    1.2735   -1.1946   -0.7246 C   0  0  0  0  0  0  0  0  0  0  0  0
    0.5395   -0.6936    0.4361 C   0  0  0  0  0  0  0  0  0  0  0  0
    0.3000    0.7057    0.6831 C   0  0  0  0  0  0  0  0  0  0  0  0
    1.3677    1.5594    0.9886 C   0  0  0  0  0  0  0  0  0  0  0  0
    1.3028    2.9253    1.1920 C   0  0  0  0  0  0  0  0  0  0  0  0
    0.0855    3.5561    1.0965 C   0  0  0  0  0  0  0  0  0  0  0  0
   -0.0072    4.9082    1.2895 O   0  0  0  0  0  0  0  0  0  0  0  0
   -1.0173    2.7834    0.8037 C   0  0  0  0  0  0  0  0  0  0  0  0
   -0.8698    1.4250    0.6173 C   0  0  0  0  0  0  0  0  0  0  0  0
   -2.0709    0.7920    0.3657 O   0  0  0  0  0  0  0  0  0  0  0  0
   -2.1128   -0.5714    0.1893 C   0  0  0  0  0  0  0  0  0  0  0  0
   -0.9239   -1.2458    0.2724 C   0  0  0  0  0  0  0  0  0  0  0  0
   -0.9148   -2.6250    0.1170 C   0  0  0  0  0  0  0  0  0  0  0  0
   -2.0870   -3.3276   -0.1241 C   0  0  0  0  0  0  0  0  0  0  0  0
   -3.2985   -2.6331   -0.2116 C   0  0  0  0  0  0  0  0  0  0  0  0
   -4.5348   -3.1884   -0.4462 O   0  0  0  0  0  0  0  0  0  0  0  0
   -3.2713   -1.2647   -0.0503 C   0  0  0  0  0  0  0  0  0  0  0  0
    4.5849    1.6745   -2.1915 H   0  0  0  0  0  0  0  0  0  0  0  0
    3.3037   -0.8005   -0.0893 H   0  0  0  0  0  0  0  0  0  0  0  0
    3.1748   -1.4538   -1.7425 H   0  0  0  0  0  0  0  0  0  0  0  0
    0.6313   -1.1963   -1.6764 H   0  0  0  0  0  0  0  0  0  0  0  0
    1.3804   -2.3275   -0.5710 H   0  0  0  0  0  0  0  0  0  0  0  0
    0.8643   -1.1908    1.3633 H   0  0  0  0  0  0  0  0  0  0  0  0
    2.4006    1.1995    1.1332 H   0  0  0  0  0  0  0  0  0  0  0  0
    2.1557    3.5402    1.4242 H   0  0  0  0  0  0  0  0  0  0  0  0
   -0.8744    5.2988    1.6101 H   0  0  0  0  0  0  0  0  0  0  0  0
   -1.9512    3.3099    0.7383 H   0  0  0  0  0  0  0  0  0  0  0  0
   -0.1250   -3.3741    0.1473 H   0  0  0  0  0  0  0  0  0  0  0  0
   -2.2429   -4.3892   -0.2656 H   0  0  0  0  0  0  0  0  0  0  0  0
   -4.8116   -4.1269   -0.2244 H   0  0  0  0  0  0  0  0  0  0  0  0
   -4.1452   -0.6325   -0.0979 H   0  0  0  0  0  0  0  0  0  0  0  0
  1  2  1  0
  2  3  2  0
  2  4  1  0
  4  5  1  0
  5  6  1  0
  6  7  1  0
  7  8  2  0
  8  9  1  0
  9 10  2  0
 10 11  1  0
 10 12  1  0
 12 13  2  0
 13 14  1  0
 14 15  1  0
 15 16  2  0
 16 17  1  0
 17 18  2  0
 18 19  1  0
 19 20  1  0
 19 21  2  0
 16  6  1  0
 13  7  1  0
 21 15  1  0
  1 22  1  0
  4 23  1  0
  4 24  1  0
  5 25  1  0
  5 26  1  0
  6 27  1  0
  8 28  1  0
  9 29  1  0
 11 30  1  0
 12 31  1  0
 17 32  1  0
 18 33  1  0
 20 34  1  0
 21 35  1  0
M  END
$$$$
