@<TRIPOS>MOLECULE
*****
 67 69 0 0 0
SMALL
GASTEIGER

@<TRIPOS>ATOM
      1 C          -2.3585    4.6630    1.1773 C.3     1  UNL1       -0.0613
      2 C          -3.0184    4.0434   -0.0412 C.3     1  UNL1       -0.0305
      3 C          -2.6390    2.6058   -0.0647 C.ar    1  UNL1       -0.0471
      4 C          -1.5179    2.1378   -0.7033 C.ar    1  UNL1       -0.0551
      5 C          -1.2109    0.7734   -0.6939 C.ar    1  UNL1       -0.0194
      6 C          -2.0130   -0.1535   -0.0491 C.ar    1  UNL1        0.1244
      7 O          -1.7716   -1.5017    0.0005 O.3     1  UNL1       -0.4887
      8 C          -0.6674   -2.1040   -0.5884 C.3     1  UNL1        0.1005
      9 C          -1.0960   -3.0340   -1.7214 C.3     1  UNL1       -0.0277
     10 C           0.0793   -2.8881    0.4796 C.3     1  UNL1        0.0182
     11 C           1.2894   -3.5688   -0.0583 C.3     1  UNL1        0.0929
     12 O           2.2694   -2.7906   -0.6166 O.3     1  UNL1       -0.4918
     13 C           3.0714   -1.8139   -0.1231 C.ar    1  UNL1        0.1208
     14 C           3.0712   -1.3735    1.1796 C.ar    1  UNL1       -0.0197
     15 C           3.9449   -0.3705    1.5252 C.ar    1  UNL1       -0.0549
     16 C           4.8280    0.2194    0.6225 C.ar    1  UNL1       -0.0437
     17 C           5.7493    1.2936    1.0347 C.3     1  UNL1       -0.0174
     18 C           5.2687    2.6471    0.5566 C.3     1  UNL1        0.0487
     19 C           6.1980    3.7068    0.9764 C.2     1  UNL1        0.3050
     20 O           7.2176    3.3895    1.6382 O.2     1  UNL1       -0.2510
     21 O           6.0125    5.0476    0.6814 O.3     1  UNL1       -0.4806
     22 C           4.8264   -0.2232   -0.6797 C.ar    1  UNL1       -0.0438
     23 C           5.7506    0.3715   -1.6988 C.3     1  UNL1       -0.0393
     24 C           3.9595   -1.2253   -1.0431 C.ar    1  UNL1       -0.0168
     25 C          -3.1563    0.3377    0.6000 C.ar    1  UNL1       -0.0012
     26 C          -4.0465   -0.5887    1.2943 C.3     1  UNL1        0.0010
     27 C          -4.9521   -1.3693    0.4010 C.ar    1  UNL1       -0.0429
     28 C          -4.6694   -2.6823    0.1073 C.ar    1  UNL1       -0.0583
     29 C          -5.4970   -3.4089   -0.7284 C.ar    1  UNL1       -0.0615
     30 C          -6.6205   -2.8438   -1.2866 C.ar    1  UNL1       -0.0617
     31 C          -6.8817   -1.5244   -0.9752 C.ar    1  UNL1       -0.0615
     32 C          -6.0710   -0.7931   -0.1499 C.ar    1  UNL1       -0.0583
     33 C          -3.4407    1.6878    0.5786 C.ar    1  UNL1       -0.0516
     34 H          -1.3371    4.2367    1.2805 H       1  UNL1        0.0233
     35 H          -2.9162    4.3450    2.0813 H       1  UNL1        0.0233
     36 H          -2.3495    5.7712    1.1108 H       1  UNL1        0.0233
     37 H          -4.1094    4.1079    0.1369 H       1  UNL1        0.0311
     38 H          -2.7091    4.5684   -0.9666 H       1  UNL1        0.0311
     39 H          -0.8926    2.8607   -1.2061 H       1  UNL1        0.0621
     40 H          -0.3246    0.5092   -1.2162 H       1  UNL1        0.0654
     41 H           0.0085   -1.3771   -1.0078 H       1  UNL1        0.0731
     42 H          -1.4311   -4.0143   -1.3506 H       1  UNL1        0.0265
     43 H          -1.9313   -2.4944   -2.2396 H       1  UNL1        0.0265
     44 H          -0.2683   -3.1037   -2.4436 H       1  UNL1        0.0265
     45 H          -0.6423   -3.7121    0.7603 H       1  UNL1        0.0334
     46 H           0.1891   -2.2588    1.3486 H       1  UNL1        0.0334
     47 H           0.9220   -4.2712   -0.8712 H       1  UNL1        0.0698
     48 H           1.6801   -4.2950    0.7174 H       1  UNL1        0.0698
     49 H           2.3986   -1.8323    1.8812 H       1  UNL1        0.0654
     50 H           3.9403   -0.0302    2.5437 H       1  UNL1        0.0621
     51 H           6.8109    1.1011    0.7595 H       1  UNL1        0.0318
     52 H           5.7786    1.3506    2.1632 H       1  UNL1        0.0318
     53 H           5.1797    2.6842   -0.5428 H       1  UNL1        0.0381
     54 H           4.2687    2.8049    1.0125 H       1  UNL1        0.0381
     55 H           6.7727    5.7161    0.6219 H       1  UNL1        0.2951
     56 H           6.1105   -0.4277   -2.4063 H       1  UNL1        0.0278
     57 H           6.6625    0.7840   -1.2412 H       1  UNL1        0.0278
     58 H           5.1972    1.0865   -2.3318 H       1  UNL1        0.0278
     59 H           3.9660   -1.5704   -2.0796 H       1  UNL1        0.0657
     60 H          -3.4577   -1.3119    1.8928 H       1  UNL1        0.0363
     61 H          -4.6592   -0.0156    2.0204 H       1  UNL1        0.0363
     62 H          -3.7875   -3.1988    0.5310 H       1  UNL1        0.0620
     63 H          -5.2651   -4.4455   -0.9546 H       1  UNL1        0.0618
     64 H          -7.2785   -3.4235   -1.9511 H       1  UNL1        0.0618
     65 H          -7.7894   -1.0775   -1.4297 H       1  UNL1        0.0618
     66 H          -6.3116    0.2562    0.0749 H       1  UNL1        0.0620
     67 H          -4.3331    2.0104    1.0946 H       1  UNL1        0.0624
@<TRIPOS>BOND
     1     1     2    1
     2     2     3    1
     3     3     4   ar
     4     4     5   ar
     5     5     6   ar
     6     6     7    1
     7     7     8    1
     8     8     9    1
     9     8    10    1
    10    10    11    1
    11    11    12    1
    12    12    13    1
    13    13    14   ar
    14    14    15   ar
    15    15    16   ar
    16    16    17    1
    17    17    18    1
    18    18    19    1
    19    19    20    2
    20    19    21    1
    21    16    22   ar
    22    22    23    1
    23    22    24   ar
    24     6    25   ar
    25    25    26    1
    26    26    27    1
    27    27    28   ar
    28    28    29   ar
    29    29    30   ar
    30    30    31   ar
    31    31    32   ar
    32    25    33   ar
    33    33     3   ar
    34    24    13   ar
    35    32    27   ar
    36     1    34    1
    37     1    35    1
    38     1    36    1
    39     2    37    1
    40     2    38    1
    41     4    39    1
    42     5    40    1
    43     8    41    1
    44     9    42    1
    45     9    43    1
    46     9    44    1
    47    10    45    1
    48    10    46    1
    49    11    47    1
    50    11    48    1
    51    14    49    1
    52    15    50    1
    53    17    51    1
    54    17    52    1
    55    18    53    1
    56    18    54    1
    57    21    55    1
    58    23    56    1
    59    23    57    1
    60    23    58    1
    61    24    59    1
    62    26    60    1
    63    26    61    1
    64    28    62    1
    65    29    63    1
    66    30    64    1
    67    31    65    1
    68    32    66    1
    69    33    67    1
