@<TRIPOS>MOLECULE
*****
 60 62 0 0 0
SMALL
GASTEIGER

@<TRIPOS>ATOM
      1 C          -4.3848    2.1525   -0.4227 C.3     1  UNL1        0.0171
      2 N          -3.9819    3.3747    0.2181 N.3     1  UNL1       -0.3265
      3 C          -3.3253    1.5649   -1.3356 C.3     1  UNL1        0.0396
      4 C          -2.0588    1.2394   -0.6933 C.2     1  UNL1        0.2173
      5 O          -1.4225    0.7431   -1.6925 O.2     1  UNL1       -0.2755
      6 N          -1.2828    1.2412    0.4967 N.am    1  UNL1       -0.2969
      7 C          -1.4650    1.6701    1.8930 C.3     1  UNL1        0.0151
      8 C          -1.3907    0.2869    2.5607 C.3     1  UNL1       -0.0354
      9 C          -0.1461   -0.2468    1.8228 C.3     1  UNL1       -0.0314
     10 C           0.0863    0.7683    0.7281 C.3     1  UNL1        0.0415
     11 C           0.7425    0.1719   -0.4551 C.3     1  UNL1        0.0305
     12 N           2.0878   -0.2483   -0.1741 N.am    1  UNL1       -0.3096
     13 C           2.8844   -1.1210    0.5740 C.2     1  UNL1        0.2442
     14 O           2.2454   -1.8963    1.3292 O.2     1  UNL1       -0.2702
     15 C           4.3345   -1.2257    0.5728 C.ar    1  UNL1        0.0385
     16 C           4.8621   -2.1810    1.4102 C.ar    1  UNL1       -0.0495
     17 C           6.2371   -2.3362    1.4605 C.ar    1  UNL1       -0.0592
     18 C           7.1028   -1.5740    0.7069 C.ar    1  UNL1       -0.0369
     19 C           6.5653   -0.6116   -0.1362 C.ar    1  UNL1        0.0886
     20 C           5.1936   -0.4776   -0.1675 C.ar    1  UNL1       -0.0248
     21 S           7.5999    0.3874   -1.1172 S.O2    1  UNL1       -0.0059
     22 C           7.8592   -0.4049   -2.6687 C.3     1  UNL1        0.0596
     23 O           8.9238    0.5559   -0.4270 O.2     1  UNL1       -0.1696
     24 O           7.0298    1.7515   -1.3490 O.2     1  UNL1       -0.1696
     25 C          -4.9448    1.1417    0.5438 C.3     1  UNL1       -0.0119
     26 C          -5.3542   -0.1137   -0.1823 C.ar    1  UNL1       -0.0445
     27 C          -6.6452   -0.1613   -0.6528 C.ar    1  UNL1       -0.0402
     28 C          -7.1888   -1.2414   -1.3424 C.ar    1  UNL1        0.0412
     29 CL         -8.8362   -1.2403   -1.9140 Cl      1  UNL1       -0.0835
     30 C          -6.3645   -2.3148   -1.5537 C.ar    1  UNL1       -0.0434
     31 C          -5.0629   -2.2994   -1.0945 C.ar    1  UNL1       -0.0601
     32 C          -4.5592   -1.2103   -0.4146 C.ar    1  UNL1       -0.0584
     33 H          -5.2795    2.4592   -1.0658 H       1  UNL1        0.0466
     34 H          -2.9524    3.4651    0.1593 H       1  UNL1        0.1185
     35 H          -4.2394    3.4422    1.2284 H       1  UNL1        0.1185
     36 H          -3.7668    0.6698   -1.8583 H       1  UNL1        0.0374
     37 H          -3.2082    2.3340   -2.1541 H       1  UNL1        0.0374
     38 H          -2.4182    2.1245    2.1095 H       1  UNL1        0.0465
     39 H          -0.5924    2.3115    2.2136 H       1  UNL1        0.0465
     40 H          -1.2374    0.3373    3.6346 H       1  UNL1        0.0281
     41 H          -2.2711   -0.2754    2.2127 H       1  UNL1        0.0281
     42 H          -0.3463   -1.2596    1.4700 H       1  UNL1        0.0284
     43 H           0.6584   -0.2164    2.5643 H       1  UNL1        0.0284
     44 H           0.7239    1.5949    1.1051 H       1  UNL1        0.0516
     45 H           0.8081    0.8739   -1.3116 H       1  UNL1        0.0480
     46 H           0.1450   -0.7034   -0.8621 H       1  UNL1        0.0480
     47 H           2.8062    0.3083   -0.7471 H       1  UNL1        0.1491
     48 H           4.2837   -2.8361    2.0470 H       1  UNL1        0.0625
     49 H           6.6605   -3.0729    2.1054 H       1  UNL1        0.0618
     50 H           8.1646   -1.7340    0.7824 H       1  UNL1        0.0636
     51 H           4.8139    0.2707   -0.8256 H       1  UNL1        0.0644
     52 H           6.9248   -0.5653   -3.2244 H       1  UNL1        0.0468
     53 H           8.6125    0.1810   -3.2565 H       1  UNL1        0.0468
     54 H           8.3185   -1.4055   -2.5023 H       1  UNL1        0.0468
     55 H          -4.1641    0.8189    1.2498 H       1  UNL1        0.0328
     56 H          -5.8150    1.5589    1.0948 H       1  UNL1        0.0328
     57 H          -7.3385    0.6770   -0.5049 H       1  UNL1        0.0635
     58 H          -6.6851   -3.1930   -2.0722 H       1  UNL1        0.0632
     59 H          -4.3968   -3.1561   -1.2602 H       1  UNL1        0.0618
     60 H          -3.5496   -1.1544   -0.0371 H       1  UNL1        0.0620
@<TRIPOS>BOND
     1     1     2    1
     2     1     3    1
     3     3     4    1
     4     4     5    2
     5     4     6   am
     6     6     7    1
     7     7     8    1
     8     8     9    1
     9     9    10    1
    10    10    11    1
    11    11    12    1
    12    12    13   am
    13    13    14    2
    14    13    15    1
    15    15    16   ar
    16    16    17   ar
    17    17    18   ar
    18    18    19   ar
    19    19    20   ar
    20    19    21    1
    21    21    22    1
    22    21    23    2
    23    21    24    2
    24     1    25    1
    25    25    26    1
    26    26    27   ar
    27    27    28   ar
    28    28    29    1
    29    28    30   ar
    30    30    31   ar
    31    31    32   ar
    32    10     6    1
    33    20    15   ar
    34    32    26   ar
    35     1    33    1
    36     2    34    1
    37     2    35    1
    38     3    36    1
    39     3    37    1
    40     7    38    1
    41     7    39    1
    42     8    40    1
    43     8    41    1
    44     9    42    1
    45     9    43    1
    46    10    44    1
    47    11    45    1
    48    11    46    1
    49    12    47    1
    50    16    48    1
    51    17    49    1
    52    18    50    1
    53    20    51    1
    54    22    52    1
    55    22    53    1
    56    22    54    1
    57    25    55    1
    58    25    56    1
    59    27    57    1
    60    30    58    1
    61    31    59    1
    62    32    60    1
