@<TRIPOS>MOLECULE
*****
 56 59 0 0 0
SMALL
GASTEIGER

@<TRIPOS>ATOM
      1 C          -3.9107   -0.2168   -1.9135 C.3     1  UNL1       -0.0124
      2 N          -3.2828   -1.3412   -1.3222 N.3     1  UNL1       -0.2986
      3 C          -2.5366   -2.0619   -2.3153 C.3     1  UNL1       -0.0124
      4 C          -2.5151   -1.0583   -0.1287 C.3     1  UNL1        0.0760
      5 C          -3.4219   -0.4899    0.8666 C.2     1  UNL1        0.1698
      6 O          -4.3399   -1.1813    1.2986 O.2     1  UNL1       -0.2945
      7 C          -3.3419    0.8936    1.4302 C.3     1  UNL1        0.1560
      8 C          -4.0037    1.0168    2.7160 C.2     1  UNL1        0.2282
      9 N          -5.3846    0.7397    2.8419 N.am    1  UNL1       -0.3284
     10 O          -3.3676    1.3688    3.7320 O.2     1  UNL1       -0.2748
     11 C          -1.9131    1.2410    1.4355 C.2     1  UNL1        0.1913
     12 O          -1.3667    1.6366    2.4184 O.2     1  UNL1       -0.2926
     13 C          -1.2023    1.0728    0.1643 C.3     1  UNL1        0.1875
     14 O          -1.7759    1.9937   -0.7446 O.3     1  UNL1       -0.3735
     15 C           0.2455    1.4962    0.2478 C.2     1  UNL1        0.1831
     16 O           0.6449    2.2669    1.0787 O.2     1  UNL1       -0.2931
     17 C           1.1168    0.8646   -0.7972 C.3     1  UNL1        0.0895
     18 C           2.3874    1.5770   -0.8568 C.2     1  UNL1        0.1776
     19 O           2.3985    2.8104   -1.0809 O.2     1  UNL1       -0.2912
     20 C           3.6493    0.8943   -0.6630 C.ar    1  UNL1        0.0654
     21 C           4.8293    1.3867   -1.2225 C.ar    1  UNL1        0.1277
     22 O           4.7729    2.5601   -1.9755 O.3     1  UNL1       -0.5061
     23 C           5.9985    0.6915   -1.0060 C.ar    1  UNL1       -0.0195
     24 C           5.9589   -0.4584   -0.2487 C.ar    1  UNL1       -0.0579
     25 C           4.8148   -0.9553    0.3066 C.ar    1  UNL1       -0.0550
     26 C           3.6288   -0.2661    0.0974 C.ar    1  UNL1       -0.0021
     27 C           2.3414   -0.7066    0.6504 C.3     1  UNL1        0.0928
     28 C           2.4194   -2.1083    1.2134 C.3     1  UNL1       -0.0316
     29 O           2.0418    0.1342    1.7448 O.3     1  UNL1       -0.3839
     30 C           1.2604   -0.5863   -0.4008 C.3     1  UNL1        0.0089
     31 C          -0.0454   -1.0877    0.1579 C.3     1  UNL1       -0.0381
     32 C          -1.2524   -0.3299   -0.3724 C.3     1  UNL1        0.0247
     33 H          -4.5500    0.3844   -1.2666 H       1  UNL1        0.0391
     34 H          -4.5953   -0.6210   -2.7192 H       1  UNL1        0.0391
     35 H          -3.1694    0.4031   -2.4995 H       1  UNL1        0.0391
     36 H          -3.2048   -2.6082   -3.0039 H       1  UNL1        0.0391
     37 H          -1.9612   -1.3465   -2.9594 H       1  UNL1        0.0391
     38 H          -1.7683   -2.7233   -1.8591 H       1  UNL1        0.0391
     39 H          -2.2359   -2.0858    0.2664 H       1  UNL1        0.0545
     40 H          -3.8569    1.5808    0.6902 H       1  UNL1        0.0553
     41 H          -6.0536    0.8800    2.0355 H       1  UNL1        0.1450
     42 H          -5.8199    0.3862    3.7226 H       1  UNL1        0.1450
     43 H          -2.1108    2.7895   -0.2688 H       1  UNL1        0.2113
     44 H           0.5925    0.8856   -1.7797 H       1  UNL1        0.0463
     45 H           4.9027    3.4707   -1.5527 H       1  UNL1        0.2922
     46 H           6.9048    1.0834   -1.4446 H       1  UNL1        0.0654
     47 H           6.8986   -0.9811   -0.0983 H       1  UNL1        0.0619
     48 H           4.7904   -1.8696    0.9075 H       1  UNL1        0.0621
     49 H           3.0009   -2.7782    0.5465 H       1  UNL1        0.0261
     50 H           1.3902   -2.5045    1.2814 H       1  UNL1        0.0261
     51 H           2.8604   -2.0466    2.2120 H       1  UNL1        0.0261
     52 H           2.8737    0.5420    2.1028 H       1  UNL1        0.2106
     53 H           1.5839   -1.1589   -1.2800 H       1  UNL1        0.0343
     54 H          -0.1633   -2.1415   -0.1687 H       1  UNL1        0.0274
     55 H          -0.0763   -1.0901    1.2666 H       1  UNL1        0.0274
     56 H          -1.0808   -0.2476   -1.4835 H       1  UNL1        0.0357
@<TRIPOS>BOND
     1     1     2    1
     2     2     3    1
     3     2     4    1
     4     4     5    1
     5     5     6    2
     6     5     7    1
     7     7     8    1
     8     8     9   am
     9     8    10    2
    10     7    11    1
    11    11    12    2
    12    11    13    1
    13    13    14    1
    14    13    15    1
    15    15    16    2
    16    15    17    1
    17    17    18    1
    18    18    19    2
    19    18    20    1
    20    20    21   ar
    21    21    22    1
    22    21    23   ar
    23    23    24   ar
    24    24    25   ar
    25    25    26   ar
    26    26    27    1
    27    27    28    1
    28    27    29    1
    29    27    30    1
    30    30    31    1
    31    31    32    1
    32    32     4    1
    33    32    13    1
    34    30    17    1
    35    26    20   ar
    36     1    33    1
    37     1    34    1
    38     1    35    1
    39     3    36    1
    40     3    37    1
    41     3    38    1
    42     4    39    1
    43     7    40    1
    44     9    41    1
    45     9    42    1
    46    14    43    1
    47    17    44    1
    48    22    45    1
    49    23    46    1
    50    24    47    1
    51    25    48    1
    52    28    49    1
    53    28    50    1
    54    28    51    1
    55    29    52    1
    56    30    53    1
    57    31    54    1
    58    31    55    1
    59    32    56    1
