
     RDKit          3D

 56 59  0  0  0  0  0  0  0  0999 V2000
   -3.9107   -0.2168   -1.9135 C   0  0  0  0  0  0  0  0  0  0  0  0
   -3.2828   -1.3412   -1.3222 N   0  0  0  0  0  0  0  0  0  0  0  0
   -2.5366   -2.0619   -2.3153 C   0  0  0  0  0  0  0  0  0  0  0  0
   -2.5151   -1.0583   -0.1287 C   0  0  2  0  0  0  0  0  0  0  0  0
   -3.4219   -0.4899    0.8666 C   0  0  0  0  0  0  0  0  0  0  0  0
   -4.3399   -1.1813    1.2986 O   0  0  0  0  0  0  0  0  0  0  0  0
   -3.3419    0.8936    1.4302 C   0  0  0  0  0  0  0  0  0  0  0  0
   -4.0037    1.0168    2.7160 C   0  0  0  0  0  0  0  0  0  0  0  0
   -5.3846    0.7397    2.8419 N   0  0  0  0  0  0  0  0  0  0  0  0
   -3.3676    1.3688    3.7320 O   0  0  0  0  0  0  0  0  0  0  0  0
   -1.9131    1.2410    1.4355 C   0  0  0  0  0  0  0  0  0  0  0  0
   -1.3667    1.6366    2.4184 O   0  0  0  0  0  0  0  0  0  0  0  0
   -1.2023    1.0728    0.1643 C   0  0  1  0  0  0  0  0  0  0  0  0
   -1.7759    1.9937   -0.7446 O   0  0  0  0  0  0  0  0  0  0  0  0
    0.2455    1.4962    0.2478 C   0  0  0  0  0  0  0  0  0  0  0  0
    0.6449    2.2669    1.0787 O   0  0  0  0  0  0  0  0  0  0  0  0
    1.1168    0.8646   -0.7972 C   0  0  0  0  0  0  0  0  0  0  0  0
    2.3874    1.5770   -0.8568 C   0  0  0  0  0  0  0  0  0  0  0  0
    2.3985    2.8104   -1.0809 O   0  0  0  0  0  0  0  0  0  0  0  0
    3.6493    0.8943   -0.6630 C   0  0  0  0  0  0  0  0  0  0  0  0
    4.8293    1.3867   -1.2225 C   0  0  0  0  0  0  0  0  0  0  0  0
    4.7729    2.5601   -1.9755 O   0  0  0  0  0  0  0  0  0  0  0  0
    5.9985    0.6915   -1.0060 C   0  0  0  0  0  0  0  0  0  0  0  0
    5.9589   -0.4584   -0.2487 C   0  0  0  0  0  0  0  0  0  0  0  0
    4.8148   -0.9553    0.3066 C   0  0  0  0  0  0  0  0  0  0  0  0
    3.6288   -0.2661    0.0974 C   0  0  0  0  0  0  0  0  0  0  0  0
    2.3414   -0.7066    0.6504 C   0  0  1  0  0  0  0  0  0  0  0  0
    2.4194   -2.1083    1.2134 C   0  0  0  0  0  0  0  0  0  0  0  0
    2.0418    0.1342    1.7448 O   0  0  0  0  0  0  0  0  0  0  0  0
    1.2604   -0.5863   -0.4008 C   0  0  1  0  0  0  0  0  0  0  0  0
   -0.0454   -1.0877    0.1579 C   0  0  0  0  0  0  0  0  0  0  0  0
   -1.2524   -0.3299   -0.3724 C   0  0  1  0  0  0  0  0  0  0  0  0
   -4.5500    0.3844   -1.2666 H   0  0  0  0  0  0  0  0  0  0  0  0
   -4.5953   -0.6210   -2.7192 H   0  0  0  0  0  0  0  0  0  0  0  0
   -3.1694    0.4031   -2.4995 H   0  0  0  0  0  0  0  0  0  0  0  0
   -3.2048   -2.6082   -3.0039 H   0  0  0  0  0  0  0  0  0  0  0  0
   -1.9612   -1.3465   -2.9594 H   0  0  0  0  0  0  0  0  0  0  0  0
   -1.7683   -2.7233   -1.8591 H   0  0  0  0  0  0  0  0  0  0  0  0
   -2.2359   -2.0858    0.2664 H   0  0  0  0  0  0  0  0  0  0  0  0
   -3.8569    1.5808    0.6902 H   0  0  0  0  0  0  0  0  0  0  0  0
   -6.0536    0.8800    2.0355 H   0  0  0  0  0  0  0  0  0  0  0  0
   -5.8199    0.3862    3.7226 H   0  0  0  0  0  0  0  0  0  0  0  0
   -2.1108    2.7895   -0.2688 H   0  0  0  0  0  0  0  0  0  0  0  0
    0.5925    0.8856   -1.7797 H   0  0  0  0  0  0  0  0  0  0  0  0
    4.9027    3.4707   -1.5527 H   0  0  0  0  0  0  0  0  0  0  0  0
    6.9048    1.0834   -1.4446 H   0  0  0  0  0  0  0  0  0  0  0  0
    6.8986   -0.9811   -0.0983 H   0  0  0  0  0  0  0  0  0  0  0  0
    4.7904   -1.8696    0.9075 H   0  0  0  0  0  0  0  0  0  0  0  0
    3.0009   -2.7782    0.5465 H   0  0  0  0  0  0  0  0  0  0  0  0
    1.3902   -2.5045    1.2814 H   0  0  0  0  0  0  0  0  0  0  0  0
    2.8604   -2.0466    2.2120 H   0  0  0  0  0  0  0  0  0  0  0  0
    2.8737    0.5420    2.1028 H   0  0  0  0  0  0  0  0  0  0  0  0
    1.5839   -1.1589   -1.2800 H   0  0  0  0  0  0  0  0  0  0  0  0
   -0.1633   -2.1415   -0.1687 H   0  0  0  0  0  0  0  0  0  0  0  0
   -0.0763   -1.0901    1.2666 H   0  0  0  0  0  0  0  0  0  0  0  0
   -1.0808   -0.2476   -1.4835 H   0  0  0  0  0  0  0  0  0  0  0  0
  1  2  1  0
  2  3  1  0
  2  4  1  0
  4  5  1  0
  5  6  2  0
  5  7  1  0
  7  8  1  0
  8  9  1  0
  8 10  2  0
  7 11  1  0
 11 12  2  0
 11 13  1  0
 13 14  1  6
 13 15  1  0
 15 16  2  0
 15 17  1  0
 17 18  1  0
 18 19  2  0
 18 20  1  0
 20 21  2  0
 21 22  1  0
 21 23  1  0
 23 24  2  0
 24 25  1  0
 25 26  2  0
 26 27  1  0
 27 28  1  0
 27 29  1  1
 27 30  1  0
 30 31  1  0
 31 32  1  0
 32  4  1  0
 32 13  1  0
 30 17  1  0
 26 20  1  0
  1 33  1  0
  1 34  1  0
  1 35  1  0
  3 36  1  0
  3 37  1  0
  3 38  1  0
  4 39  1  1
  7 40  1  0
  9 41  1  0
  9 42  1  0
 14 43  1  0
 17 44  1  0
 22 45  1  0
 23 46  1  0
 24 47  1  0
 25 48  1  0
 28 49  1  0
 28 50  1  0
 28 51  1  0
 29 52  1  0
 30 53  1  6
 31 54  1  0
 31 55  1  0
 32 56  1  6
M  END
$$$$
