@<TRIPOS>MOLECULE
*****
 49 49 0 0 0
SMALL
GASTEIGER

@<TRIPOS>ATOM
      1 CA          2.8749    0.1679   -1.2790 C.3     1  UNL1        0.0815
      2 C           4.0069    0.6524   -0.4292 C.3     1  UNL1       -0.0278
      3 C           4.7063   -0.5451    0.1771 C.3     1  UNL1       -0.0512
      4 C           5.8604   -0.0583    1.0356 C.3     1  UNL1       -0.0558
      5 C           6.8530    0.7262    0.2118 C.3     1  UNL1       -0.0653
      6 N           1.9350   -0.5748   -0.5018 N.am    1  UNL1       -0.2718
      7 C           0.5701   -0.1804   -0.5762 C.2     1  UNL1        0.4011
      8 O           0.2738    0.7996   -1.3230 O.2     1  UNL1       -0.2265
      9 O          -0.4318   -0.8274    0.1340 O.3     1  UNL1       -0.4465
     10 C          -1.7979   -0.3539   -0.0049 C.3     1  UNL1        0.1109
     11 C          -2.1984    0.0792    1.3487 C.3     1  UNL1        0.0099
     12 C          -3.5380    0.6164    1.5475 C.ar    1  UNL1       -0.0439
     13 C          -4.7233    0.0213    1.9208 C.ar    1  UNL1       -0.0585
     14 C          -5.8914    0.7426    2.0468 C.ar    1  UNL1       -0.0615
     15 C          -5.9327    2.0876    1.8074 C.ar    1  UNL1       -0.0617
     16 C          -4.7839    2.7105    1.4371 C.ar    1  UNL1       -0.0615
     17 C          -3.6114    1.9957    1.3089 C.ar    1  UNL1       -0.0585
     18 C          -2.5564   -1.4373   -0.6650 C.3     1  UNL1       -0.0091
     19 C          -4.0107   -1.1645   -0.9316 C.3     1  UNL1       -0.0593
     20 C          -1.8804   -1.6767   -2.0237 C.3     1  UNL1       -0.0593
     21 C           3.4814   -0.7761   -2.2871 C.2     1  UNL1        0.1405
     22 O           3.1836   -1.9390   -2.3709 O.2     1  UNL1       -0.2991
     23 HA          2.4031    0.9727   -1.8776 H       1  UNL1        0.0575
     24 H           3.6233    1.3434    0.3340 H       1  UNL1        0.0287
     25 H           4.7360    1.2045   -1.0932 H       1  UNL1        0.0287
     26 H           5.0653   -1.2512   -0.5863 H       1  UNL1        0.0266
     27 H           3.9722   -1.0881    0.8027 H       1  UNL1        0.0266
     28 H           6.3887   -0.9622    1.3997 H       1  UNL1        0.0263
     29 H           5.5199    0.5373    1.8834 H       1  UNL1        0.0263
     30 H           7.7068    0.9733    0.8923 H       1  UNL1        0.0230
     31 H           6.4563    1.7085   -0.1171 H       1  UNL1        0.0230
     32 H           7.2411    0.1392   -0.6337 H       1  UNL1        0.0230
     33 H           2.0978   -1.3824    0.1256 H       1  UNL1        0.1527
     34 H          -1.7639    0.5070   -0.7143 H       1  UNL1        0.0740
     35 H          -2.0450   -0.7821    2.0719 H       1  UNL1        0.0349
     36 H          -1.3967    0.8036    1.6889 H       1  UNL1        0.0349
     37 H          -4.5914   -1.0558    2.0906 H       1  UNL1        0.0620
     38 H          -6.7366    0.1123    2.3511 H       1  UNL1        0.0618
     39 H          -6.9123    2.5224    1.9445 H       1  UNL1        0.0618
     40 H          -4.8440    3.7772    1.2532 H       1  UNL1        0.0618
     41 H          -2.7585    2.6192    1.0042 H       1  UNL1        0.0620
     42 H          -2.4830   -2.4233   -0.1568 H       1  UNL1        0.0331
     43 H          -4.2889   -0.1016   -0.9118 H       1  UNL1        0.0233
     44 H          -4.6826   -1.7828   -0.3017 H       1  UNL1        0.0233
     45 H          -4.2590   -1.5012   -1.9873 H       1  UNL1        0.0233
     46 H          -0.7778   -1.8043   -1.8985 H       1  UNL1        0.0233
     47 H          -2.2477   -2.5881   -2.5179 H       1  UNL1        0.0233
     48 H          -2.0282   -0.8296   -2.7140 H       1  UNL1        0.0233
     49 H           4.2159   -0.2541   -2.9153 H       1  UNL1        0.1046
@<TRIPOS>BOND
     1     1     2    1
     2     2     3    1
     3     3     4    1
     4     4     5    1
     5     1     6    1
     6     6     7   am
     7     7     8    2
     8     7     9    1
     9     9    10    1
    10    10    11    1
    11    11    12    1
    12    12    13   ar
    13    13    14   ar
    14    14    15   ar
    15    15    16   ar
    16    16    17   ar
    17    10    18    1
    18    18    19    1
    19    18    20    1
    20     1    21    1
    21    21    22    2
    22    17    12   ar
    23     1    23    1
    24     2    24    1
    25     2    25    1
    26     3    26    1
    27     3    27    1
    28     4    28    1
    29     4    29    1
    30     5    30    1
    31     5    31    1
    32     5    32    1
    33     6    33    1
    34    10    34    1
    35    11    35    1
    36    11    36    1
    37    13    37    1
    38    14    38    1
    39    15    39    1
    40    16    40    1
    41    17    41    1
    42    18    42    1
    43    19    43    1
    44    19    44    1
    45    19    45    1
    46    20    46    1
    47    20    47    1
    48    20    48    1
    49    21    49    1
