@<TRIPOS>MOLECULE
*****
 54 55 0 0 0
SMALL
GASTEIGER

@<TRIPOS>ATOM
      1 C           0.6326    2.7092    3.5070 C.3     1  UNL1       -0.0552
      2 C           0.2972    2.6483    2.0436 C.3     1  UNL1        0.0421
      3 C           0.5198    1.2654    1.4937 C.2     1  UNL1        0.3077
      4 O           0.9187    0.2684    2.0904 O.2     1  UNL1       -0.2508
      5 O           0.2257    1.1778    0.1770 O.3     1  UNL1       -0.4526
      6 C           0.3157    0.0831   -0.7013 C.3     1  UNL1        0.1460
      7 C           1.6430   -0.4683   -0.9879 C.3     1  UNL1        0.0170
      8 C           2.5223   -0.9953    0.0340 C.ar    1  UNL1       -0.0432
      9 C           3.5466   -0.1800    0.5596 C.ar    1  UNL1       -0.0584
     10 C           4.4434   -0.5418    1.5174 C.ar    1  UNL1       -0.0615
     11 C           4.3585   -1.8148    2.0305 C.ar    1  UNL1       -0.0617
     12 C           3.3830   -2.6831    1.5722 C.ar    1  UNL1       -0.0615
     13 C           2.4913   -2.2585    0.5903 C.ar    1  UNL1       -0.0584
     14 C          -0.6959   -0.9095   -0.1823 C.3     1  UNL1        0.0135
     15 C          -0.8248   -2.1960   -0.8954 C.3     1  UNL1       -0.0573
     16 C          -2.0922   -0.2692   -0.1649 C.3     1  UNL1        0.0049
     17 N          -3.0770   -1.2186    0.3328 N.3     1  UNL1       -0.3080
     18 C          -2.8775   -1.5108    1.7565 C.3     1  UNL1       -0.0130
     19 C          -4.4216   -0.7595    0.1441 C.3     1  UNL1       -0.0130
     20 C          -0.1320    0.7047   -2.0201 C.ar    1  UNL1       -0.0036
     21 C          -0.8345    0.1058   -3.0237 C.ar    1  UNL1       -0.0548
     22 C          -1.1767    0.7804   -4.1694 C.ar    1  UNL1       -0.0614
     23 C          -0.8254    2.0979   -4.3602 C.ar    1  UNL1       -0.0617
     24 C          -0.1151    2.7704   -3.3917 C.ar    1  UNL1       -0.0614
     25 C           0.1953    2.0477   -2.2764 C.ar    1  UNL1       -0.0548
     26 H           0.6435    1.7139    3.9649 H       1  UNL1        0.0235
     27 H           1.6409    3.1927    3.5940 H       1  UNL1        0.0235
     28 H          -0.1132    3.3622    4.0171 H       1  UNL1        0.0235
     29 H          -0.7786    2.8839    1.8794 H       1  UNL1        0.0375
     30 H           0.8841    3.3767    1.4474 H       1  UNL1        0.0375
     31 H           1.6064   -1.2705   -1.7986 H       1  UNL1        0.0355
     32 H           2.1824    0.3607   -1.5811 H       1  UNL1        0.0355
     33 H           3.6225    0.8402    0.1560 H       1  UNL1        0.0620
     34 H           5.1952    0.1658    1.8510 H       1  UNL1        0.0618
     35 H           5.0927   -2.0643    2.7916 H       1  UNL1        0.0618
     36 H           3.3682   -3.6509    2.0059 H       1  UNL1        0.0618
     37 H           1.7318   -2.9350    0.2330 H       1  UNL1        0.0620
     38 H          -0.4668   -1.0790    0.8860 H       1  UNL1        0.0353
     39 H          -0.0041   -2.4661   -1.5957 H       1  UNL1        0.0234
     40 H          -1.8455   -2.4165   -1.3020 H       1  UNL1        0.0234
     41 H          -0.7205   -3.0273   -0.1163 H       1  UNL1        0.0234
     42 H          -2.1330    0.6000    0.5353 H       1  UNL1        0.0430
     43 H          -2.4340    0.0294   -1.1593 H       1  UNL1        0.0430
     44 H          -2.8689   -0.5900    2.3720 H       1  UNL1        0.0391
     45 H          -1.9357   -2.0882    1.9167 H       1  UNL1        0.0391
     46 H          -3.7329   -2.1341    2.0644 H       1  UNL1        0.0391
     47 H          -4.4112    0.3481    0.0439 H       1  UNL1        0.0391
     48 H          -4.8365   -1.2461   -0.7581 H       1  UNL1        0.0391
     49 H          -5.0776   -1.0677    0.9922 H       1  UNL1        0.0391
     50 H          -1.1257   -0.8957   -2.9319 H       1  UNL1        0.0622
     51 H          -1.7368    0.2485   -4.9323 H       1  UNL1        0.0618
     52 H          -1.1138    2.5899   -5.2780 H       1  UNL1        0.0618
     53 H           0.1855    3.7947   -3.4828 H       1  UNL1        0.0618
     54 H           0.7614    2.5714   -1.4908 H       1  UNL1        0.0622
@<TRIPOS>BOND
     1     1     2    1
     2     2     3    1
     3     3     4    2
     4     3     5    1
     5     6     5    1
     6     6     7    1
     7     7     8    1
     8     8     9   ar
     9     9    10   ar
    10    10    11   ar
    11    11    12   ar
    12    12    13   ar
    13     6    14    1
    14    14    15    1
    15    14    16    1
    16    16    17    1
    17    17    18    1
    18    17    19    1
    19     6    20    1
    20    20    21   ar
    21    21    22   ar
    22    22    23   ar
    23    23    24   ar
    24    24    25   ar
    25    13     8   ar
    26    25    20   ar
    27     1    26    1
    28     1    27    1
    29     1    28    1
    30     2    29    1
    31     2    30    1
    32     7    31    1
    33     7    32    1
    34     9    33    1
    35    10    34    1
    36    11    35    1
    37    12    36    1
    38    13    37    1
    39    14    38    1
    40    15    39    1
    41    15    40    1
    42    15    41    1
    43    16    42    1
    44    16    43    1
    45    18    44    1
    46    18    45    1
    47    18    46    1
    48    19    47    1
    49    19    48    1
    50    19    49    1
    51    21    50    1
    52    22    51    1
    53    23    52    1
    54    24    53    1
    55    25    54    1
