@<TRIPOS>MOLECULE
*****
 55 57 0 0 0
SMALL
GASTEIGER

@<TRIPOS>ATOM
      1 C           0.9377    0.4530    1.6982 C.3     1  UNL1        0.0432
      2 C           1.2384   -0.1911    3.0580 C.3     1  UNL1       -0.0474
      3 C           2.0329    0.1871    0.7843 C.1     1  UNL1       -0.0890
      4 C           2.9223   -0.0257    0.0162 C.1     1  UNL1       -0.0605
      5 C           3.9868   -0.2831   -0.9332 C.ar    1  UNL1        0.0855
      6 C           3.7882    0.0551   -2.2730 C.ar    1  UNL1        0.1370
      7 N           2.5410    0.6420   -2.6519 N.pl3   1  UNL1       -0.3420
      8 N           4.7743   -0.1877   -3.1298 N.ar    1  UNL1       -0.1989
      9 C           5.9345   -0.7457   -2.7144 C.ar    1  UNL1        0.2145
     10 N           6.9664   -0.9854   -3.6861 N.pl3   1  UNL1       -0.3274
     11 N           6.1447   -1.0800   -1.4204 N.ar    1  UNL1       -0.2186
     12 C           5.1750   -0.8570   -0.4950 C.ar    1  UNL1        0.0605
     13 C           5.4015   -1.2227    0.9279 C.3     1  UNL1       -0.0209
     14 C          -0.3492   -0.0434    1.1443 C.ar    1  UNL1       -0.0287
     15 C          -0.4307   -1.3834    0.8241 C.ar    1  UNL1       -0.0156
     16 C          -1.6093   -1.8817    0.3073 C.ar    1  UNL1        0.1210
     17 O          -1.8936   -3.1859   -0.0753 O.3     1  UNL1       -0.4951
     18 C          -0.8597   -4.1404    0.0750 C.3     1  UNL1        0.0788
     19 C          -2.6915   -1.0466    0.1144 C.ar    1  UNL1       -0.0122
     20 C          -2.6297    0.3033    0.4299 C.ar    1  UNL1       -0.0136
     21 C          -1.4332    0.8079    0.9543 C.ar    1  UNL1       -0.0494
     22 C          -3.6525    1.2930    0.2912 C.ar    1  UNL1       -0.0119
     23 C          -4.5377    1.5405    1.3241 C.ar    1  UNL1       -0.0425
     24 C          -4.4391    0.7752    2.6057 C.3     1  UNL1       -0.0391
     25 C          -5.5063    2.5076    1.1363 C.ar    1  UNL1       -0.0582
     26 C          -5.6446    3.2454   -0.0256 C.ar    1  UNL1       -0.0612
     27 C          -4.7387    2.9636   -1.0289 C.ar    1  UNL1       -0.0582
     28 C          -3.7430    2.0080   -0.9088 C.ar    1  UNL1       -0.0425
     29 C          -2.7677    1.7048   -1.9892 C.3     1  UNL1       -0.0391
     30 H           0.8576    1.5513    1.9099 H       1  UNL1        0.0479
     31 H           2.2424    0.1534    3.3522 H       1  UNL1        0.0245
     32 H           1.3042   -1.2902    2.9640 H       1  UNL1        0.0245
     33 H           0.4536    0.0379    3.7834 H       1  UNL1        0.0245
     34 H           2.0053    1.4042   -2.1828 H       1  UNL1        0.1437
     35 H           1.9110    0.4403   -3.4603 H       1  UNL1        0.1437
     36 H           7.3312   -1.8125   -4.2022 H       1  UNL1        0.1452
     37 H           7.3807   -0.0411   -3.8343 H       1  UNL1        0.1452
     38 H           6.4756   -0.9738    1.1265 H       1  UNL1        0.0293
     39 H           4.7289   -0.6530    1.5955 H       1  UNL1        0.0293
     40 H           5.3177   -2.3191    1.0351 H       1  UNL1        0.0293
     41 H           0.3552   -2.1175    0.9365 H       1  UNL1        0.0657
     42 H          -0.0834   -4.0816   -0.7131 H       1  UNL1        0.0660
     43 H          -1.3196   -5.1657    0.1174 H       1  UNL1        0.0660
     44 H          -0.3993   -4.0078    1.0750 H       1  UNL1        0.0660
     45 H          -3.6625   -1.3201   -0.2815 H       1  UNL1        0.0660
     46 H          -1.2679    1.8335    1.2349 H       1  UNL1        0.0627
     47 H          -3.4214    0.5622    2.9266 H       1  UNL1        0.0278
     48 H          -4.8907    1.4344    3.3804 H       1  UNL1        0.0278
     49 H          -5.1147   -0.1127    2.5957 H       1  UNL1        0.0278
     50 H          -6.2278    2.7319    1.9356 H       1  UNL1        0.0620
     51 H          -6.4191    4.0001   -0.1408 H       1  UNL1        0.0618
     52 H          -4.8161    3.5227   -1.9560 H       1  UNL1        0.0620
     53 H          -3.0184    2.3949   -2.8291 H       1  UNL1        0.0278
     54 H          -2.9190    0.6847   -2.4213 H       1  UNL1        0.0278
     55 H          -1.7207    1.9169   -1.7354 H       1  UNL1        0.0278
@<TRIPOS>BOND
     1     1     2    1
     2     1     3    1
     3     3     4    3
     4     4     5    1
     5     5     6   ar
     6     6     7    1
     7     6     8   ar
     8     8     9   ar
     9     9    10    1
    10     9    11   ar
    11    11    12   ar
    12    12    13    1
    13     1    14    1
    14    14    15   ar
    15    15    16   ar
    16    16    17    1
    17    17    18    1
    18    16    19   ar
    19    19    20   ar
    20    20    21   ar
    21    20    22    1
    22    22    23   ar
    23    23    24    1
    24    23    25   ar
    25    25    26   ar
    26    26    27   ar
    27    27    28   ar
    28    28    29    1
    29    12     5   ar
    30    21    14   ar
    31    28    22   ar
    32     1    30    1
    33     2    31    1
    34     2    32    1
    35     2    33    1
    36     7    34    1
    37     7    35    1
    38    10    36    1
    39    10    37    1
    40    13    38    1
    41    13    39    1
    42    13    40    1
    43    15    41    1
    44    18    42    1
    45    18    43    1
    46    18    44    1
    47    19    45    1
    48    21    46    1
    49    24    47    1
    50    24    48    1
    51    24    49    1
    52    25    50    1
    53    26    51    1
    54    27    52    1
    55    29    53    1
    56    29    54    1
    57    29    55    1
