
     RDKit          3D

 55 57  0  0  0  0  0  0  0  0999 V2000
    0.9377    0.4530    1.6982 C   0  0  1  0  0  0  0  0  0  0  0  0
    1.2384   -0.1911    3.0580 C   0  0  0  0  0  0  0  0  0  0  0  0
    2.0329    0.1871    0.7843 C   0  0  0  0  0  0  0  0  0  0  0  0
    2.9223   -0.0257    0.0162 C   0  0  0  0  0  0  0  0  0  0  0  0
    3.9868   -0.2831   -0.9332 C   0  0  0  0  0  0  0  0  0  0  0  0
    3.7882    0.0551   -2.2730 C   0  0  0  0  0  0  0  0  0  0  0  0
    2.5410    0.6420   -2.6519 N   0  0  0  0  0  0  0  0  0  0  0  0
    4.7743   -0.1877   -3.1298 N   0  0  0  0  0  0  0  0  0  0  0  0
    5.9345   -0.7457   -2.7144 C   0  0  0  0  0  0  0  0  0  0  0  0
    6.9664   -0.9854   -3.6861 N   0  0  0  0  0  0  0  0  0  0  0  0
    6.1447   -1.0800   -1.4204 N   0  0  0  0  0  0  0  0  0  0  0  0
    5.1750   -0.8570   -0.4950 C   0  0  0  0  0  0  0  0  0  0  0  0
    5.4015   -1.2227    0.9279 C   0  0  0  0  0  0  0  0  0  0  0  0
   -0.3492   -0.0434    1.1443 C   0  0  0  0  0  0  0  0  0  0  0  0
   -0.4307   -1.3834    0.8241 C   0  0  0  0  0  0  0  0  0  0  0  0
   -1.6093   -1.8817    0.3073 C   0  0  0  0  0  0  0  0  0  0  0  0
   -1.8936   -3.1859   -0.0753 O   0  0  0  0  0  0  0  0  0  0  0  0
   -0.8597   -4.1404    0.0750 C   0  0  0  0  0  0  0  0  0  0  0  0
   -2.6915   -1.0466    0.1144 C   0  0  0  0  0  0  0  0  0  0  0  0
   -2.6297    0.3033    0.4299 C   0  0  0  0  0  0  0  0  0  0  0  0
   -1.4332    0.8079    0.9543 C   0  0  0  0  0  0  0  0  0  0  0  0
   -3.6525    1.2930    0.2912 C   0  0  0  0  0  0  0  0  0  0  0  0
   -4.5377    1.5405    1.3241 C   0  0  0  0  0  0  0  0  0  0  0  0
   -4.4391    0.7752    2.6057 C   0  0  0  0  0  0  0  0  0  0  0  0
   -5.5063    2.5076    1.1363 C   0  0  0  0  0  0  0  0  0  0  0  0
   -5.6446    3.2454   -0.0256 C   0  0  0  0  0  0  0  0  0  0  0  0
   -4.7387    2.9636   -1.0289 C   0  0  0  0  0  0  0  0  0  0  0  0
   -3.7430    2.0080   -0.9088 C   0  0  0  0  0  0  0  0  0  0  0  0
   -2.7677    1.7048   -1.9892 C   0  0  0  0  0  0  0  0  0  0  0  0
    0.8576    1.5513    1.9099 H   0  0  0  0  0  0  0  0  0  0  0  0
    2.2424    0.1534    3.3522 H   0  0  0  0  0  0  0  0  0  0  0  0
    1.3042   -1.2902    2.9640 H   0  0  0  0  0  0  0  0  0  0  0  0
    0.4536    0.0379    3.7834 H   0  0  0  0  0  0  0  0  0  0  0  0
    2.0053    1.4042   -2.1828 H   0  0  0  0  0  0  0  0  0  0  0  0
    1.9110    0.4403   -3.4603 H   0  0  0  0  0  0  0  0  0  0  0  0
    7.3312   -1.8125   -4.2022 H   0  0  0  0  0  0  0  0  0  0  0  0
    7.3807   -0.0411   -3.8343 H   0  0  0  0  0  0  0  0  0  0  0  0
    6.4756   -0.9738    1.1265 H   0  0  0  0  0  0  0  0  0  0  0  0
    4.7289   -0.6530    1.5955 H   0  0  0  0  0  0  0  0  0  0  0  0
    5.3177   -2.3191    1.0351 H   0  0  0  0  0  0  0  0  0  0  0  0
    0.3552   -2.1175    0.9365 H   0  0  0  0  0  0  0  0  0  0  0  0
   -0.0834   -4.0816   -0.7131 H   0  0  0  0  0  0  0  0  0  0  0  0
   -1.3196   -5.1657    0.1174 H   0  0  0  0  0  0  0  0  0  0  0  0
   -0.3993   -4.0078    1.0750 H   0  0  0  0  0  0  0  0  0  0  0  0
   -3.6625   -1.3201   -0.2815 H   0  0  0  0  0  0  0  0  0  0  0  0
   -1.2679    1.8335    1.2349 H   0  0  0  0  0  0  0  0  0  0  0  0
   -3.4214    0.5622    2.9266 H   0  0  0  0  0  0  0  0  0  0  0  0
   -4.8907    1.4344    3.3804 H   0  0  0  0  0  0  0  0  0  0  0  0
   -5.1147   -0.1127    2.5957 H   0  0  0  0  0  0  0  0  0  0  0  0
   -6.2278    2.7319    1.9356 H   0  0  0  0  0  0  0  0  0  0  0  0
   -6.4191    4.0001   -0.1408 H   0  0  0  0  0  0  0  0  0  0  0  0
   -4.8161    3.5227   -1.9560 H   0  0  0  0  0  0  0  0  0  0  0  0
   -3.0184    2.3949   -2.8291 H   0  0  0  0  0  0  0  0  0  0  0  0
   -2.9190    0.6847   -2.4213 H   0  0  0  0  0  0  0  0  0  0  0  0
   -1.7207    1.9169   -1.7354 H   0  0  0  0  0  0  0  0  0  0  0  0
  1  2  1  0
  1  3  1  0
  3  4  3  0
  4  5  1  0
  5  6  2  0
  6  7  1  0
  6  8  1  0
  8  9  2  0
  9 10  1  0
  9 11  1  0
 11 12  2  0
 12 13  1  0
  1 14  1  0
 14 15  2  0
 15 16  1  0
 16 17  1  0
 17 18  1  0
 16 19  2  0
 19 20  1  0
 20 21  2  0
 20 22  1  0
 22 23  2  0
 23 24  1  0
 23 25  1  0
 25 26  2  0
 26 27  1  0
 27 28  2  0
 28 29  1  0
 12  5  1  0
 21 14  1  0
 28 22  1  0
  1 30  1  1
  2 31  1  0
  2 32  1  0
  2 33  1  0
  7 34  1  0
  7 35  1  0
 10 36  1  0
 10 37  1  0
 13 38  1  0
 13 39  1  0
 13 40  1  0
 15 41  1  0
 18 42  1  0
 18 43  1  0
 18 44  1  0
 19 45  1  0
 21 46  1  0
 24 47  1  0
 24 48  1  0
 24 49  1  0
 25 50  1  0
 26 51  1  0
 27 52  1  0
 29 53  1  0
 29 54  1  0
 29 55  1  0
M  END
$$$$
