@<TRIPOS>MOLECULE
*****
 35 36 0 0 0
SMALL
GASTEIGER

@<TRIPOS>ATOM
      1 C          -2.6468    3.0051    0.5700 C.3     1  UNL1        0.0788
      2 O          -3.4796    1.9170    0.2359 O.3     1  UNL1       -0.4951
      3 C          -2.9372    0.6709    0.1006 C.ar    1  UNL1        0.1207
      4 C          -1.6213    0.2870    0.2517 C.ar    1  UNL1       -0.0120
      5 C          -1.2447   -1.0260    0.0758 C.ar    1  UNL1       -0.0112
      6 C          -2.1916   -1.9838   -0.2573 C.ar    1  UNL1       -0.0174
      7 C          -1.8253   -3.3028   -0.4306 C.ar    1  UNL1       -0.0540
      8 C          -0.5133   -3.6666   -0.2710 C.ar    1  UNL1       -0.0609
      9 C           0.3864   -2.6765    0.0598 C.ar    1  UNL1       -0.0579
     10 C           0.0960   -1.3189    0.2525 C.ar    1  UNL1       -0.0381
     11 C           1.1511   -0.3607    0.5929 C.3     1  UNL1       -0.0115
     12 C           1.5667    0.4338   -0.6073 C.3     1  UNL1        0.0156
     13 N           2.6227    1.4043   -0.2953 N.am    1  UNL1       -0.3152
     14 C           3.8732    0.9638    0.2087 C.2     1  UNL1        0.2099
     15 C           4.9357    1.9804    0.5199 C.3     1  UNL1        0.0121
     16 O           4.1949   -0.2226    0.4286 O.2     1  UNL1       -0.2761
     17 C          -3.5251   -1.6255   -0.4160 C.ar    1  UNL1       -0.0506
     18 C          -3.8857   -0.2933   -0.2341 C.ar    1  UNL1       -0.0194
     19 H          -3.2201    3.9212    0.2797 H       1  UNL1        0.0660
     20 H          -1.7679    2.9877   -0.1154 H       1  UNL1        0.0660
     21 H          -2.3729    2.9808    1.6283 H       1  UNL1        0.0660
     22 H          -0.9364    1.0638    0.5128 H       1  UNL1        0.0660
     23 H          -2.5541   -4.0353   -0.6864 H       1  UNL1        0.0624
     24 H          -0.1530   -4.6767   -0.3902 H       1  UNL1        0.0618
     25 H           1.4263   -2.9658    0.1857 H       1  UNL1        0.0620
     26 H           2.0438   -0.9538    0.9227 H       1  UNL1        0.0328
     27 H           0.9067    0.2725    1.4702 H       1  UNL1        0.0328
     28 H           2.0505   -0.2988   -1.3052 H       1  UNL1        0.0465
     29 H           0.7431    0.9016   -1.1515 H       1  UNL1        0.0465
     30 H           2.4917    2.4372   -0.4315 H       1  UNL1        0.1487
     31 H           5.6422    2.1048   -0.3193 H       1  UNL1        0.0322
     32 H           5.5212    1.6374    1.3978 H       1  UNL1        0.0322
     33 H           4.4330    2.9354    0.7906 H       1  UNL1        0.0322
     34 H          -4.2522   -2.3912   -0.6775 H       1  UNL1        0.0625
     35 H          -4.9581   -0.1066   -0.3798 H       1  UNL1        0.0654
@<TRIPOS>BOND
     1     1     2    1
     2     2     3    1
     3     3     4   ar
     4     4     5   ar
     5     5     6   ar
     6     6     7   ar
     7     7     8   ar
     8     8     9   ar
     9     9    10   ar
    10    10    11    1
    11    11    12    1
    12    12    13    1
    13    13    14   am
    14    14    15    1
    15    14    16    2
    16     6    17   ar
    17    17    18   ar
    18    18     3   ar
    19    10     5   ar
    20     1    19    1
    21     1    20    1
    22     1    21    1
    23     4    22    1
    24     7    23    1
    25     8    24    1
    26     9    25    1
    27    11    26    1
    28    11    27    1
    29    12    28    1
    30    12    29    1
    31    13    30    1
    32    15    31    1
    33    15    32    1
    34    15    33    1
    35    17    34    1
    36    18    35    1
