
     RDKit          3D

 35 36  0  0  0  0  0  0  0  0999 V2000
   -2.6468    3.0051    0.5700 C   0  0  0  0  0  0  0  0  0  0  0  0
   -3.4796    1.9170    0.2359 O   0  0  0  0  0  0  0  0  0  0  0  0
   -2.9372    0.6709    0.1006 C   0  0  0  0  0  0  0  0  0  0  0  0
   -1.6213    0.2870    0.2517 C   0  0  0  0  0  0  0  0  0  0  0  0
   -1.2447   -1.0260    0.0758 C   0  0  0  0  0  0  0  0  0  0  0  0
   -2.1916   -1.9838   -0.2573 C   0  0  0  0  0  0  0  0  0  0  0  0
   -1.8253   -3.3028   -0.4306 C   0  0  0  0  0  0  0  0  0  0  0  0
   -0.5133   -3.6666   -0.2710 C   0  0  0  0  0  0  0  0  0  0  0  0
    0.3864   -2.6765    0.0598 C   0  0  0  0  0  0  0  0  0  0  0  0
    0.0960   -1.3189    0.2525 C   0  0  0  0  0  0  0  0  0  0  0  0
    1.1511   -0.3607    0.5929 C   0  0  0  0  0  0  0  0  0  0  0  0
    1.5667    0.4338   -0.6073 C   0  0  0  0  0  0  0  0  0  0  0  0
    2.6227    1.4043   -0.2953 N   0  0  0  0  0  0  0  0  0  0  0  0
    3.8732    0.9638    0.2087 C   0  0  0  0  0  0  0  0  0  0  0  0
    4.9357    1.9804    0.5199 C   0  0  0  0  0  0  0  0  0  0  0  0
    4.1949   -0.2226    0.4286 O   0  0  0  0  0  0  0  0  0  0  0  0
   -3.5251   -1.6255   -0.4160 C   0  0  0  0  0  0  0  0  0  0  0  0
   -3.8857   -0.2933   -0.2341 C   0  0  0  0  0  0  0  0  0  0  0  0
   -3.2201    3.9212    0.2797 H   0  0  0  0  0  0  0  0  0  0  0  0
   -1.7679    2.9877   -0.1154 H   0  0  0  0  0  0  0  0  0  0  0  0
   -2.3729    2.9808    1.6283 H   0  0  0  0  0  0  0  0  0  0  0  0
   -0.9364    1.0638    0.5128 H   0  0  0  0  0  0  0  0  0  0  0  0
   -2.5541   -4.0353   -0.6864 H   0  0  0  0  0  0  0  0  0  0  0  0
   -0.1530   -4.6767   -0.3902 H   0  0  0  0  0  0  0  0  0  0  0  0
    1.4263   -2.9658    0.1857 H   0  0  0  0  0  0  0  0  0  0  0  0
    2.0438   -0.9538    0.9227 H   0  0  0  0  0  0  0  0  0  0  0  0
    0.9067    0.2725    1.4702 H   0  0  0  0  0  0  0  0  0  0  0  0
    2.0505   -0.2988   -1.3052 H   0  0  0  0  0  0  0  0  0  0  0  0
    0.7431    0.9016   -1.1515 H   0  0  0  0  0  0  0  0  0  0  0  0
    2.4917    2.4372   -0.4315 H   0  0  0  0  0  0  0  0  0  0  0  0
    5.6422    2.1048   -0.3193 H   0  0  0  0  0  0  0  0  0  0  0  0
    5.5212    1.6374    1.3978 H   0  0  0  0  0  0  0  0  0  0  0  0
    4.4330    2.9354    0.7906 H   0  0  0  0  0  0  0  0  0  0  0  0
   -4.2522   -2.3912   -0.6775 H   0  0  0  0  0  0  0  0  0  0  0  0
   -4.9581   -0.1066   -0.3798 H   0  0  0  0  0  0  0  0  0  0  0  0
  1  2  1  0
  2  3  1  0
  3  4  2  0
  4  5  1  0
  5  6  2  0
  6  7  1  0
  7  8  2  0
  8  9  1  0
  9 10  2  0
 10 11  1  0
 11 12  1  0
 12 13  1  0
 13 14  1  0
 14 15  1  0
 14 16  2  0
  6 17  1  0
 17 18  2  0
 18  3  1  0
 10  5  1  0
  1 19  1  0
  1 20  1  0
  1 21  1  0
  4 22  1  0
  7 23  1  0
  8 24  1  0
  9 25  1  0
 11 26  1  0
 11 27  1  0
 12 28  1  0
 12 29  1  0
 13 30  1  0
 15 31  1  0
 15 32  1  0
 15 33  1  0
 17 34  1  0
 18 35  1  0
M  END
$$$$
