@<TRIPOS>MOLECULE
*****
 35 36 0 0 0
SMALL
GASTEIGER

@<TRIPOS>ATOM
      1 C          -5.6104   -2.1733    0.4570 C.3     1  UNL1       -0.0397
      2 C          -4.3512   -1.3985    0.2592 C.ar    1  UNL1       -0.0504
      3 C          -4.4687   -0.1331   -0.3126 C.ar    1  UNL1       -0.0585
      4 C          -3.3114    0.5990   -0.5032 C.ar    1  UNL1       -0.0570
      5 C          -2.0580    0.1494   -0.1613 C.ar    1  UNL1       -0.0319
      6 C          -0.9343    1.0588   -0.4340 C.3     1  UNL1        0.0425
      7 N          -0.6504    1.9478    0.6978 N.3     1  UNL1       -0.1852
      8 S           0.6887    2.9282    0.1847 S.O2    1  UNL1        0.0650
      9 O           0.3356    3.7898   -0.9840 O.2     1  UNL1       -0.1525
     10 O           1.0550    3.8542    1.3099 O.2     1  UNL1       -0.1525
     11 C           2.0297    1.8886   -0.1277 C.ar    1  UNL1        0.1442
     12 C           2.8558    1.5516   -1.1893 C.ar    1  UNL1       -0.0261
     13 C           3.8250    0.6376   -0.9495 C.ar    1  UNL1       -0.0262
     14 C           3.9568    0.0887    0.2986 C.ar    1  UNL1        0.1440
     15 S           2.6634    0.8696    1.2352 S.2     1  UNL1       -0.0487
     16 S           5.0975   -1.0805    0.8483 S.O2    1  UNL1        0.0623
     17 N           6.1215   -1.5030   -0.4539 N.3     1  UNL1       -0.2030
     18 O           5.9639   -0.3924    1.8911 O.2     1  UNL1       -0.1527
     19 O           4.4572   -2.2733    1.4849 O.2     1  UNL1       -0.1527
     20 C          -1.9674   -1.0913    0.3966 C.ar    1  UNL1       -0.0570
     21 C          -3.1116   -1.8618    0.6056 C.ar    1  UNL1       -0.0585
     22 H          -6.0742   -2.2734   -0.5621 H       1  UNL1        0.0278
     23 H          -6.3059   -1.6132    1.0981 H       1  UNL1        0.0278
     24 H          -5.3778   -3.1381    0.9057 H       1  UNL1        0.0278
     25 H          -5.4309    0.2441   -0.5892 H       1  UNL1        0.0620
     26 H          -3.4593    1.5723   -0.9496 H       1  UNL1        0.0621
     27 H           0.0195    0.5001   -0.6498 H       1  UNL1        0.0490
     28 H          -1.1032    1.6998   -1.3230 H       1  UNL1        0.0490
     29 H          -0.2757    1.3169    1.4476 H       1  UNL1        0.1484
     30 H           2.6346    2.0635   -2.1123 H       1  UNL1        0.0643
     31 H           4.5087    0.3335   -1.7558 H       1  UNL1        0.0643
     32 H           6.6427   -2.3962   -0.3248 H       1  UNL1        0.1443
     33 H           5.6670   -1.4588   -1.3839 H       1  UNL1        0.1443
     34 H          -0.9869   -1.4521    0.6681 H       1  UNL1        0.0621
     35 H          -3.0452   -2.8545    1.0513 H       1  UNL1        0.0620
@<TRIPOS>BOND
     1     1     2    1
     2     2     3   ar
     3     3     4   ar
     4     4     5   ar
     5     5     6    1
     6     6     7    1
     7     7     8    1
     8     8     9    2
     9     8    10    2
    10     8    11    1
    11    11    12   ar
    12    12    13   ar
    13    13    14   ar
    14    14    15   ar
    15    14    16    1
    16    16    17    1
    17    16    18    2
    18    16    19    2
    19     5    20   ar
    20    20    21   ar
    21    21     2   ar
    22    15    11   ar
    23     1    22    1
    24     1    23    1
    25     1    24    1
    26     3    25    1
    27     4    26    1
    28     6    27    1
    29     6    28    1
    30     7    29    1
    31    12    30    1
    32    13    31    1
    33    17    32    1
    34    17    33    1
    35    20    34    1
    36    21    35    1
