@<TRIPOS>MOLECULE
*****
 53 58 0 0 0
SMALL
GASTEIGER

@<TRIPOS>ATOM
      1 CL         -3.7817   -2.9904   -0.1152 Cl      1  UNL1       -0.0816
      2 C          -3.2207   -1.3420    0.0836 C.ar    1  UNL1        0.0625
      3 C          -1.8388   -1.0933    0.0365 C.ar    1  UNL1       -0.0338
      4 C          -1.3361    0.1790    0.1597 C.ar    1  UNL1       -0.0135
      5 C           0.1141    0.4310    0.1098 C.ar    1  UNL1        0.0185
      6 C           0.9794   -0.3199   -0.6355 C.ar    1  UNL1        0.0391
      7 N           2.3063   -0.0723   -0.6665 N.ar    1  UNL1       -0.2350
      8 C           2.7594    0.9544    0.0719 C.ar    1  UNL1        0.1632
      9 C           4.0499    1.4409    0.2378 C.ar    1  UNL1        0.0466
     10 C           5.2794    0.9452   -0.3659 C.ar    1  UNL1       -0.0037
     11 C           5.7156    1.4359   -1.5740 C.ar    1  UNL1       -0.0532
     12 C           6.8777    0.9928   -2.1824 C.ar    1  UNL1       -0.0591
     13 C           7.6439    0.0267   -1.5780 C.ar    1  UNL1       -0.0357
     14 C           7.2305   -0.4794   -0.3716 C.ar    1  UNL1        0.0715
     15 N           7.9558   -1.4309    0.2552 N.ar    1  UNL1       -0.2550
     16 C           7.5984   -1.9616    1.4366 C.ar    1  UNL1        0.0283
     17 C           6.4230   -1.5067    2.0419 C.ar    1  UNL1       -0.0430
     18 C           5.6377   -0.5323    1.4464 C.ar    1  UNL1       -0.0506
     19 C           6.0548   -0.0234    0.2322 C.ar    1  UNL1        0.0082
     20 C           3.9955    2.5216    1.1065 C.ar    1  UNL1        0.0597
     21 N           2.7057    2.6671    1.4431 N.ar    1  UNL1       -0.1727
     22 N           1.9779    1.7373    0.8284 N.ar    1  UNL1       -0.2206
     23 C           0.6415    1.4807    0.8538 C.ar    1  UNL1        0.0406
     24 C          -2.2155    1.2194    0.3318 C.ar    1  UNL1       -0.0521
     25 C          -3.5590    0.9659    0.3766 C.ar    1  UNL1       -0.0387
     26 C          -4.1063   -0.3215    0.2547 C.ar    1  UNL1        0.0484
     27 N          -5.5033   -0.4385    0.3492 N.pl3   1  UNL1       -0.3263
     28 C          -6.3568    0.7568    0.1654 C.3     1  UNL1        0.0248
     29 C          -7.7066    0.2909   -0.2501 C.3     1  UNL1        0.0117
     30 N          -7.7261   -0.8524   -1.1263 N.3     1  UNL1       -0.3130
     31 C          -7.0921   -2.0142   -0.5417 C.3     1  UNL1        0.0117
     32 C          -6.2356   -1.6328    0.6483 C.3     1  UNL1        0.0248
     33 H          -1.2043   -1.9354   -0.0987 H       1  UNL1        0.0639
     34 H           0.5655   -1.1368   -1.2138 H       1  UNL1        0.0837
     35 H           5.1144    2.2061   -2.0664 H       1  UNL1        0.0624
     36 H           7.2103    1.3867   -3.1329 H       1  UNL1        0.0618
     37 H           8.5661   -0.3535   -2.0177 H       1  UNL1        0.0639
     38 H           8.2045   -2.7242    1.9118 H       1  UNL1        0.0830
     39 H           6.1023   -1.9126    2.9973 H       1  UNL1        0.0633
     40 H           4.7359   -0.1963    1.9301 H       1  UNL1        0.0625
     41 H           4.8437    3.1270    1.4426 H       1  UNL1        0.0855
     42 H           0.0197    2.1179    1.4672 H       1  UNL1        0.0837
     43 H          -1.8033    2.2149    0.4266 H       1  UNL1        0.0624
     44 H          -4.2619    1.7921    0.5147 H       1  UNL1        0.0637
     45 H          -5.9193    1.4267   -0.6079 H       1  UNL1        0.0476
     46 H          -6.4409    1.3005    1.1263 H       1  UNL1        0.0476
     47 H          -8.2329    1.1184   -0.7874 H       1  UNL1        0.0439
     48 H          -8.2993    0.0949    0.6659 H       1  UNL1        0.0439
     49 H          -7.4477   -0.6523   -2.0886 H       1  UNL1        0.1220
     50 H          -7.8621   -2.7497   -0.3173 H       1  UNL1        0.0439
     51 H          -6.4216   -2.4234   -1.3175 H       1  UNL1        0.0439
     52 H          -5.7166   -2.4439    1.1284 H       1  UNL1        0.0476
     53 H          -7.0202   -1.2910    1.4235 H       1  UNL1        0.0476
@<TRIPOS>BOND
     1     1     2    1
     2     2     3   ar
     3     3     4   ar
     4     4     5    1
     5     5     6   ar
     6     6     7   ar
     7     7     8   ar
     8     8     9   ar
     9     9    10    1
    10    10    11   ar
    11    11    12   ar
    12    12    13   ar
    13    13    14   ar
    14    14    15   ar
    15    15    16   ar
    16    16    17   ar
    17    17    18   ar
    18    18    19   ar
    19     9    20   ar
    20    20    21   ar
    21    21    22   ar
    22    22    23   ar
    23     4    24   ar
    24    24    25   ar
    25    25    26   ar
    26    26    27    1
    27    27    28    1
    28    28    29    1
    29    29    30    1
    30    30    31    1
    31    31    32    1
    32    26     2   ar
    33    32    27    1
    34    23     5   ar
    35    22     8   ar
    36    19    10   ar
    37    19    14   ar
    38     3    33    1
    39     6    34    1
    40    11    35    1
    41    12    36    1
    42    13    37    1
    43    16    38    1
    44    17    39    1
    45    18    40    1
    46    20    41    1
    47    23    42    1
    48    24    43    1
    49    25    44    1
    50    28    45    1
    51    28    46    1
    52    29    47    1
    53    29    48    1
    54    30    49    1
    55    31    50    1
    56    31    51    1
    57    32    52    1
    58    32    53    1
