
     RDKit          3D

 53 58  0  0  0  0  0  0  0  0999 V2000
   -3.7817   -2.9904   -0.1152 Cl  0  0  0  0  0  0  0  0  0  0  0  0
   -3.2207   -1.3420    0.0836 C   0  0  0  0  0  0  0  0  0  0  0  0
   -1.8388   -1.0933    0.0365 C   0  0  0  0  0  0  0  0  0  0  0  0
   -1.3361    0.1790    0.1597 C   0  0  0  0  0  0  0  0  0  0  0  0
    0.1141    0.4310    0.1098 C   0  0  0  0  0  0  0  0  0  0  0  0
    0.9794   -0.3199   -0.6355 C   0  0  0  0  0  0  0  0  0  0  0  0
    2.3063   -0.0723   -0.6665 N   0  0  0  0  0  0  0  0  0  0  0  0
    2.7594    0.9544    0.0719 C   0  0  0  0  0  0  0  0  0  0  0  0
    4.0499    1.4409    0.2378 C   0  0  0  0  0  0  0  0  0  0  0  0
    5.2794    0.9452   -0.3659 C   0  0  0  0  0  0  0  0  0  0  0  0
    5.7156    1.4359   -1.5740 C   0  0  0  0  0  0  0  0  0  0  0  0
    6.8777    0.9928   -2.1824 C   0  0  0  0  0  0  0  0  0  0  0  0
    7.6439    0.0267   -1.5780 C   0  0  0  0  0  0  0  0  0  0  0  0
    7.2305   -0.4794   -0.3716 C   0  0  0  0  0  0  0  0  0  0  0  0
    7.9558   -1.4309    0.2552 N   0  0  0  0  0  0  0  0  0  0  0  0
    7.5984   -1.9616    1.4366 C   0  0  0  0  0  0  0  0  0  0  0  0
    6.4230   -1.5067    2.0419 C   0  0  0  0  0  0  0  0  0  0  0  0
    5.6377   -0.5323    1.4464 C   0  0  0  0  0  0  0  0  0  0  0  0
    6.0548   -0.0234    0.2322 C   0  0  0  0  0  0  0  0  0  0  0  0
    3.9955    2.5216    1.1065 C   0  0  0  0  0  0  0  0  0  0  0  0
    2.7057    2.6671    1.4431 N   0  0  0  0  0  0  0  0  0  0  0  0
    1.9779    1.7373    0.8284 N   0  0  0  0  0  0  0  0  0  0  0  0
    0.6415    1.4807    0.8538 C   0  0  0  0  0  0  0  0  0  0  0  0
   -2.2155    1.2194    0.3318 C   0  0  0  0  0  0  0  0  0  0  0  0
   -3.5590    0.9659    0.3766 C   0  0  0  0  0  0  0  0  0  0  0  0
   -4.1063   -0.3215    0.2547 C   0  0  0  0  0  0  0  0  0  0  0  0
   -5.5033   -0.4385    0.3492 N   0  0  0  0  0  0  0  0  0  0  0  0
   -6.3568    0.7568    0.1654 C   0  0  0  0  0  0  0  0  0  0  0  0
   -7.7066    0.2909   -0.2501 C   0  0  0  0  0  0  0  0  0  0  0  0
   -7.7261   -0.8524   -1.1263 N   0  0  0  0  0  0  0  0  0  0  0  0
   -7.0921   -2.0142   -0.5417 C   0  0  0  0  0  0  0  0  0  0  0  0
   -6.2356   -1.6328    0.6483 C   0  0  0  0  0  0  0  0  0  0  0  0
   -1.2043   -1.9354   -0.0987 H   0  0  0  0  0  0  0  0  0  0  0  0
    0.5655   -1.1368   -1.2138 H   0  0  0  0  0  0  0  0  0  0  0  0
    5.1144    2.2061   -2.0664 H   0  0  0  0  0  0  0  0  0  0  0  0
    7.2103    1.3867   -3.1329 H   0  0  0  0  0  0  0  0  0  0  0  0
    8.5661   -0.3535   -2.0177 H   0  0  0  0  0  0  0  0  0  0  0  0
    8.2045   -2.7242    1.9118 H   0  0  0  0  0  0  0  0  0  0  0  0
    6.1023   -1.9126    2.9973 H   0  0  0  0  0  0  0  0  0  0  0  0
    4.7359   -0.1963    1.9301 H   0  0  0  0  0  0  0  0  0  0  0  0
    4.8437    3.1270    1.4426 H   0  0  0  0  0  0  0  0  0  0  0  0
    0.0197    2.1179    1.4672 H   0  0  0  0  0  0  0  0  0  0  0  0
   -1.8033    2.2149    0.4266 H   0  0  0  0  0  0  0  0  0  0  0  0
   -4.2619    1.7921    0.5147 H   0  0  0  0  0  0  0  0  0  0  0  0
   -5.9193    1.4267   -0.6079 H   0  0  0  0  0  0  0  0  0  0  0  0
   -6.4409    1.3005    1.1263 H   0  0  0  0  0  0  0  0  0  0  0  0
   -8.2329    1.1184   -0.7874 H   0  0  0  0  0  0  0  0  0  0  0  0
   -8.2993    0.0949    0.6659 H   0  0  0  0  0  0  0  0  0  0  0  0
   -7.4477   -0.6523   -2.0886 H   0  0  0  0  0  0  0  0  0  0  0  0
   -7.8621   -2.7497   -0.3173 H   0  0  0  0  0  0  0  0  0  0  0  0
   -6.4216   -2.4234   -1.3175 H   0  0  0  0  0  0  0  0  0  0  0  0
   -5.7166   -2.4439    1.1284 H   0  0  0  0  0  0  0  0  0  0  0  0
   -7.0202   -1.2910    1.4235 H   0  0  0  0  0  0  0  0  0  0  0  0
  1  2  1  0
  2  3  2  0
  3  4  1  0
  4  5  1  0
  5  6  1  0
  6  7  2  0
  7  8  1  0
  8  9  2  0
  9 10  1  0
 10 11  2  0
 11 12  1  0
 12 13  2  0
 13 14  1  0
 14 15  2  0
 15 16  1  0
 16 17  2  0
 17 18  1  0
 18 19  2  0
  9 20  1  0
 20 21  2  0
 21 22  1  0
 22 23  1  0
  4 24  2  0
 24 25  1  0
 25 26  2  0
 26 27  1  0
 27 28  1  0
 28 29  1  0
 29 30  1  0
 30 31  1  0
 31 32  1  0
 26  2  1  0
 32 27  1  0
 23  5  2  0
 22  8  1  0
 19 10  1  0
 19 14  1  0
  3 33  1  0
  6 34  1  0
 11 35  1  0
 12 36  1  0
 13 37  1  0
 16 38  1  0
 17 39  1  0
 18 40  1  0
 20 41  1  0
 23 42  1  0
 24 43  1  0
 25 44  1  0
 28 45  1  0
 28 46  1  0
 29 47  1  0
 29 48  1  0
 30 49  1  0
 31 50  1  0
 31 51  1  0
 32 52  1  0
 32 53  1  0
M  END
$$$$
