
     RDKit          3D

 48 50  0  0  0  0  0  0  0  0999 V2000
   -4.2212   -3.0662    0.8497 O   0  0  0  0  0  0  0  0  0  0  0  0
   -4.4483   -1.9914    1.4546 C   0  0  0  0  0  0  0  0  0  0  0  0
   -5.2234   -2.0683    2.6133 O   0  0  0  0  0  0  0  0  0  0  0  0
   -3.9451   -0.6649    1.0107 C   0  0  0  0  0  0  0  0  0  0  0  0
   -4.5684   -0.2418   -0.2445 C   0  0  0  0  0  0  0  0  0  0  0  0
   -5.4259   -1.1097   -0.9306 C   0  0  0  0  0  0  0  0  0  0  0  0
   -6.0145   -0.6911   -2.1047 C   0  0  0  0  0  0  0  0  0  0  0  0
   -5.7699    0.5657   -2.6078 C   0  0  0  0  0  0  0  0  0  0  0  0
   -4.9275    1.3915   -1.9150 C   0  0  0  0  0  0  0  0  0  0  0  0
   -4.3212    1.0063   -0.7386 C   0  0  0  0  0  0  0  0  0  0  0  0
   -3.2694    2.1392    0.0220 S   0  0  0  0  0  6  0  0  0  0  0  0
   -3.6958    2.4485    1.4382 O   0  0  0  0  0  0  0  0  0  0  0  0
   -3.2495    3.4431   -0.7619 O   0  0  0  0  0  0  0  0  0  0  0  0
   -1.6317    1.5405    0.0323 C   0  0  0  0  0  0  0  0  0  0  0  0
   -0.9239    1.4725   -1.1649 C   0  0  0  0  0  0  0  0  0  0  0  0
    0.3810    1.0329   -1.2089 C   0  0  0  0  0  0  0  0  0  0  0  0
    1.0472    0.6384   -0.0613 C   0  0  0  0  0  0  0  0  0  0  0  0
    2.4257    0.1578   -0.0993 C   0  0  0  0  0  0  0  0  0  0  0  0
    3.3297    0.3252    0.9100 C   0  0  0  0  0  0  0  0  0  0  0  0
    4.6346   -0.1781    0.7891 C   0  0  0  0  0  0  0  0  0  0  0  0
    4.9920   -0.8403   -0.3577 C   0  0  0  0  0  0  0  0  0  0  0  0
    6.2255   -1.3546   -0.5651 O   0  0  0  0  0  0  0  0  0  0  0  0
    7.3389   -1.2991    0.2501 C   0  0  0  0  0  0  0  0  0  0  0  0
    7.9183    0.0556    0.4677 C   0  0  0  0  0  0  0  0  0  0  0  0
    8.3212    0.5765   -0.7732 F   0  0  0  0  0  0  0  0  0  0  0  0
    4.0711   -1.0200   -1.4050 C   0  0  0  0  0  0  0  0  0  0  0  0
    2.8084   -0.5148   -1.2481 C   0  0  0  0  0  0  0  0  0  0  0  0
    0.3588    0.7018    1.1277 C   0  0  0  0  0  0  0  0  0  0  0  0
   -0.9555    1.1465    1.1594 C   0  0  0  0  0  0  0  0  0  0  0  0
   -6.0111   -2.7258    2.6750 H   0  0  0  0  0  0  0  0  0  0  0  0
   -4.0559    0.0997    1.7896 H   0  0  0  0  0  0  0  0  0  0  0  0
   -2.8394   -0.8389    0.8669 H   0  0  0  0  0  0  0  0  0  0  0  0
   -5.6413   -2.1001   -0.5552 H   0  0  0  0  0  0  0  0  0  0  0  0
   -6.6800   -1.3565   -2.6454 H   0  0  0  0  0  0  0  0  0  0  0  0
   -6.2350    0.8824   -3.5287 H   0  0  0  0  0  0  0  0  0  0  0  0
   -4.7415    2.3974   -2.3314 H   0  0  0  0  0  0  0  0  0  0  0  0
   -1.4487    1.7828   -2.0601 H   0  0  0  0  0  0  0  0  0  0  0  0
    0.9195    0.9848   -2.1426 H   0  0  0  0  0  0  0  0  0  0  0  0
    3.0218    0.8535    1.8056 H   0  0  0  0  0  0  0  0  0  0  0  0
    5.3089   -0.0472    1.6145 H   0  0  0  0  0  0  0  0  0  0  0  0
    7.0914   -1.6941    1.2875 H   0  0  0  0  0  0  0  0  0  0  0  0
    8.1594   -1.9861   -0.0848 H   0  0  0  0  0  0  0  0  0  0  0  0
    7.2418    0.7880    0.8815 H   0  0  0  0  0  0  0  0  0  0  0  0
    8.8013   -0.0140    1.1495 H   0  0  0  0  0  0  0  0  0  0  0  0
    4.3799   -1.5541   -2.3112 H   0  0  0  0  0  0  0  0  0  0  0  0
    2.1021   -0.6623   -2.0659 H   0  0  0  0  0  0  0  0  0  0  0  0
    0.8542    0.3974    2.0606 H   0  0  0  0  0  0  0  0  0  0  0  0
   -1.4887    1.1911    2.1100 H   0  0  0  0  0  0  0  0  0  0  0  0
  1  2  2  0
  2  3  1  0
  2  4  1  0
  4  5  1  0
  5  6  2  0
  6  7  1  0
  7  8  2  0
  8  9  1  0
  9 10  2  0
 10 11  1  0
 11 12  2  0
 11 13  2  0
 11 14  1  0
 14 15  2  0
 15 16  1  0
 16 17  2  0
 17 18  1  0
 18 19  2  0
 19 20  1  0
 20 21  2  0
 21 22  1  0
 22 23  1  0
 23 24  1  0
 24 25  1  0
 21 26  1  0
 26 27  2  0
 17 28  1  0
 28 29  2  0
 10  5  1  0
 29 14  1  0
 27 18  1  0
  3 30  1  0
  4 31  1  0
  4 32  1  0
  6 33  1  0
  7 34  1  0
  8 35  1  0
  9 36  1  0
 15 37  1  0
 16 38  1  0
 19 39  1  0
 20 40  1  0
 23 41  1  0
 23 42  1  0
 24 43  1  0
 24 44  1  0
 26 45  1  0
 27 46  1  0
 28 47  1  0
 29 48  1  0
M  END
$$$$
