@<TRIPOS>MOLECULE
*****
 48 50 0 0 0
SMALL
GASTEIGER

@<TRIPOS>ATOM
      1 O          -4.2212   -3.0662    0.8497 O.2     1  UNL1       -0.2507
      2 C          -4.4483   -1.9914    1.4546 C.2     1  UNL1        0.3091
      3 O          -5.2234   -2.0683    2.6133 O.3     1  UNL1       -0.4804
      4 C          -3.9451   -0.6649    1.0107 C.3     1  UNL1        0.0717
      5 C          -4.5684   -0.2418   -0.2445 C.ar    1  UNL1       -0.0115
      6 C          -5.4259   -1.1097   -0.9306 C.ar    1  UNL1       -0.0562
      7 C          -6.0145   -0.6911   -2.1047 C.ar    1  UNL1       -0.0614
      8 C          -5.7699    0.5657   -2.6078 C.ar    1  UNL1       -0.0599
      9 C          -4.9275    1.3915   -1.9150 C.ar    1  UNL1       -0.0362
     10 C          -4.3212    1.0063   -0.7386 C.ar    1  UNL1        0.0972
     11 S          -3.2694    2.1392    0.0220 S.O2    1  UNL1        0.0253
     12 O          -3.6958    2.4485    1.4382 O.2     1  UNL1       -0.1643
     13 O          -3.2495    3.4431   -0.7619 O.2     1  UNL1       -0.1643
     14 C          -1.6317    1.5405    0.0323 C.ar    1  UNL1        0.0936
     15 C          -0.9239    1.4725   -1.1649 C.ar    1  UNL1       -0.0359
     16 C           0.3810    1.0329   -1.2089 C.ar    1  UNL1       -0.0522
     17 C           1.0472    0.6384   -0.0613 C.ar    1  UNL1       -0.0178
     18 C           2.4257    0.1578   -0.0993 C.ar    1  UNL1       -0.0177
     19 C           3.3297    0.3252    0.9100 C.ar    1  UNL1       -0.0506
     20 C           4.6346   -0.1781    0.7891 C.ar    1  UNL1       -0.0194
     21 C           4.9920   -0.8403   -0.3577 C.ar    1  UNL1        0.1207
     22 O           6.2255   -1.3546   -0.5651 O.3     1  UNL1       -0.4894
     23 C           7.3389   -1.2991    0.2501 C.3     1  UNL1        0.1177
     24 C           7.9183    0.0556    0.4677 C.3     1  UNL1        0.1241
     25 F           8.3212    0.5765   -0.7732 F       1  UNL1       -0.2455
     26 C           4.0711   -1.0200   -1.4050 C.ar    1  UNL1       -0.0194
     27 C           2.8084   -0.5148   -1.2481 C.ar    1  UNL1       -0.0506
     28 C           0.3588    0.7018    1.1277 C.ar    1  UNL1       -0.0522
     29 C          -0.9555    1.1465    1.1594 C.ar    1  UNL1       -0.0359
     30 H          -6.0111   -2.7258    2.6750 H       1  UNL1        0.2951
     31 H          -4.0559    0.0997    1.7896 H       1  UNL1        0.0427
     32 H          -2.8394   -0.8389    0.8669 H       1  UNL1        0.0427
     33 H          -5.6413   -2.1001   -0.5552 H       1  UNL1        0.0621
     34 H          -6.6800   -1.3565   -2.6454 H       1  UNL1        0.0618
     35 H          -6.2350    0.8824   -3.5287 H       1  UNL1        0.0618
     36 H          -4.7415    2.3974   -2.3314 H       1  UNL1        0.0637
     37 H          -1.4487    1.7828   -2.0601 H       1  UNL1        0.0637
     38 H           0.9195    0.9848   -2.1426 H       1  UNL1        0.0624
     39 H           3.0218    0.8535    1.8056 H       1  UNL1        0.0625
     40 H           5.3089   -0.0472    1.6145 H       1  UNL1        0.0654
     41 H           7.0914   -1.6941    1.2875 H       1  UNL1        0.0723
     42 H           8.1594   -1.9861   -0.0848 H       1  UNL1        0.0723
     43 H           7.2418    0.7880    0.8815 H       1  UNL1        0.0649
     44 H           8.8013   -0.0140    1.1495 H       1  UNL1        0.0649
     45 H           4.3799   -1.5541   -2.3112 H       1  UNL1        0.0654
     46 H           2.1021   -0.6623   -2.0659 H       1  UNL1        0.0625
     47 H           0.8542    0.3974    2.0606 H       1  UNL1        0.0624
     48 H          -1.4887    1.1911    2.1100 H       1  UNL1        0.0637
@<TRIPOS>BOND
     1     1     2    2
     2     2     3    1
     3     2     4    1
     4     4     5    1
     5     5     6   ar
     6     6     7   ar
     7     7     8   ar
     8     8     9   ar
     9     9    10   ar
    10    10    11    1
    11    11    12    2
    12    11    13    2
    13    11    14    1
    14    14    15   ar
    15    15    16   ar
    16    16    17   ar
    17    17    18    1
    18    18    19   ar
    19    19    20   ar
    20    20    21   ar
    21    21    22    1
    22    22    23    1
    23    23    24    1
    24    24    25    1
    25    21    26   ar
    26    26    27   ar
    27    17    28   ar
    28    28    29   ar
    29    10     5   ar
    30    29    14   ar
    31    27    18   ar
    32     3    30    1
    33     4    31    1
    34     4    32    1
    35     6    33    1
    36     7    34    1
    37     8    35    1
    38     9    36    1
    39    15    37    1
    40    16    38    1
    41    19    39    1
    42    20    40    1
    43    23    41    1
    44    23    42    1
    45    24    43    1
    46    24    44    1
    47    26    45    1
    48    27    46    1
    49    28    47    1
    50    29    48    1
