@<TRIPOS>MOLECULE
*****
 56 59 0 0 0
SMALL
GASTEIGER

@<TRIPOS>ATOM
      1 C          10.2997    0.6625   -0.8662 C.2     1  UNL1       -0.0938
      2 C           9.1411    0.2101   -1.2917 C.2     1  UNL1       -0.0066
      3 C           7.9400    0.4645   -0.5143 C.2     1  UNL1        0.2405
      4 O           8.0007    1.1132    0.5611 O.2     1  UNL1       -0.2705
      5 N           6.6525    0.0076   -0.9110 N.am    1  UNL1       -0.2820
      6 C           5.4695    0.2517   -0.1564 C.ar    1  UNL1        0.0338
      7 C           5.0293   -0.6159    0.8234 C.ar    1  UNL1       -0.0386
      8 C           3.8757   -0.3648    1.5497 C.ar    1  UNL1       -0.0336
      9 C           3.1206    0.7660    1.3202 C.ar    1  UNL1        0.1056
     10 S           1.6598    1.0866    2.2391 S.O2    1  UNL1        0.0609
     11 O           1.4617    2.5716    2.4035 O.2     1  UNL1       -0.1528
     12 O           1.8713    0.5252    3.6169 O.2     1  UNL1       -0.1528
     13 N           0.3003    0.4210    1.5040 N.3     1  UNL1       -0.1736
     14 C           0.2413   -0.9584    1.3338 C.3     1  UNL1        0.0363
     15 C          -0.1738   -1.4468   -0.0156 C.3     1  UNL1        0.0291
     16 N          -1.3774   -0.7247   -0.3867 N.am    1  UNL1       -0.2987
     17 C          -2.5604   -1.4104   -0.7341 C.2     1  UNL1        0.2193
     18 O          -2.5364   -2.6771   -0.7085 O.2     1  UNL1       -0.2753
     19 C          -3.8364   -0.7927   -1.1285 C.3     1  UNL1        0.0431
     20 C          -4.6266   -1.5574   -2.1857 C.3     1  UNL1       -0.0338
     21 C          -5.0958   -1.5070   -0.7853 C.3     1  UNL1       -0.0040
     22 C          -6.3307   -0.6959   -0.5045 C.ar    1  UNL1       -0.0435
     23 C          -7.2310   -1.0539    0.4792 C.ar    1  UNL1       -0.0583
     24 C          -8.3587   -0.3153    0.7374 C.ar    1  UNL1       -0.0615
     25 C          -8.6040    0.8182   -0.0046 C.ar    1  UNL1       -0.0617
     26 C          -7.7144    1.1938   -0.9944 C.ar    1  UNL1       -0.0615
     27 C          -6.5857    0.4341   -1.2362 C.ar    1  UNL1       -0.0583
     28 C          -1.2805    0.7099   -0.3755 C.3     1  UNL1        0.0291
     29 C          -0.5698    1.2657    0.8204 C.3     1  UNL1        0.0363
     30 C           3.5596    1.6328    0.3419 C.ar    1  UNL1       -0.0336
     31 C           4.7078    1.3803   -0.3792 C.ar    1  UNL1       -0.0386
     32 H          10.3807    1.2145    0.0399 H       1  UNL1        0.0536
     33 H          11.2075    0.4809   -1.4355 H       1  UNL1        0.0536
     34 H           9.0466   -0.3471   -2.2024 H       1  UNL1        0.0663
     35 H           6.5681   -0.5311   -1.7946 H       1  UNL1        0.1551
     36 H           5.6036   -1.5054    1.0194 H       1  UNL1        0.0637
     37 H           3.5242   -1.0510    2.3271 H       1  UNL1        0.0638
     38 H           1.2533   -1.4079    1.5455 H       1  UNL1        0.0459
     39 H          -0.4389   -1.4406    2.0957 H       1  UNL1        0.0459
     40 H          -0.3570   -2.5375    0.0087 H       1  UNL1        0.0478
     41 H           0.6230   -1.1648   -0.7353 H       1  UNL1        0.0478
     42 H          -3.8926    0.3079   -1.1650 H       1  UNL1        0.0400
     43 H          -5.0788   -0.9357   -2.9766 H       1  UNL1        0.0279
     44 H          -4.1782   -2.5202   -2.5561 H       1  UNL1        0.0279
     45 H          -4.9731   -2.4015   -0.1480 H       1  UNL1        0.0356
     46 H          -7.0515   -1.9413    1.0700 H       1  UNL1        0.0620
     47 H          -9.0879   -0.5708    1.5058 H       1  UNL1        0.0618
     48 H          -9.4796    1.4408    0.1554 H       1  UNL1        0.0618
     49 H          -7.9225    2.0760   -1.5590 H       1  UNL1        0.0618
     50 H          -5.9047    0.7584   -2.0238 H       1  UNL1        0.0620
     51 H          -0.7193    1.0077   -1.3102 H       1  UNL1        0.0478
     52 H          -2.2495    1.2326   -0.4547 H       1  UNL1        0.0478
     53 H          -0.0128    2.1792    0.4778 H       1  UNL1        0.0459
     54 H          -1.3296    1.6746    1.5483 H       1  UNL1        0.0459
     55 H           2.9731    2.5139    0.1617 H       1  UNL1        0.0638
     56 H           5.0465    2.0744   -1.1526 H       1  UNL1        0.0637
@<TRIPOS>BOND
     1     1     2    2
     2     2     3    1
     3     3     4    2
     4     3     5   am
     5     5     6    1
     6     6     7   ar
     7     7     8   ar
     8     8     9   ar
     9     9    10    1
    10    10    11    2
    11    10    12    2
    12    10    13    1
    13    13    14    1
    14    14    15    1
    15    15    16    1
    16    16    17   am
    17    17    18    2
    18    17    19    1
    19    19    20    1
    20    20    21    1
    21    21    22    1
    22    22    23   ar
    23    23    24   ar
    24    24    25   ar
    25    25    26   ar
    26    26    27   ar
    27    16    28    1
    28    28    29    1
    29     9    30   ar
    30    30    31   ar
    31    31     6   ar
    32    29    13    1
    33    21    19    1
    34    27    22   ar
    35     1    32    1
    36     1    33    1
    37     2    34    1
    38     5    35    1
    39     7    36    1
    40     8    37    1
    41    14    38    1
    42    14    39    1
    43    15    40    1
    44    15    41    1
    45    19    42    1
    46    20    43    1
    47    20    44    1
    48    21    45    1
    49    23    46    1
    50    24    47    1
    51    25    48    1
    52    26    49    1
    53    27    50    1
    54    28    51    1
    55    28    52    1
    56    29    53    1
    57    29    54    1
    58    30    55    1
    59    31    56    1
