
     RDKit          3D

 56 59  0  0  0  0  0  0  0  0999 V2000
   10.2997    0.6625   -0.8662 C   0  0  0  0  0  0  0  0  0  0  0  0
    9.1411    0.2101   -1.2917 C   0  0  0  0  0  0  0  0  0  0  0  0
    7.9400    0.4645   -0.5143 C   0  0  0  0  0  0  0  0  0  0  0  0
    8.0007    1.1132    0.5611 O   0  0  0  0  0  0  0  0  0  0  0  0
    6.6525    0.0076   -0.9110 N   0  0  0  0  0  0  0  0  0  0  0  0
    5.4695    0.2517   -0.1564 C   0  0  0  0  0  0  0  0  0  0  0  0
    5.0293   -0.6159    0.8234 C   0  0  0  0  0  0  0  0  0  0  0  0
    3.8757   -0.3648    1.5497 C   0  0  0  0  0  0  0  0  0  0  0  0
    3.1206    0.7660    1.3202 C   0  0  0  0  0  0  0  0  0  0  0  0
    1.6598    1.0866    2.2391 S   0  0  0  0  0  6  0  0  0  0  0  0
    1.4617    2.5716    2.4035 O   0  0  0  0  0  0  0  0  0  0  0  0
    1.8713    0.5252    3.6169 O   0  0  0  0  0  0  0  0  0  0  0  0
    0.3003    0.4210    1.5040 N   0  0  0  0  0  0  0  0  0  0  0  0
    0.2413   -0.9584    1.3338 C   0  0  0  0  0  0  0  0  0  0  0  0
   -0.1738   -1.4468   -0.0156 C   0  0  0  0  0  0  0  0  0  0  0  0
   -1.3774   -0.7247   -0.3867 N   0  0  0  0  0  0  0  0  0  0  0  0
   -2.5604   -1.4104   -0.7341 C   0  0  0  0  0  0  0  0  0  0  0  0
   -2.5364   -2.6771   -0.7085 O   0  0  0  0  0  0  0  0  0  0  0  0
   -3.8364   -0.7927   -1.1285 C   0  0  0  0  0  0  0  0  0  0  0  0
   -4.6266   -1.5574   -2.1857 C   0  0  0  0  0  0  0  0  0  0  0  0
   -5.0958   -1.5070   -0.7853 C   0  0  2  0  0  0  0  0  0  0  0  0
   -6.3307   -0.6959   -0.5045 C   0  0  0  0  0  0  0  0  0  0  0  0
   -7.2310   -1.0539    0.4792 C   0  0  0  0  0  0  0  0  0  0  0  0
   -8.3587   -0.3153    0.7374 C   0  0  0  0  0  0  0  0  0  0  0  0
   -8.6040    0.8182   -0.0046 C   0  0  0  0  0  0  0  0  0  0  0  0
   -7.7144    1.1938   -0.9944 C   0  0  0  0  0  0  0  0  0  0  0  0
   -6.5857    0.4341   -1.2362 C   0  0  0  0  0  0  0  0  0  0  0  0
   -1.2805    0.7099   -0.3755 C   0  0  0  0  0  0  0  0  0  0  0  0
   -0.5698    1.2657    0.8204 C   0  0  0  0  0  0  0  0  0  0  0  0
    3.5596    1.6328    0.3419 C   0  0  0  0  0  0  0  0  0  0  0  0
    4.7078    1.3803   -0.3792 C   0  0  0  0  0  0  0  0  0  0  0  0
   10.3807    1.2145    0.0399 H   0  0  0  0  0  0  0  0  0  0  0  0
   11.2075    0.4809   -1.4355 H   0  0  0  0  0  0  0  0  0  0  0  0
    9.0466   -0.3471   -2.2024 H   0  0  0  0  0  0  0  0  0  0  0  0
    6.5681   -0.5311   -1.7946 H   0  0  0  0  0  0  0  0  0  0  0  0
    5.6036   -1.5054    1.0194 H   0  0  0  0  0  0  0  0  0  0  0  0
    3.5242   -1.0510    2.3271 H   0  0  0  0  0  0  0  0  0  0  0  0
    1.2533   -1.4079    1.5455 H   0  0  0  0  0  0  0  0  0  0  0  0
   -0.4389   -1.4406    2.0957 H   0  0  0  0  0  0  0  0  0  0  0  0
   -0.3570   -2.5375    0.0087 H   0  0  0  0  0  0  0  0  0  0  0  0
    0.6230   -1.1648   -0.7353 H   0  0  0  0  0  0  0  0  0  0  0  0
   -3.8926    0.3079   -1.1650 H   0  0  0  0  0  0  0  0  0  0  0  0
   -5.0788   -0.9357   -2.9766 H   0  0  0  0  0  0  0  0  0  0  0  0
   -4.1782   -2.5202   -2.5561 H   0  0  0  0  0  0  0  0  0  0  0  0
   -4.9731   -2.4015   -0.1480 H   0  0  0  0  0  0  0  0  0  0  0  0
   -7.0515   -1.9413    1.0700 H   0  0  0  0  0  0  0  0  0  0  0  0
   -9.0879   -0.5708    1.5058 H   0  0  0  0  0  0  0  0  0  0  0  0
   -9.4796    1.4408    0.1554 H   0  0  0  0  0  0  0  0  0  0  0  0
   -7.9225    2.0760   -1.5590 H   0  0  0  0  0  0  0  0  0  0  0  0
   -5.9047    0.7584   -2.0238 H   0  0  0  0  0  0  0  0  0  0  0  0
   -0.7193    1.0077   -1.3102 H   0  0  0  0  0  0  0  0  0  0  0  0
   -2.2495    1.2326   -0.4547 H   0  0  0  0  0  0  0  0  0  0  0  0
   -0.0128    2.1792    0.4778 H   0  0  0  0  0  0  0  0  0  0  0  0
   -1.3296    1.6746    1.5483 H   0  0  0  0  0  0  0  0  0  0  0  0
    2.9731    2.5139    0.1617 H   0  0  0  0  0  0  0  0  0  0  0  0
    5.0465    2.0744   -1.1526 H   0  0  0  0  0  0  0  0  0  0  0  0
  1  2  2  3
  2  3  1  0
  3  4  2  0
  3  5  1  0
  5  6  1  0
  6  7  2  0
  7  8  1  0
  8  9  2  0
  9 10  1  0
 10 11  2  0
 10 12  2  0
 10 13  1  0
 13 14  1  0
 14 15  1  0
 15 16  1  0
 16 17  1  0
 17 18  2  0
 17 19  1  0
 19 20  1  0
 20 21  1  0
 21 22  1  0
 22 23  2  0
 23 24  1  0
 24 25  2  0
 25 26  1  0
 26 27  2  0
 16 28  1  0
 28 29  1  0
  9 30  1  0
 30 31  2  0
 31  6  1  0
 29 13  1  0
 21 19  1  0
 27 22  1  0
  1 32  1  0
  1 33  1  0
  2 34  1  0
  5 35  1  0
  7 36  1  0
  8 37  1  0
 14 38  1  0
 14 39  1  0
 15 40  1  0
 15 41  1  0
 19 42  1  0
 20 43  1  0
 20 44  1  0
 21 45  1  1
 23 46  1  0
 24 47  1  0
 25 48  1  0
 26 49  1  0
 27 50  1  0
 28 51  1  0
 28 52  1  0
 29 53  1  0
 29 54  1  0
 30 55  1  0
 31 56  1  0
M  END
$$$$
