@<TRIPOS>MOLECULE
*****
 52 56 0 0 0
SMALL
GASTEIGER

@<TRIPOS>ATOM
      1 O           9.0899   -0.1277   -0.3418 O.2     1  UNL1        0.0414
      2 N           8.4413    0.3565   -1.2751 N.pl3   1  UNL1        0.0796
      3 O           9.1125    0.8862   -2.3353 O.co2   1  UNL1       -0.5760
      4 C           7.0283    0.3537   -1.2336 C.ar    1  UNL1        0.2739
      5 C           6.2881    0.8966   -2.2921 C.ar    1  UNL1        0.0176
      6 C           4.8953    0.8998   -2.2689 C.ar    1  UNL1       -0.0313
      7 C           4.2282    0.3627   -1.1918 C.ar    1  UNL1        0.0495
      8 N           2.9096    0.2151   -0.8784 N.ar    1  UNL1       -0.3502
      9 C           2.7712   -0.3867    0.3123 C.ar    1  UNL1        0.1065
     10 C           1.6771   -0.7573    1.0541 C.ar    1  UNL1        0.1487
     11 N           0.3512   -0.5195    0.6106 N.pl3   1  UNL1       -0.3110
     12 C          -0.1131    0.8171    0.4537 C.3     1  UNL1        0.0264
     13 C          -1.5828    0.9754    0.7827 C.3     1  UNL1        0.0147
     14 N          -2.3417   -0.2096    0.5189 N.3     1  UNL1       -0.2990
     15 C          -2.7858   -0.3424   -0.8374 C.3     1  UNL1        0.0030
     16 C          -3.8396    0.6732   -1.2246 C.3     1  UNL1       -0.0148
     17 C          -5.0492    0.5587   -0.3888 C.ar    1  UNL1       -0.0433
     18 C          -5.2459    1.2389    0.7796 C.ar    1  UNL1       -0.0556
     19 C          -6.3937    1.0794    1.5066 C.ar    1  UNL1       -0.0233
     20 C          -7.3882    0.2219    1.0747 C.ar    1  UNL1        0.1584
     21 F          -8.5324    0.0485    1.7788 F       1  UNL1       -0.2025
     22 C          -7.2176   -0.4752   -0.0973 C.ar    1  UNL1        0.1587
     23 F          -8.1714   -1.3263   -0.5545 F       1  UNL1       -0.2025
     24 C          -6.0525   -0.2963   -0.8102 C.ar    1  UNL1       -0.0204
     25 C          -1.7921   -1.4133    1.0500 C.3     1  UNL1        0.0147
     26 C          -0.4783   -1.6712    0.3349 C.3     1  UNL1        0.0264
     27 N           1.8656   -1.3730    2.2601 N.ar    1  UNL1       -0.2186
     28 C           3.0937   -1.6231    2.7349 C.ar    1  UNL1        0.1189
     29 N           4.1334   -1.2554    1.9993 N.ar    1  UNL1       -0.2332
     30 C           4.0481   -0.6488    0.8092 C.ar    1  UNL1        0.1015
     31 C           4.9297   -0.1761   -0.1394 C.ar    1  UNL1        0.0322
     32 C           6.3021   -0.1661   -0.1886 C.ar    1  UNL1        0.0268
     33 H           6.8416    1.3094   -3.1226 H       1  UNL1        0.0686
     34 H           4.3344    1.3200   -3.0898 H       1  UNL1        0.0640
     35 H           2.1374    0.5326   -1.4953 H       1  UNL1        0.1661
     36 H           0.0235    1.1244   -0.6072 H       1  UNL1        0.0477
     37 H           0.5048    1.5360    1.0628 H       1  UNL1        0.0477
     38 H          -1.6533    1.2307    1.8581 H       1  UNL1        0.0442
     39 H          -1.9636    1.8397    0.2079 H       1  UNL1        0.0442
     40 H          -3.1848   -1.3484   -1.0059 H       1  UNL1        0.0430
     41 H          -1.9276   -0.1633   -1.5499 H       1  UNL1        0.0430
     42 H          -3.4333    1.7102   -1.2107 H       1  UNL1        0.0326
     43 H          -4.1252    0.4661   -2.2736 H       1  UNL1        0.0326
     44 H          -4.4872    1.9063    1.1282 H       1  UNL1        0.0621
     45 H          -6.5917    1.5955    2.4339 H       1  UNL1        0.0647
     46 H          -5.9288   -0.8623   -1.7485 H       1  UNL1        0.0650
     47 H          -1.5512   -1.2566    2.1277 H       1  UNL1        0.0442
     48 H          -2.5301   -2.2251    0.9099 H       1  UNL1        0.0442
     49 H          -0.0673   -2.6070    0.7529 H       1  UNL1        0.0477
     50 H          -0.5937   -1.7973   -0.7467 H       1  UNL1        0.0477
     51 H           3.1898   -2.1210    3.7130 H       1  UNL1        0.1048
     52 H           6.8254   -0.5970    0.6532 H       1  UNL1        0.0692
@<TRIPOS>UNITY_ATOM_ATTR
2 1
charge 1
3 1
charge -1
@<TRIPOS>BOND
     1     1     2    2
     2     2     3    1
     3     2     4    1
     4     4     5   ar
     5     5     6   ar
     6     6     7   ar
     7     7     8   ar
     8     8     9   ar
     9     9    10   ar
    10    10    11    1
    11    11    12    1
    12    12    13    1
    13    13    14    1
    14    14    15    1
    15    15    16    1
    16    16    17    1
    17    17    18   ar
    18    18    19   ar
    19    19    20   ar
    20    20    21    1
    21    20    22   ar
    22    22    23    1
    23    22    24   ar
    24    14    25    1
    25    25    26    1
    26    10    27   ar
    27    27    28   ar
    28    28    29   ar
    29    29    30   ar
    30    30    31   ar
    31    31    32   ar
    32    32     4   ar
    33    31     7   ar
    34    30     9   ar
    35    26    11    1
    36    24    17   ar
    37     5    33    1
    38     6    34    1
    39     8    35    1
    40    12    36    1
    41    12    37    1
    42    13    38    1
    43    13    39    1
    44    15    40    1
    45    15    41    1
    46    16    42    1
    47    16    43    1
    48    18    44    1
    49    19    45    1
    50    24    46    1
    51    25    47    1
    52    25    48    1
    53    26    49    1
    54    26    50    1
    55    28    51    1
    56    32    52    1
