
     RDKit          3D

 56 58  0  0  0  0  0  0  0  0999 V2000
   -1.4002   -2.8788   -3.3407 C   0  0  0  0  0  0  0  0  0  0  0  0
   -0.9121   -1.9094   -2.5994 C   0  0  0  0  0  0  0  0  0  0  0  0
    0.5375   -2.0400   -2.2748 C   0  0  0  0  0  0  0  0  0  0  0  0
   -1.7144   -0.7637   -2.2368 C   0  0  0  0  0  0  0  0  0  0  0  0
   -2.9211   -0.5794   -2.9571 C   0  0  0  0  0  0  0  0  0  0  0  0
   -3.6725    0.4782   -2.6666 N   0  0  0  0  0  0  0  0  0  0  0  0
   -3.3691    1.4049   -1.7233 C   0  0  0  0  0  0  0  0  0  0  0  0
   -4.2846    2.4895   -1.5285 C   0  0  0  0  0  0  0  0  0  0  0  0
   -5.4481    2.5290   -2.3204 C   0  0  0  0  0  0  0  0  0  0  0  0
   -6.3644    3.5425   -2.1783 C   0  0  0  0  0  0  0  0  0  0  0  0
   -7.8162    3.6152   -3.1460 Cl  0  0  0  0  0  0  0  0  0  0  0  0
   -6.1536    4.5336   -1.2567 C   0  0  0  0  0  0  0  0  0  0  0  0
   -5.0250    4.5110   -0.4765 C   0  0  0  0  0  0  0  0  0  0  0  0
   -4.0853    3.4823   -0.6140 C   0  0  0  0  0  0  0  0  0  0  0  0
   -3.0245    3.5699    0.2031 F   0  0  0  0  0  0  0  0  0  0  0  0
   -2.2136    1.2434   -1.0192 C   0  0  0  0  0  0  0  0  0  0  0  0
   -1.3673    0.1362   -1.2768 C   0  0  0  0  0  0  0  0  0  0  0  0
   -0.1806    0.0208   -0.4713 N   0  0  0  0  0  0  0  0  0  0  0  0
   -0.1090   -1.0309    0.4543 C   0  0  0  0  0  0  0  0  0  0  0  0
   -1.2158   -1.8975    0.6074 C   0  0  0  0  0  0  0  0  0  0  0  0
   -1.1928   -2.9339    1.4873 C   0  0  0  0  0  0  0  0  0  0  0  0
   -0.1038   -3.1492    2.2314 N   0  0  0  0  0  0  0  0  0  0  0  0
    0.9651   -2.3367    2.1040 C   0  0  0  0  0  0  0  0  0  0  0  0
    0.9935   -1.2560    1.2131 C   0  0  0  0  0  0  0  0  0  0  0  0
    2.1922   -0.4691    1.1562 C   0  0  0  0  0  0  0  0  0  0  0  0
    2.3373    0.5022    0.3687 O   0  0  0  0  0  0  0  0  0  0  0  0
    3.3580   -0.6811    1.9718 N   0  0  0  0  0  0  0  0  0  0  0  0
    4.5460    0.1220    1.8926 C   0  0  1  0  0  0  0  0  0  0  0  0
    4.9341    0.7895    3.1636 C   0  0  0  0  0  0  0  0  0  0  0  0
    5.2120   -0.1389    4.3124 C   0  0  0  0  0  0  0  0  0  0  0  0
    5.6933   -0.7610    1.4530 C   0  0  0  0  0  0  0  0  0  0  0  0
    5.4429   -1.3361    0.1934 O   0  0  0  0  0  0  0  0  0  0  0  0
   -2.4041   -2.9690   -3.6764 H   0  0  0  0  0  0  0  0  0  0  0  0
   -0.7333   -3.6823   -3.6565 H   0  0  0  0  0  0  0  0  0  0  0  0
    1.0781   -2.4441   -3.1995 H   0  0  0  0  0  0  0  0  0  0  0  0
    1.0193   -1.0697   -2.1161 H   0  0  0  0  0  0  0  0  0  0  0  0
    0.7772   -2.7466   -1.4890 H   0  0  0  0  0  0  0  0  0  0  0  0
   -3.1853   -1.2898   -3.7188 H   0  0  0  0  0  0  0  0  0  0  0  0
   -5.6514    1.7659   -3.0595 H   0  0  0  0  0  0  0  0  0  0  0  0
   -6.8537    5.3491   -1.1162 H   0  0  0  0  0  0  0  0  0  0  0  0
   -4.8823    5.3011    0.2399 H   0  0  0  0  0  0  0  0  0  0  0  0
   -1.8761    1.9043   -0.2596 H   0  0  0  0  0  0  0  0  0  0  0  0
    0.5540    0.7091   -0.6001 H   0  0  0  0  0  0  0  0  0  0  0  0
   -2.0823   -1.7082    0.0089 H   0  0  0  0  0  0  0  0  0  0  0  0
   -2.0394   -3.6116    1.6172 H   0  0  0  0  0  0  0  0  0  0  0  0
    1.7976   -2.5736    2.7328 H   0  0  0  0  0  0  0  0  0  0  0  0
    3.3382   -1.4506    2.6500 H   0  0  0  0  0  0  0  0  0  0  0  0
    4.4652    0.9263    1.1197 H   0  0  0  0  0  0  0  0  0  0  0  0
    4.2458    1.6032    3.4732 H   0  0  0  0  0  0  0  0  0  0  0  0
    5.9082    1.3226    2.9463 H   0  0  0  0  0  0  0  0  0  0  0  0
    4.4818    0.0290    5.1561 H   0  0  0  0  0  0  0  0  0  0  0  0
    5.2120   -1.2074    4.0151 H   0  0  0  0  0  0  0  0  0  0  0  0
    6.2047    0.0580    4.7745 H   0  0  0  0  0  0  0  0  0  0  0  0
    5.8686   -1.6168    2.1348 H   0  0  0  0  0  0  0  0  0  0  0  0
    6.6388   -0.1968    1.3395 H   0  0  0  0  0  0  0  0  0  0  0  0
    4.4803   -1.2105   -0.0423 H   0  0  0  0  0  0  0  0  0  0  0  0
  1  2  2  3
  2  3  1  0
  2  4  1  0
  4  5  2  0
  5  6  1  0
  6  7  2  0
  7  8  1  0
  8  9  2  0
  9 10  1  0
 10 11  1  0
 10 12  2  0
 12 13  1  0
 13 14  2  0
 14 15  1  0
  7 16  1  0
 16 17  2  0
 17 18  1  0
 18 19  1  0
 19 20  2  0
 20 21  1  0
 21 22  2  0
 22 23  1  0
 23 24  2  0
 24 25  1  0
 25 26  2  0
 25 27  1  0
 27 28  1  0
 28 29  1  0
 29 30  1  0
 28 31  1  0
 31 32  1  0
 17  4  1  0
 24 19  1  0
 14  8  1  0
  1 33  1  0
  1 34  1  0
  3 35  1  0
  3 36  1  0
  3 37  1  0
  5 38  1  0
  9 39  1  0
 12 40  1  0
 13 41  1  0
 16 42  1  0
 18 43  1  0
 20 44  1  0
 21 45  1  0
 23 46  1  0
 27 47  1  0
 28 48  1  6
 29 49  1  0
 29 50  1  0
 30 51  1  0
 30 52  1  0
 30 53  1  0
 31 54  1  0
 31 55  1  0
 32 56  1  0
M  END
$$$$
