@<TRIPOS>MOLECULE
*****
 56 58 0 0 0
SMALL
GASTEIGER

@<TRIPOS>ATOM
      1 C          -1.4002   -2.8788   -3.3407 C.2     1  UNL1       -0.0951
      2 C          -0.9121   -1.9094   -2.5994 C.2     1  UNL1       -0.0472
      3 C           0.5375   -2.0400   -2.2748 C.3     1  UNL1       -0.0396
      4 C          -1.7144   -0.7637   -2.2368 C.ar    1  UNL1        0.0166
      5 C          -2.9211   -0.5794   -2.9571 C.ar    1  UNL1        0.0374
      6 N          -3.6725    0.4782   -2.6666 N.ar    1  UNL1       -0.2542
      7 C          -3.3691    1.4049   -1.7233 C.ar    1  UNL1        0.0755
      8 C          -4.2846    2.4895   -1.5285 C.ar    1  UNL1        0.0369
      9 C          -5.4481    2.5290   -2.3204 C.ar    1  UNL1       -0.0314
     10 C          -6.3644    3.5425   -2.1783 C.ar    1  UNL1        0.0418
     11 CL         -7.8162    3.6152   -3.1460 Cl      1  UNL1       -0.0835
     12 C          -6.1536    4.5336   -1.2567 C.ar    1  UNL1       -0.0406
     13 C          -5.0250    4.5110   -0.4765 C.ar    1  UNL1       -0.0244
     14 C          -4.0853    3.4823   -0.6140 C.ar    1  UNL1        0.1326
     15 F          -3.0245    3.5699    0.2031 F       1  UNL1       -0.2048
     16 C          -2.2136    1.2434   -1.0192 C.ar    1  UNL1       -0.0138
     17 C          -1.3673    0.1362   -1.2768 C.ar    1  UNL1        0.0423
     18 N          -0.1806    0.0208   -0.4713 N.pl3   1  UNL1       -0.3133
     19 C          -0.1090   -1.0309    0.4543 C.ar    1  UNL1        0.0465
     20 C          -1.2158   -1.8975    0.6074 C.ar    1  UNL1       -0.0217
     21 C          -1.1928   -2.9339    1.4873 C.ar    1  UNL1        0.0293
     22 N          -0.1038   -3.1492    2.2314 N.ar    1  UNL1       -0.2624
     23 C           0.9651   -2.3367    2.1040 C.ar    1  UNL1        0.0415
     24 C           0.9935   -1.2560    1.2131 C.ar    1  UNL1        0.0758
     25 C           2.1922   -0.4691    1.1562 C.2     1  UNL1        0.2476
     26 O           2.3373    0.5022    0.3687 O.2     1  UNL1       -0.2701
     27 N           3.3580   -0.6811    1.9718 N.am    1  UNL1       -0.3062
     28 CA          4.5460    0.1220    1.8926 C.3     1  UNL1        0.0462
     29 C           4.9341    0.7895    3.1636 C.3     1  UNL1       -0.0352
     30 C           5.2120   -0.1389    4.3124 C.3     1  UNL1       -0.0635
     31 C           5.6933   -0.7610    1.4530 C.3     1  UNL1        0.0626
     32 O           5.4429   -1.3361    0.1934 O.3     1  UNL1       -0.3932
     33 H          -2.4041   -2.9690   -3.6764 H       1  UNL1        0.0538
     34 H          -0.7333   -3.6823   -3.6565 H       1  UNL1        0.0538
     35 H           1.0781   -2.4441   -3.1995 H       1  UNL1        0.0278
     36 H           1.0193   -1.0697   -2.1161 H       1  UNL1        0.0278
     37 H           0.7772   -2.7466   -1.4890 H       1  UNL1        0.0278
     38 H          -3.1853   -1.2898   -3.7188 H       1  UNL1        0.0836
     39 H          -5.6514    1.7659   -3.0595 H       1  UNL1        0.0639
     40 H          -6.8537    5.3491   -1.1162 H       1  UNL1        0.0633
     41 H          -4.8823    5.3011    0.2399 H       1  UNL1        0.0647
     42 H          -1.8761    1.9043   -0.2596 H       1  UNL1        0.0658
     43 H           0.5540    0.7091   -0.6001 H       1  UNL1        0.1522
     44 H          -2.0823   -1.7082    0.0089 H       1  UNL1        0.0651
     45 H          -2.0394   -3.6116    1.6172 H       1  UNL1        0.0830
     46 H           1.7976   -2.5736    2.7328 H       1  UNL1        0.0838
     47 H           3.3382   -1.4506    2.6500 H       1  UNL1        0.1494
     48 HA          4.4652    0.9263    1.1197 H       1  UNL1        0.0521
     49 H           4.2458    1.6032    3.4732 H       1  UNL1        0.0281
     50 H           5.9082    1.3226    2.9463 H       1  UNL1        0.0281
     51 H           4.4818    0.0290    5.1561 H       1  UNL1        0.0230
     52 H           5.2120   -1.2074    4.0151 H       1  UNL1        0.0230
     53 H           6.2047    0.0580    4.7745 H       1  UNL1        0.0230
     54 H1          5.8686   -1.6168    2.1348 H       1  UNL1        0.0575
     55 H2          6.6388   -0.1968    1.3395 H       1  UNL1        0.0575
     56 H           4.4803   -1.2105   -0.0423 H       1  UNL1        0.2095
@<TRIPOS>BOND
     1     1     2    2
     2     2     3    1
     3     2     4    1
     4     4     5   ar
     5     5     6   ar
     6     6     7   ar
     7     7     8    1
     8     8     9   ar
     9     9    10   ar
    10    10    11    1
    11    10    12   ar
    12    12    13   ar
    13    13    14   ar
    14    14    15    1
    15     7    16   ar
    16    16    17   ar
    17    17    18    1
    18    18    19    1
    19    19    20   ar
    20    20    21   ar
    21    21    22   ar
    22    22    23   ar
    23    23    24   ar
    24    24    25    1
    25    25    26    2
    26    25    27   am
    27    27    28    1
    28    28    29    1
    29    29    30    1
    30    28    31    1
    31    31    32    1
    32    17     4   ar
    33    24    19   ar
    34    14     8   ar
    35     1    33    1
    36     1    34    1
    37     3    35    1
    38     3    36    1
    39     3    37    1
    40     5    38    1
    41     9    39    1
    42    12    40    1
    43    13    41    1
    44    16    42    1
    45    18    43    1
    46    20    44    1
    47    21    45    1
    48    23    46    1
    49    27    47    1
    50    28    48    1
    51    29    49    1
    52    29    50    1
    53    30    51    1
    54    30    52    1
    55    30    53    1
    56    31    54    1
    57    31    55    1
    58    32    56    1
