@<TRIPOS>MOLECULE
*****
 81 86 0 0 0
SMALL
GASTEIGER

@<TRIPOS>ATOM
      1 C          -8.4413    0.9719   -1.6551 C.3     1  UNL1       -0.0127
      2 N          -7.1593    0.7657   -1.0264 N.3     1  UNL1       -0.3040
      3 C          -6.6939   -0.5548   -0.9482 C.3     1  UNL1        0.0078
      4 C          -6.4716   -1.1545    0.3849 C.3     1  UNL1        0.0229
      5 C          -6.8300   -2.6152    0.3606 C.3     1  UNL1       -0.0546
      6 C          -5.0483   -1.0282    0.9109 C.3     1  UNL1        0.0239
      7 N          -4.7216    0.3255    1.2028 N.am    1  UNL1       -0.2962
      8 C          -3.5992    1.0362    0.7998 C.2     1  UNL1        0.2481
      9 O          -3.5429    2.3101    1.1594 O.2     1  UNL1       -0.2699
     10 C          -2.4653    0.6149    0.0478 C.ar    1  UNL1        0.0551
     11 C          -1.2204    1.0281    0.5175 C.ar    1  UNL1       -0.0449
     12 C          -0.0720    0.6985   -0.1601 C.ar    1  UNL1       -0.0208
     13 C          -0.1125   -0.0494   -1.3222 C.ar    1  UNL1        0.1250
     14 N           1.0535   -0.3203   -2.0643 N.pl3   1  UNL1       -0.2685
     15 C           2.3169    0.2439   -1.7498 C.ar    1  UNL1        0.2224
     16 N           2.3787    1.6133   -1.7871 N.ar    1  UNL1       -0.2219
     17 C           3.4872    2.3074   -1.5563 C.ar    1  UNL1        0.0419
     18 C           4.6433    1.5811   -1.2608 C.ar    1  UNL1        0.0378
     19 C           5.9321    2.0002   -0.9942 C.ar    1  UNL1       -0.0209
     20 C           6.6896    0.8326   -0.7834 C.ar    1  UNL1        0.1070
     21 C           8.1047    0.8852   -0.4906 C.2     1  UNL1        0.2627
     22 O           9.0265    0.4178   -1.1868 O.2     1  UNL1       -0.2684
     23 N           8.5011    1.5456    0.7228 N.am    1  UNL1       -0.3024
     24 C           9.9018    1.6493    1.1002 C.3     1  UNL1        0.0032
     25 C           7.4884    2.1358    1.5792 C.3     1  UNL1        0.0032
     26 N           5.8894   -0.2196   -0.9162 N.ar    1  UNL1       -0.3180
     27 C           6.1703   -1.5850   -0.7778 C.3     1  UNL1        0.0366
     28 C           6.3664   -2.0877    0.6459 C.3     1  UNL1       -0.0320
     29 C           6.6358   -3.5638    0.3800 C.3     1  UNL1       -0.0511
     30 C           7.0438   -3.6856   -1.0832 C.3     1  UNL1       -0.0511
     31 C           7.3570   -2.1917   -1.4321 C.3     1  UNL1       -0.0320
     32 C           4.6147    0.2280   -1.2136 C.ar    1  UNL1        0.1466
     33 N           3.4390   -0.4068   -1.4626 N.ar    1  UNL1       -0.1962
     34 N          -1.3163   -0.4253   -1.7366 N.ar    1  UNL1       -0.2394
     35 C          -2.4916   -0.1184   -1.0940 C.ar    1  UNL1        0.0418
     36 C          -5.6759    1.0864    2.0912 C.3     1  UNL1        0.0239
     37 C          -7.0189    0.9769    1.4174 C.3     1  UNL1        0.0229
     38 C          -8.0630    1.6855    2.2902 C.3     1  UNL1       -0.0546
     39 C          -6.9058    1.6271    0.0780 C.3     1  UNL1        0.0078
     40 C          -7.4054   -0.4608    1.3725 C.3     1  UNL1        0.0711
     41 O          -7.0894   -0.9999    2.6391 O.3     1  UNL1       -0.3905
     42 H          -8.9829    0.0598   -1.8974 H       1  UNL1        0.0391
     43 H          -9.0149    1.6599   -0.9602 H       1  UNL1        0.0391
     44 H          -8.2750    1.5951   -2.5585 H       1  UNL1        0.0391
     45 H          -5.7583   -0.7036   -1.5499 H       1  UNL1        0.0433
     46 H          -7.4489   -1.2014   -1.4941 H       1  UNL1        0.0433
     47 H          -5.9690   -3.2967    0.3355 H       1  UNL1        0.0237
     48 H          -7.4518   -2.9149    1.2487 H       1  UNL1        0.0237
     49 H          -7.4452   -2.8747   -0.5324 H       1  UNL1        0.0237
     50 H          -4.3748   -1.4819    0.2031 H       1  UNL1        0.0471
     51 H          -5.0141   -1.6458    1.8463 H       1  UNL1        0.0471
     52 H          -1.2099    1.6164    1.4256 H       1  UNL1        0.0627
     53 H           0.9026    1.0154    0.2075 H       1  UNL1        0.0652
     54 H           0.9711   -0.9766   -2.8947 H       1  UNL1        0.1564
     55 H           3.5197    3.3804   -1.5847 H       1  UNL1        0.0838
     56 H           6.2869    3.0278   -0.9524 H       1  UNL1        0.0647
     57 H           9.9664    1.9094    2.1646 H       1  UNL1        0.0428
     58 H          10.3907    0.6889    0.8996 H       1  UNL1        0.0428
     59 H          10.3815    2.4324    0.4928 H       1  UNL1        0.0428
     60 H           6.5242    1.6227    1.5299 H       1  UNL1        0.0428
     61 H           7.8892    2.0920    2.6146 H       1  UNL1        0.0428
     62 H           7.3296    3.2130    1.3081 H       1  UNL1        0.0428
     63 H           5.2882   -2.2023   -1.1491 H       1  UNL1        0.0528
     64 H           7.3135   -1.6636    1.0146 H       1  UNL1        0.0285
     65 H           5.5093   -1.8995    1.2837 H       1  UNL1        0.0285
     66 H           7.3984   -3.9291    1.0803 H       1  UNL1        0.0266
     67 H           5.7098   -4.1178    0.5411 H       1  UNL1        0.0266
     68 H           6.2012   -4.0433   -1.6684 H       1  UNL1        0.0266
     69 H           7.9777   -4.2593   -1.2117 H       1  UNL1        0.0266
     70 H           8.3250   -2.0693   -0.8680 H       1  UNL1        0.0285
     71 H           7.4258   -2.0489   -2.5022 H       1  UNL1        0.0285
     72 H          -3.4079   -0.4582   -1.5306 H       1  UNL1        0.0838
     73 H          -5.3748    2.1303    2.1226 H       1  UNL1        0.0471
     74 H          -5.6617    0.5807    3.0868 H       1  UNL1        0.0471
     75 H          -8.1614    1.0815    3.2004 H       1  UNL1        0.0237
     76 H          -9.0149    1.6470    1.7402 H       1  UNL1        0.0237
     77 H          -7.7140    2.7255    2.4929 H       1  UNL1        0.0237
     78 H          -7.6635    2.4535    0.0447 H       1  UNL1        0.0433
     79 H          -5.9325    2.1256   -0.1080 H       1  UNL1        0.0433
     80 H          -8.4533   -0.6470    1.1109 H       1  UNL1        0.0606
     81 H          -7.6774   -1.7233    2.9047 H       1  UNL1        0.2098
@<TRIPOS>BOND
     1     1     2    1
     2     2     3    1
     3     3     4    1
     4     4     5    1
     5     4     6    1
     6     6     7    1
     7     7     8   am
     8     8     9    2
     9     8    10    1
    10    10    11   ar
    11    11    12   ar
    12    12    13   ar
    13    13    14    1
    14    14    15    1
    15    15    16   ar
    16    16    17   ar
    17    17    18   ar
    18    18    19   ar
    19    19    20   ar
    20    20    21    1
    21    21    22    2
    22    21    23   am
    23    23    24    1
    24    23    25    1
    25    20    26   ar
    26    26    27    1
    27    27    28    1
    28    28    29    1
    29    29    30    1
    30    30    31    1
    31    26    32   ar
    32    32    33   ar
    33    13    34   ar
    34    34    35   ar
    35     7    36    1
    36    36    37    1
    37    37    38    1
    38    37    39    1
    39    37    40    1
    40    40    41    1
    41    39     2    1
    42    40     4    1
    43    35    10   ar
    44    33    15   ar
    45    32    18   ar
    46    31    27    1
    47     1    42    1
    48     1    43    1
    49     1    44    1
    50     3    45    1
    51     3    46    1
    52     5    47    1
    53     5    48    1
    54     5    49    1
    55     6    50    1
    56     6    51    1
    57    11    52    1
    58    12    53    1
    59    14    54    1
    60    17    55    1
    61    19    56    1
    62    24    57    1
    63    24    58    1
    64    24    59    1
    65    25    60    1
    66    25    61    1
    67    25    62    1
    68    27    63    1
    69    28    64    1
    70    28    65    1
    71    29    66    1
    72    29    67    1
    73    30    68    1
    74    30    69    1
    75    31    70    1
    76    31    71    1
    77    35    72    1
    78    36    73    1
    79    36    74    1
    80    38    75    1
    81    38    76    1
    82    38    77    1
    83    39    78    1
    84    39    79    1
    85    40    80    1
    86    41    81    1
