
     RDKit          3D

 27 28  0  0  0  0  0  0  0  0999 V2000
   -5.4277    0.4308    0.0906 N   0  0  0  0  0  0  0  0  0  0  0  0
   -4.0345    0.3353   -0.0805 C   0  0  0  0  0  0  0  0  0  0  0  0
   -3.2314    1.1896    0.5786 N   0  0  0  0  0  0  0  0  0  0  0  0
   -1.8856    1.0846    0.4026 C   0  0  0  0  0  0  0  0  0  0  0  0
   -1.0921    2.0169    1.1274 N   0  0  0  0  0  0  0  0  0  0  0  0
   -1.3972    0.1196   -0.4337 C   0  0  0  0  0  0  0  0  0  0  0  0
   -2.2147   -0.7627   -1.1152 C   0  0  0  0  0  0  0  0  0  0  0  0
   -3.5884   -0.6552   -0.9353 C   0  0  0  0  0  0  0  0  0  0  0  0
    0.0243    0.1071   -0.5376 N   0  0  0  0  0  0  0  0  0  0  0  0
    0.7941   -0.6040    0.1287 N   0  0  0  0  0  0  0  0  0  0  0  0
    2.2147   -0.6279    0.0365 C   0  0  0  0  0  0  0  0  0  0  0  0
    2.9769   -1.6375   -0.5657 C   0  0  0  0  0  0  0  0  0  0  0  0
    4.3509   -1.5153   -0.5743 C   0  0  0  0  0  0  0  0  0  0  0  0
    5.0396   -0.4596   -0.0271 C   0  0  0  0  0  0  0  0  0  0  0  0
    4.2926    0.5541    0.5766 C   0  0  0  0  0  0  0  0  0  0  0  0
    2.9253    0.4261    0.5816 C   0  0  0  0  0  0  0  0  0  0  0  0
   -6.2643    0.3776   -0.5279 H   0  0  0  0  0  0  0  0  0  0  0  0
   -6.1865    0.5759    0.7921 H   0  0  0  0  0  0  0  0  0  0  0  0
   -0.8632    2.6664    0.3416 H   0  0  0  0  0  0  0  0  0  0  0  0
   -1.0437    1.7047    2.1358 H   0  0  0  0  0  0  0  0  0  0  0  0
   -1.7622   -1.4992   -1.7587 H   0  0  0  0  0  0  0  0  0  0  0  0
   -4.2445   -1.3333   -1.4572 H   0  0  0  0  0  0  0  0  0  0  0  0
    2.4258   -2.4527   -0.9872 H   0  0  0  0  0  0  0  0  0  0  0  0
    4.9413   -2.3007   -1.0427 H   0  0  0  0  0  0  0  0  0  0  0  0
    6.1157   -0.3869   -0.0465 H   0  0  0  0  0  0  0  0  0  0  0  0
    4.7714    1.4139    1.0269 H   0  0  0  0  0  0  0  0  0  0  0  0
    2.3635    1.2324    1.0599 H   0  0  0  0  0  0  0  0  0  0  0  0
  1  2  1  0
  2  3  2  0
  3  4  1  0
  4  5  1  0
  4  6  2  0
  6  7  1  0
  7  8  2  0
  6  9  1  0
  9 10  2  0
 10 11  1  0
 11 12  2  0
 12 13  1  0
 13 14  2  0
 14 15  1  0
 15 16  2  0
  8  2  1  0
 16 11  1  0
  1 17  1  0
  1 18  1  0
  5 19  1  0
  5 20  1  0
  7 21  1  0
  8 22  1  0
 12 23  1  0
 13 24  1  0
 14 25  1  0
 15 26  1  0
 16 27  1  0
M  END
$$$$
