@<TRIPOS>MOLECULE
*****
 27 28 0 0 0
SMALL
GASTEIGER

@<TRIPOS>ATOM
      1 N          -5.4277    0.4308    0.0906 N.pl3   1  UNL1       -0.3431
      2 C          -4.0345    0.3353   -0.0805 C.ar    1  UNL1        0.1184
      3 N          -3.2314    1.1896    0.5786 N.ar    1  UNL1       -0.2160
      4 C          -1.8856    1.0846    0.4026 C.ar    1  UNL1        0.1456
      5 N          -1.0921    2.0169    1.1274 N.pl3   1  UNL1       -0.3414
      6 C          -1.3972    0.1196   -0.4337 C.ar    1  UNL1        0.1256
      7 C          -2.2147   -0.7627   -1.1152 C.ar    1  UNL1       -0.0279
      8 C          -3.5884   -0.6552   -0.9353 C.ar    1  UNL1       -0.0199
      9 N           0.0243    0.1071   -0.5376 N.2     1  UNL1       -0.1458
     10 N           0.7941   -0.6040    0.1287 N.2     1  UNL1       -0.1492
     11 C           2.2147   -0.6279    0.0365 C.ar    1  UNL1        0.0862
     12 C           2.9769   -1.6375   -0.5657 C.ar    1  UNL1       -0.0345
     13 C           4.3509   -1.5153   -0.5743 C.ar    1  UNL1       -0.0597
     14 C           5.0396   -0.4596   -0.0271 C.ar    1  UNL1       -0.0616
     15 C           4.2926    0.5541    0.5766 C.ar    1  UNL1       -0.0597
     16 C           2.9253    0.4261    0.5816 C.ar    1  UNL1       -0.0345
     17 H          -6.2643    0.3776   -0.5279 H       1  UNL1        0.1437
     18 H          -6.1865    0.5759    0.7921 H       1  UNL1        0.1437
     19 H          -0.8632    2.6664    0.3416 H       1  UNL1        0.1438
     20 H          -1.0437    1.7047    2.1358 H       1  UNL1        0.1438
     21 H          -1.7622   -1.4992   -1.7587 H       1  UNL1        0.0641
     22 H          -4.2445   -1.3333   -1.4572 H       1  UNL1        0.0652
     23 H           2.4258   -2.4527   -0.9872 H       1  UNL1        0.0639
     24 H           4.9413   -2.3007   -1.0427 H       1  UNL1        0.0618
     25 H           6.1157   -0.3869   -0.0465 H       1  UNL1        0.0618
     26 H           4.7714    1.4139    1.0269 H       1  UNL1        0.0618
     27 H           2.3635    1.2324    1.0599 H       1  UNL1        0.0639
@<TRIPOS>BOND
     1     1     2    1
     2     2     3   ar
     3     3     4   ar
     4     4     5    1
     5     4     6   ar
     6     6     7   ar
     7     7     8   ar
     8     6     9    1
     9     9    10    2
    10    10    11    1
    11    11    12   ar
    12    12    13   ar
    13    13    14   ar
    14    14    15   ar
    15    15    16   ar
    16     8     2   ar
    17    16    11   ar
    18     1    17    1
    19     1    18    1
    20     5    19    1
    21     5    20    1
    22     7    21    1
    23     8    22    1
    24    12    23    1
    25    13    24    1
    26    14    25    1
    27    15    26    1
    28    16    27    1
