@<TRIPOS>MOLECULE
*****
 70 73 0 0 0
SMALL
GASTEIGER

@<TRIPOS>ATOM
      1 C          -6.0033    1.6882   -2.2985 C.3     1  UNL1       -0.0652
      2 C          -6.6548    2.9292   -1.8082 C.3     1  UNL1       -0.0545
      3 C          -6.2143    3.4073   -0.4655 C.3     1  UNL1       -0.0376
      4 C          -6.5078    2.4532    0.6196 C.3     1  UNL1        0.0118
      5 N          -5.8458    1.2094    0.4808 N.pl3   1  UNL1       -0.3134
      6 C          -4.4084    1.0689    0.4488 C.ar    1  UNL1        0.2169
      7 N          -3.6326    2.1600    0.5624 N.ar    1  UNL1       -0.2221
      8 C          -2.3008    2.0874    0.5393 C.ar    1  UNL1        0.0466
      9 C          -1.7089    0.8264    0.3911 C.ar    1  UNL1        0.0948
     10 C          -0.2537    0.7471    0.3676 C.2     1  UNL1        0.2530
     11 O           0.3404   -0.3509    0.2426 O.2     1  UNL1       -0.2697
     12 N           0.6081    1.8793    0.4811 N.am    1  UNL1       -0.2814
     13 C           2.0361    1.7334    0.4510 C.ar    1  UNL1        0.0338
     14 C           2.7082    1.7902   -0.7529 C.ar    1  UNL1       -0.0386
     15 C           4.1057    1.6476   -0.7797 C.ar    1  UNL1       -0.0336
     16 C           4.7824    1.4535    0.3935 C.ar    1  UNL1        0.1056
     17 S           6.5058    1.2734    0.3918 S.O2    1  UNL1        0.0610
     18 O           7.0897    1.9706   -0.8165 O.2     1  UNL1       -0.1528
     19 O           7.1402    1.8552    1.5983 O.2     1  UNL1       -0.1528
     20 N           6.8606   -0.4242    0.2406 N.3     1  UNL1       -0.1722
     21 C           6.3586   -0.9610   -0.9841 C.3     1  UNL1        0.0440
     22 C           7.3038   -0.7881   -2.1522 C.3     1  UNL1        0.0621
     23 O           8.5317   -1.3334   -1.8130 O.3     1  UNL1       -0.3771
     24 C           9.1058   -0.6704   -0.7435 C.3     1  UNL1        0.0621
     25 C           8.2475   -0.6949    0.4828 C.3     1  UNL1        0.0440
     26 C           4.0974    1.4001    1.5776 C.ar    1  UNL1       -0.0336
     27 C           2.7105    1.5387    1.6327 C.ar    1  UNL1       -0.0386
     28 C          -2.4890   -0.2965    0.2740 C.ar    1  UNL1        0.1363
     29 N          -1.9774   -1.6179    0.1189 N.pl3   1  UNL1       -0.3253
     30 C          -2.9715   -2.6901    0.0103 C.3     1  UNL1        0.0261
     31 C          -3.7844   -2.6639    1.2813 C.3     1  UNL1       -0.0109
     32 C          -4.0901   -4.0518    1.7867 C.3     1  UNL1        0.0493
     33 O          -2.9686   -4.7814    2.0910 O.3     1  UNL1       -0.3796
     34 C          -1.9310   -4.6388    1.2110 C.3     1  UNL1        0.0493
     35 C          -2.2982   -4.0115   -0.0986 C.3     1  UNL1       -0.0109
     36 N          -3.8448   -0.1132    0.3099 N.ar    1  UNL1       -0.1990
     37 H          -6.2996    1.5902   -3.4021 H       1  UNL1        0.0230
     38 H          -6.4135    0.7923   -1.8403 H       1  UNL1        0.0230
     39 H          -4.8947    1.7725   -2.2494 H       1  UNL1        0.0230
     40 H          -7.7731    2.7792   -1.7714 H       1  UNL1        0.0263
     41 H          -6.5053    3.7125   -2.5985 H       1  UNL1        0.0263
     42 H          -6.7823    4.3826   -0.2944 H       1  UNL1        0.0280
     43 H          -5.1183    3.6827   -0.4807 H       1  UNL1        0.0280
     44 H          -6.2372    2.9078    1.6111 H       1  UNL1        0.0462
     45 H          -7.6097    2.2407    0.7019 H       1  UNL1        0.0462
     46 H          -6.3874    0.3109    0.4116 H       1  UNL1        0.1489
     47 H          -1.6891    2.9993    0.6346 H       1  UNL1        0.0839
     48 H           0.2187    2.8131    0.5860 H       1  UNL1        0.1551
     49 H           2.1449    1.9448   -1.6637 H       1  UNL1        0.0637
     50 H           4.5968    1.6996   -1.7531 H       1  UNL1        0.0638
     51 H           6.2202   -2.0524   -0.8445 H       1  UNL1        0.0466
     52 H           5.3730   -0.4981   -1.1940 H       1  UNL1        0.0466
     53 H           6.8989   -1.4316   -2.9855 H       1  UNL1        0.0573
     54 H           7.3512    0.2340   -2.5377 H       1  UNL1        0.0573
     55 H           9.3623    0.4008   -0.9894 H       1  UNL1        0.0573
     56 H          10.0620   -1.1829   -0.5134 H       1  UNL1        0.0573
     57 H           8.3791   -1.6349    1.0566 H       1  UNL1        0.0466
     58 H           8.6253    0.1334    1.1516 H       1  UNL1        0.0466
     59 H           4.6436    1.2460    2.4998 H       1  UNL1        0.0638
     60 H           2.1510    1.5001    2.5515 H       1  UNL1        0.0637
     61 H          -1.0045   -1.9054    0.0741 H       1  UNL1        0.1478
     62 H          -3.5740   -2.5156   -0.8863 H       1  UNL1        0.0499
     63 H          -4.7566   -2.1862    1.0445 H       1  UNL1        0.0305
     64 H          -3.3083   -2.0521    2.0753 H       1  UNL1        0.0305
     65 H          -4.7682   -4.5628    1.0620 H       1  UNL1        0.0560
     66 H          -4.6858   -3.9307    2.7214 H       1  UNL1        0.0560
     67 H          -1.4985   -5.6459    0.9757 H       1  UNL1        0.0560
     68 H          -1.1545   -4.0024    1.6846 H       1  UNL1        0.0560
     69 H          -2.8779   -4.7210   -0.7583 H       1  UNL1        0.0305
     70 H          -1.3359   -3.8517   -0.6590 H       1  UNL1        0.0305
@<TRIPOS>BOND
     1     1     2    1
     2     2     3    1
     3     3     4    1
     4     4     5    1
     5     5     6    1
     6     6     7   ar
     7     7     8   ar
     8     8     9   ar
     9     9    10    1
    10    10    11    2
    11    10    12   am
    12    12    13    1
    13    13    14   ar
    14    14    15   ar
    15    15    16   ar
    16    16    17    1
    17    17    18    2
    18    17    19    2
    19    17    20    1
    20    20    21    1
    21    21    22    1
    22    22    23    1
    23    23    24    1
    24    24    25    1
    25    16    26   ar
    26    26    27   ar
    27     9    28   ar
    28    28    29    1
    29    29    30    1
    30    30    31    1
    31    31    32    1
    32    32    33    1
    33    33    34    1
    34    34    35    1
    35    28    36   ar
    36    36     6   ar
    37    27    13   ar
    38    35    30    1
    39    25    20    1
    40     1    37    1
    41     1    38    1
    42     1    39    1
    43     2    40    1
    44     2    41    1
    45     3    42    1
    46     3    43    1
    47     4    44    1
    48     4    45    1
    49     5    46    1
    50     8    47    1
    51    12    48    1
    52    14    49    1
    53    15    50    1
    54    21    51    1
    55    21    52    1
    56    22    53    1
    57    22    54    1
    58    24    55    1
    59    24    56    1
    60    25    57    1
    61    25    58    1
    62    26    59    1
    63    27    60    1
    64    29    61    1
    65    30    62    1
    66    31    63    1
    67    31    64    1
    68    32    65    1
    69    32    66    1
    70    34    67    1
    71    34    68    1
    72    35    69    1
    73    35    70    1
