
     RDKit          3D

 70 73  0  0  0  0  0  0  0  0999 V2000
   -6.0033    1.6882   -2.2985 C   0  0  0  0  0  0  0  0  0  0  0  0
   -6.6548    2.9292   -1.8082 C   0  0  0  0  0  0  0  0  0  0  0  0
   -6.2143    3.4073   -0.4655 C   0  0  0  0  0  0  0  0  0  0  0  0
   -6.5078    2.4532    0.6196 C   0  0  0  0  0  0  0  0  0  0  0  0
   -5.8458    1.2094    0.4808 N   0  0  0  0  0  0  0  0  0  0  0  0
   -4.4084    1.0689    0.4488 C   0  0  0  0  0  0  0  0  0  0  0  0
   -3.6326    2.1600    0.5624 N   0  0  0  0  0  0  0  0  0  0  0  0
   -2.3008    2.0874    0.5393 C   0  0  0  0  0  0  0  0  0  0  0  0
   -1.7089    0.8264    0.3911 C   0  0  0  0  0  0  0  0  0  0  0  0
   -0.2537    0.7471    0.3676 C   0  0  0  0  0  0  0  0  0  0  0  0
    0.3404   -0.3509    0.2426 O   0  0  0  0  0  0  0  0  0  0  0  0
    0.6081    1.8793    0.4811 N   0  0  0  0  0  0  0  0  0  0  0  0
    2.0361    1.7334    0.4510 C   0  0  0  0  0  0  0  0  0  0  0  0
    2.7082    1.7902   -0.7529 C   0  0  0  0  0  0  0  0  0  0  0  0
    4.1057    1.6476   -0.7797 C   0  0  0  0  0  0  0  0  0  0  0  0
    4.7824    1.4535    0.3935 C   0  0  0  0  0  0  0  0  0  0  0  0
    6.5058    1.2734    0.3918 S   0  0  0  0  0  6  0  0  0  0  0  0
    7.0897    1.9706   -0.8165 O   0  0  0  0  0  0  0  0  0  0  0  0
    7.1402    1.8552    1.5983 O   0  0  0  0  0  0  0  0  0  0  0  0
    6.8606   -0.4242    0.2406 N   0  0  0  0  0  0  0  0  0  0  0  0
    6.3586   -0.9610   -0.9841 C   0  0  0  0  0  0  0  0  0  0  0  0
    7.3038   -0.7881   -2.1522 C   0  0  0  0  0  0  0  0  0  0  0  0
    8.5317   -1.3334   -1.8130 O   0  0  0  0  0  0  0  0  0  0  0  0
    9.1058   -0.6704   -0.7435 C   0  0  0  0  0  0  0  0  0  0  0  0
    8.2475   -0.6949    0.4828 C   0  0  0  0  0  0  0  0  0  0  0  0
    4.0974    1.4001    1.5776 C   0  0  0  0  0  0  0  0  0  0  0  0
    2.7105    1.5387    1.6327 C   0  0  0  0  0  0  0  0  0  0  0  0
   -2.4890   -0.2965    0.2740 C   0  0  0  0  0  0  0  0  0  0  0  0
   -1.9774   -1.6179    0.1189 N   0  0  0  0  0  0  0  0  0  0  0  0
   -2.9715   -2.6901    0.0103 C   0  0  0  0  0  0  0  0  0  0  0  0
   -3.7844   -2.6639    1.2813 C   0  0  0  0  0  0  0  0  0  0  0  0
   -4.0901   -4.0518    1.7867 C   0  0  0  0  0  0  0  0  0  0  0  0
   -2.9686   -4.7814    2.0910 O   0  0  0  0  0  0  0  0  0  0  0  0
   -1.9310   -4.6388    1.2110 C   0  0  0  0  0  0  0  0  0  0  0  0
   -2.2982   -4.0115   -0.0986 C   0  0  0  0  0  0  0  0  0  0  0  0
   -3.8448   -0.1132    0.3099 N   0  0  0  0  0  0  0  0  0  0  0  0
   -6.2996    1.5902   -3.4021 H   0  0  0  0  0  0  0  0  0  0  0  0
   -6.4135    0.7923   -1.8403 H   0  0  0  0  0  0  0  0  0  0  0  0
   -4.8947    1.7725   -2.2494 H   0  0  0  0  0  0  0  0  0  0  0  0
   -7.7731    2.7792   -1.7714 H   0  0  0  0  0  0  0  0  0  0  0  0
   -6.5053    3.7125   -2.5985 H   0  0  0  0  0  0  0  0  0  0  0  0
   -6.7823    4.3826   -0.2944 H   0  0  0  0  0  0  0  0  0  0  0  0
   -5.1183    3.6827   -0.4807 H   0  0  0  0  0  0  0  0  0  0  0  0
   -6.2372    2.9078    1.6111 H   0  0  0  0  0  0  0  0  0  0  0  0
   -7.6097    2.2407    0.7019 H   0  0  0  0  0  0  0  0  0  0  0  0
   -6.3874    0.3109    0.4116 H   0  0  0  0  0  0  0  0  0  0  0  0
   -1.6891    2.9993    0.6346 H   0  0  0  0  0  0  0  0  0  0  0  0
    0.2187    2.8131    0.5860 H   0  0  0  0  0  0  0  0  0  0  0  0
    2.1449    1.9448   -1.6637 H   0  0  0  0  0  0  0  0  0  0  0  0
    4.5968    1.6996   -1.7531 H   0  0  0  0  0  0  0  0  0  0  0  0
    6.2202   -2.0524   -0.8445 H   0  0  0  0  0  0  0  0  0  0  0  0
    5.3730   -0.4981   -1.1940 H   0  0  0  0  0  0  0  0  0  0  0  0
    6.8989   -1.4316   -2.9855 H   0  0  0  0  0  0  0  0  0  0  0  0
    7.3512    0.2340   -2.5377 H   0  0  0  0  0  0  0  0  0  0  0  0
    9.3623    0.4008   -0.9894 H   0  0  0  0  0  0  0  0  0  0  0  0
   10.0620   -1.1829   -0.5134 H   0  0  0  0  0  0  0  0  0  0  0  0
    8.3791   -1.6349    1.0566 H   0  0  0  0  0  0  0  0  0  0  0  0
    8.6253    0.1334    1.1516 H   0  0  0  0  0  0  0  0  0  0  0  0
    4.6436    1.2460    2.4998 H   0  0  0  0  0  0  0  0  0  0  0  0
    2.1510    1.5001    2.5515 H   0  0  0  0  0  0  0  0  0  0  0  0
   -1.0045   -1.9054    0.0741 H   0  0  0  0  0  0  0  0  0  0  0  0
   -3.5740   -2.5156   -0.8863 H   0  0  0  0  0  0  0  0  0  0  0  0
   -4.7566   -2.1862    1.0445 H   0  0  0  0  0  0  0  0  0  0  0  0
   -3.3083   -2.0521    2.0753 H   0  0  0  0  0  0  0  0  0  0  0  0
   -4.7682   -4.5628    1.0620 H   0  0  0  0  0  0  0  0  0  0  0  0
   -4.6858   -3.9307    2.7214 H   0  0  0  0  0  0  0  0  0  0  0  0
   -1.4985   -5.6459    0.9757 H   0  0  0  0  0  0  0  0  0  0  0  0
   -1.1545   -4.0024    1.6846 H   0  0  0  0  0  0  0  0  0  0  0  0
   -2.8779   -4.7210   -0.7583 H   0  0  0  0  0  0  0  0  0  0  0  0
   -1.3359   -3.8517   -0.6590 H   0  0  0  0  0  0  0  0  0  0  0  0
  1  2  1  0
  2  3  1  0
  3  4  1  0
  4  5  1  0
  5  6  1  0
  6  7  2  0
  7  8  1  0
  8  9  2  0
  9 10  1  0
 10 11  2  0
 10 12  1  0
 12 13  1  0
 13 14  2  0
 14 15  1  0
 15 16  2  0
 16 17  1  0
 17 18  2  0
 17 19  2  0
 17 20  1  0
 20 21  1  0
 21 22  1  0
 22 23  1  0
 23 24  1  0
 24 25  1  0
 16 26  1  0
 26 27  2  0
  9 28  1  0
 28 29  1  0
 29 30  1  0
 30 31  1  0
 31 32  1  0
 32 33  1  0
 33 34  1  0
 34 35  1  0
 28 36  2  0
 36  6  1  0
 27 13  1  0
 35 30  1  0
 25 20  1  0
  1 37  1  0
  1 38  1  0
  1 39  1  0
  2 40  1  0
  2 41  1  0
  3 42  1  0
  3 43  1  0
  4 44  1  0
  4 45  1  0
  5 46  1  0
  8 47  1  0
 12 48  1  0
 14 49  1  0
 15 50  1  0
 21 51  1  0
 21 52  1  0
 22 53  1  0
 22 54  1  0
 24 55  1  0
 24 56  1  0
 25 57  1  0
 25 58  1  0
 26 59  1  0
 27 60  1  0
 29 61  1  0
 30 62  1  0
 31 63  1  0
 31 64  1  0
 32 65  1  0
 32 66  1  0
 34 67  1  0
 34 68  1  0
 35 69  1  0
 35 70  1  0
M  END
$$$$
