@<TRIPOS>MOLECULE
*****
 61 63 0 0 0
SMALL
GASTEIGER

@<TRIPOS>ATOM
      1 C           0.0935   -2.7717    0.2485 C.3     1  UNL1       -0.0461
      2 C          -0.6665   -1.5418   -0.3012 C.3     1  UNL1        0.0275
      3 N           0.3852   -0.5206   -0.3992 N.am    1  UNL1       -0.3089
      4 C           0.6436    0.1955   -1.5488 C.2     1  UNL1        0.2566
      5 O          -0.0122    0.0190   -2.6198 O.2     1  UNL1       -0.2714
      6 C           1.7105    1.2446   -1.6426 C.3     1  UNL1        0.1816
      7 C           2.6817    0.8742   -2.7403 C.3     1  UNL1       -0.0164
      8 C           1.1030    2.5883   -1.9857 C.3     1  UNL1       -0.0164
      9 O           2.4067    1.2592   -0.4266 O.3     1  UNL1       -0.4609
     10 C           3.4428    2.0947   -0.0872 C.ar    1  UNL1        0.2156
     11 C           4.0159    1.9234    1.1924 C.ar    1  UNL1        0.0005
     12 C           5.0584    2.7583    1.5592 C.ar    1  UNL1       -0.0436
     13 C           5.5553    3.7408    0.7374 C.ar    1  UNL1        0.0731
     14 C           6.6742    4.6505    1.1547 C.3     1  UNL1        0.4188
     15 F           6.9903    4.3316    2.4576 F       1  UNL1       -0.1658
     16 F           6.2060    5.9661    1.1677 F       1  UNL1       -0.1658
     17 F           7.7719    4.5204    0.3522 F       1  UNL1       -0.1658
     18 C           4.9656    3.8708   -0.5046 C.ar    1  UNL1        0.0430
     19 N           3.9434    3.0443   -0.8523 N.ar    1  UNL1       -0.2207
     20 C          -1.6213   -1.1557    0.7842 C.3     1  UNL1        0.0063
     21 C          -2.5445   -0.0143    0.5090 C.3     1  UNL1       -0.0192
     22 C          -3.4183   -0.1297   -0.6552 C.ar    1  UNL1       -0.0466
     23 C          -4.5486   -0.9089   -0.6471 C.ar    1  UNL1       -0.0572
     24 C          -5.3532   -0.9264   -1.8229 C.ar    1  UNL1       -0.0431
     25 C          -5.0245   -0.2079   -2.9082 C.ar    1  UNL1        0.0410
     26 CL         -6.0797   -0.2642   -4.3567 Cl      1  UNL1       -0.0835
     27 C          -3.8980    0.5858   -2.9510 C.ar    1  UNL1       -0.0431
     28 C          -3.1192    0.5888   -1.7748 C.ar    1  UNL1       -0.0572
     29 C          -2.0710   -2.2039    1.6522 C.ar    1  UNL1       -0.0410
     30 C          -2.0907   -1.9414    3.0522 C.ar    1  UNL1       -0.0582
     31 C          -2.4600   -2.8631    3.9530 C.ar    1  UNL1       -0.0603
     32 C          -2.8573   -4.1661    3.6355 C.ar    1  UNL1       -0.0443
     33 C          -2.8324   -4.4004    2.2571 C.ar    1  UNL1        0.0520
     34 C          -3.2465   -5.8000    1.8595 C.1     1  UNL1        0.0992
     35 N          -3.5514   -6.7807    1.5677 N.1     1  UNL1       -0.1909
     36 C          -2.4731   -3.5056    1.3613 C.ar    1  UNL1       -0.0408
     37 H           1.1819   -2.6800    0.1059 H       1  UNL1        0.0248
     38 H          -0.1982   -3.6695   -0.3702 H       1  UNL1        0.0248
     39 H          -0.0871   -2.9294    1.3176 H       1  UNL1        0.0248
     40 H          -1.0605   -1.6680   -1.2926 H       1  UNL1        0.0501
     41 H           0.9321   -0.3968    0.4896 H       1  UNL1        0.1491
     42 H           3.3244    0.0026   -2.5035 H       1  UNL1        0.0273
     43 H           2.1099    0.6921   -3.6938 H       1  UNL1        0.0273
     44 H           3.3736    1.7212   -2.9701 H       1  UNL1        0.0273
     45 H           0.7823    3.1757   -1.1212 H       1  UNL1        0.0273
     46 H           0.2338    2.3744   -2.6678 H       1  UNL1        0.0273
     47 H           1.8474    3.1340   -2.6140 H       1  UNL1        0.0273
     48 H           3.6673    1.1869    1.8541 H       1  UNL1        0.0671
     49 H           5.5490    2.6754    2.5322 H       1  UNL1        0.0625
     50 H           5.3018    4.6158   -1.1967 H       1  UNL1        0.0836
     51 H          -0.8383   -0.5747    1.5067 H       1  UNL1        0.0370
     52 H          -3.1141    0.1693    1.4496 H       1  UNL1        0.0320
     53 H          -1.9132    0.9227    0.4091 H       1  UNL1        0.0320
     54 H          -4.8338   -1.4941    0.1911 H       1  UNL1        0.0621
     55 H          -6.2436   -1.5404   -1.8230 H       1  UNL1        0.0632
     56 H          -3.6512    1.1442   -3.8055 H       1  UNL1        0.0632
     57 H          -2.2558    1.2067   -1.8068 H       1  UNL1        0.0621
     58 H          -1.7900   -0.9339    3.3608 H       1  UNL1        0.0620
     59 H          -2.4727   -2.6483    5.0296 H       1  UNL1        0.0618
     60 H          -3.1429   -4.8989    4.3268 H       1  UNL1        0.0630
     61 H          -2.4817   -3.7410    0.2945 H       1  UNL1        0.0633
@<TRIPOS>BOND
     1     1     2    1
     2     2     3    1
     3     3     4   am
     4     4     5    2
     5     4     6    1
     6     6     7    1
     7     6     8    1
     8     6     9    1
     9     9    10    1
    10    10    11   ar
    11    11    12   ar
    12    12    13   ar
    13    13    14    1
    14    14    15    1
    15    14    16    1
    16    14    17    1
    17    13    18   ar
    18    18    19   ar
    19     2    20    1
    20    20    21    1
    21    21    22    1
    22    22    23   ar
    23    23    24   ar
    24    24    25   ar
    25    25    26    1
    26    25    27   ar
    27    27    28   ar
    28    20    29    1
    29    29    30   ar
    30    30    31   ar
    31    31    32   ar
    32    32    33   ar
    33    33    34    1
    34    34    35    3
    35    33    36   ar
    36    19    10   ar
    37    28    22   ar
    38    36    29   ar
    39     1    37    1
    40     1    38    1
    41     1    39    1
    42     2    40    1
    43     3    41    1
    44     7    42    1
    45     7    43    1
    46     7    44    1
    47     8    45    1
    48     8    46    1
    49     8    47    1
    50    11    48    1
    51    12    49    1
    52    18    50    1
    53    20    51    1
    54    21    52    1
    55    21    53    1
    56    23    54    1
    57    24    55    1
    58    27    56    1
    59    28    57    1
    60    30    58    1
    61    31    59    1
    62    32    60    1
    63    36    61    1
