@<TRIPOS>MOLECULE
*****
 42 44 0 0 0
SMALL
GASTEIGER

@<TRIPOS>ATOM
      1 C          -4.9805   -1.1188    1.3396 C.3     1  UNL1       -0.0467
      2 C          -3.5548   -1.4344    0.8653 C.3     1  UNL1        0.0184
      3 C          -3.4256   -1.1358   -0.5720 C.3     1  UNL1       -0.0282
      4 C          -2.2858   -0.3138   -1.0228 C.3     1  UNL1       -0.0152
      5 C          -2.8455    0.9499   -1.6948 C.3     1  UNL1       -0.0583
      6 C          -1.3186    0.1117   -0.0299 C.ar    1  UNL1       -0.0220
      7 C          -0.1668    0.7473   -0.4249 C.ar    1  UNL1       -0.0530
      8 C           0.8044    1.1833    0.4732 C.ar    1  UNL1       -0.0411
      9 C           2.0283    1.8833   -0.0094 C.3     1  UNL1        0.0023
     10 C           3.0550    0.9511   -0.5139 C.ar    1  UNL1        0.0146
     11 C           3.1929    0.8014   -1.8904 C.ar    1  UNL1        0.0379
     12 N           4.1121   -0.0441   -2.3719 N.ar    1  UNL1       -0.2227
     13 C           4.8926   -0.7405   -1.5570 C.ar    1  UNL1        0.2142
     14 N           5.8529   -1.6250   -2.1531 N.pl3   1  UNL1       -0.3274
     15 N           4.7923   -0.6259   -0.2262 N.ar    1  UNL1       -0.1999
     16 C           3.8679    0.2257    0.3166 C.ar    1  UNL1        0.1247
     17 N           3.7611    0.3592    1.7291 N.pl3   1  UNL1       -0.3428
     18 C           0.6000    0.9679    1.8124 C.ar    1  UNL1       -0.0381
     19 C          -0.5511    0.3289    2.2515 C.ar    1  UNL1        0.0623
     20 CL         -0.8506    0.0331    3.9515 Cl      1  UNL1       -0.0816
     21 C          -1.4949   -0.0897    1.3151 C.ar    1  UNL1        0.0494
     22 N          -2.6734   -0.7396    1.7424 N.pl3   1  UNL1       -0.3399
     23 H          -5.6910   -1.8366    0.9043 H       1  UNL1        0.0247
     24 H          -5.0347   -1.1215    2.4460 H       1  UNL1        0.0247
     25 H          -5.2053   -0.0689    1.0251 H       1  UNL1        0.0247
     26 H          -3.4325   -2.5310    1.0720 H       1  UNL1        0.0495
     27 H          -3.3624   -2.1241   -1.1250 H       1  UNL1        0.0289
     28 H          -4.4110   -0.7227   -0.9531 H       1  UNL1        0.0289
     29 H          -1.6968   -0.8160   -1.8507 H       1  UNL1        0.0347
     30 H          -3.5783    0.5724   -2.4514 H       1  UNL1        0.0236
     31 H          -2.0279    1.5294   -2.1429 H       1  UNL1        0.0236
     32 H          -3.3676    1.5417   -0.9283 H       1  UNL1        0.0236
     33 H           0.0289    0.9342   -1.4700 H       1  UNL1        0.0624
     34 H           1.7148    2.5595   -0.8190 H       1  UNL1        0.0363
     35 H           2.4861    2.4834    0.8231 H       1  UNL1        0.0363
     36 H           2.5627    1.3651   -2.5735 H       1  UNL1        0.0834
     37 H           5.5337   -2.2796   -2.8947 H       1  UNL1        0.1452
     38 H           6.8362   -1.5672   -1.8085 H       1  UNL1        0.1452
     39 H           3.7596   -0.4690    2.3435 H       1  UNL1        0.1437
     40 H           3.6824    1.3020    2.1780 H       1  UNL1        0.1437
     41 H           1.3197    1.2916    2.5807 H       1  UNL1        0.0635
     42 H          -2.9285   -0.7181    2.7651 H       1  UNL1        0.1464
@<TRIPOS>BOND
     1     1     2    1
     2     2     3    1
     3     3     4    1
     4     4     5    1
     5     4     6    1
     6     6     7   ar
     7     7     8   ar
     8     8     9    1
     9     9    10    1
    10    10    11   ar
    11    11    12   ar
    12    12    13   ar
    13    13    14    1
    14    13    15   ar
    15    15    16   ar
    16    16    17    1
    17     8    18   ar
    18    18    19   ar
    19    19    20    1
    20    19    21   ar
    21    21    22    1
    22    22     2    1
    23    21     6   ar
    24    16    10   ar
    25     1    23    1
    26     1    24    1
    27     1    25    1
    28     2    26    1
    29     3    27    1
    30     3    28    1
    31     4    29    1
    32     5    30    1
    33     5    31    1
    34     5    32    1
    35     7    33    1
    36     9    34    1
    37     9    35    1
    38    11    36    1
    39    14    37    1
    40    14    38    1
    41    17    39    1
    42    17    40    1
    43    18    41    1
    44    22    42    1
