@<TRIPOS>MOLECULE
*****
 71 73 0 0 0
SMALL
GASTEIGER

@<TRIPOS>ATOM
      1 C           6.7222   -0.0023    3.2471 C.3     1  UNL1       -0.0607
      2 C           6.1203    0.3550    1.8872 C.3     1  UNL1       -0.0243
      3 C           4.9645    1.2731    2.0405 C.3     1  UNL1        0.0120
      4 N           3.7266    0.8169    1.4609 N.pl3   1  UNL1       -0.3418
      5 C           3.7351   -0.0102    0.3117 C.ar    1  UNL1        0.0570
      6 C           4.8013   -0.8667    0.1517 C.ar    1  UNL1       -0.0243
      7 C           4.8392   -1.6625   -0.9633 C.ar    1  UNL1       -0.0567
      8 C           3.8230   -1.6048   -1.9108 C.ar    1  UNL1       -0.0595
      9 C           2.7632   -0.7342   -1.7234 C.ar    1  UNL1       -0.0335
     10 C           2.7071    0.0707   -0.6120 C.ar    1  UNL1        0.1262
     11 S           1.3581    1.1829   -0.3629 S.O2    1  UNL1        0.0608
     12 O           0.7450    0.7360    0.9476 O.2     1  UNL1       -0.1530
     13 O           1.8512    2.5981   -0.2830 O.2     1  UNL1       -0.1530
     14 N           0.2909    1.0111   -1.6637 N.3     1  UNL1       -0.1780
     15 C          -1.0467    0.5654   -1.3475 C.3     1  UNL1        0.1051
     16 C          -1.9487    1.6333   -1.9187 C.3     1  UNL1       -0.0246
     17 C          -1.6618    2.9545   -1.2787 C.3     1  UNL1       -0.0203
     18 C          -1.9718    2.9212    0.1727 C.3     1  UNL1        0.0647
     19 N          -1.6915    4.2175    0.8166 N.pl3   1  UNL1       -0.2761
     20 C          -1.9302    4.3744    2.2084 C.cat   1  UNL1        0.3762
     21 N          -2.7208    3.5679    2.8087 N.pl3   1  UNL1       -0.1298
     22 N          -1.3127    5.4129    2.9724 N.pl3   1  UNL1       -0.2893
     23 C          -1.3772   -0.7609   -1.9705 C.2     1  UNL1        0.2349
     24 O          -0.5759   -1.2486   -2.7971 O.2     1  UNL1       -0.2738
     25 N          -2.5508   -1.4907   -1.6686 N.am    1  UNL1       -0.2867
     26 C          -2.7798   -2.7424   -2.3420 C.3     1  UNL1        0.0158
     27 C          -3.0570   -3.8896   -1.4063 C.3     1  UNL1       -0.0345
     28 C          -3.9599   -3.5135   -0.2649 C.3     1  UNL1       -0.0403
     29 C          -3.7691   -4.5484    0.8259 C.3     1  UNL1       -0.0623
     30 C          -3.6939   -2.1737    0.3096 C.3     1  UNL1       -0.0213
     31 C          -3.5280   -1.0668   -0.7069 C.3     1  UNL1        0.1230
     32 C          -4.8212   -0.7846   -1.3647 C.2     1  UNL1        0.3255
     33 O          -5.8190   -0.4497   -0.6410 O.2     1  UNL1       -0.2489
     34 O          -4.9739   -0.8736   -2.7366 O.3     1  UNL1       -0.4793
     35 C           5.8519   -0.9122    1.1595 C.3     1  UNL1       -0.0219
     36 H           7.2980   -0.9492    3.2017 H       1  UNL1        0.0233
     37 H           5.8804   -0.1939    3.9582 H       1  UNL1        0.0233
     38 H           7.3641    0.7888    3.6352 H       1  UNL1        0.0233
     39 H           6.9476    0.8844    1.3306 H       1  UNL1        0.0316
     40 H           5.1904    2.2726    1.5793 H       1  UNL1        0.0464
     41 H           4.8230    1.4916    3.1275 H       1  UNL1        0.0464
     42 H           2.7847    1.0780    1.8572 H       1  UNL1        0.1461
     43 H           5.6355   -2.3541   -1.1582 H       1  UNL1        0.0621
     44 H           3.8300   -2.2153   -2.7890 H       1  UNL1        0.0618
     45 H           2.0034   -0.7118   -2.4846 H       1  UNL1        0.0638
     46 H           0.3541    1.7088   -2.4077 H       1  UNL1        0.1489
     47 H          -1.2000    0.4619   -0.2811 H       1  UNL1        0.0573
     48 H          -3.0282    1.3807   -1.8814 H       1  UNL1        0.0286
     49 H          -1.6206    1.7135   -3.0095 H       1  UNL1        0.0286
     50 H          -2.1823    3.7925   -1.8024 H       1  UNL1        0.0296
     51 H          -0.5673    3.2185   -1.4024 H       1  UNL1        0.0296
     52 H          -1.5019    2.1235    0.7345 H       1  UNL1        0.0655
     53 H          -3.0846    2.7782    0.2574 H       1  UNL1        0.0655
     54 H          -1.3245    5.0280    0.2951 H       1  UNL1        0.2579
     55 H          -3.1859    2.8067    2.2948 H       1  UNL1        0.3062
     56 H          -1.1408    6.3668    2.6252 H       1  UNL1        0.2546
     57 H          -1.0233    5.1698    3.9443 H       1  UNL1        0.2546
     58 H          -1.8410   -3.0483   -2.9011 H       1  UNL1        0.0465
     59 H          -3.5836   -2.6651   -3.0960 H       1  UNL1        0.0465
     60 H          -2.1001   -4.3268   -1.0648 H       1  UNL1        0.0283
     61 H          -3.5784   -4.6709   -1.9972 H       1  UNL1        0.0283
     62 H          -5.0331   -3.5869   -0.5737 H       1  UNL1        0.0299
     63 H          -3.8023   -4.0759    1.8436 H       1  UNL1        0.0232
     64 H          -2.7890   -5.0552    0.7632 H       1  UNL1        0.0232
     65 H          -4.5534   -5.3212    0.8123 H       1  UNL1        0.0232
     66 H          -2.7976   -2.1675    0.9717 H       1  UNL1        0.0291
     67 H          -4.5500   -1.8899    0.9595 H       1  UNL1        0.0291
     68 H          -3.1909   -0.1824   -0.1157 H       1  UNL1        0.0616
     69 H          -5.9133   -0.9816   -3.1235 H       1  UNL1        0.2951
     70 H           5.5901   -1.7338    1.8858 H       1  UNL1        0.0317
     71 H           6.7817   -1.2901    0.6534 H       1  UNL1        0.0317
@<TRIPOS>BOND
     1     1     2    1
     2     2     3    1
     3     3     4    1
     4     4     5    1
     5     5     6   ar
     6     6     7   ar
     7     7     8   ar
     8     8     9   ar
     9     9    10   ar
    10    10    11    1
    11    11    12    2
    12    11    13    2
    13    11    14    1
    14    14    15    1
    15    15    16    1
    16    16    17    1
    17    17    18    1
    18    18    19    1
    19    19    20    1
    20    20    21    2
    21    20    22    1
    22    15    23    1
    23    23    24    2
    24    23    25   am
    25    25    26    1
    26    26    27    1
    27    27    28    1
    28    28    29    1
    29    28    30    1
    30    30    31    1
    31    31    32    1
    32    32    33    2
    33    32    34    1
    34     6    35    1
    35    35     2    1
    36    10     5   ar
    37    31    25    1
    38     1    36    1
    39     1    37    1
    40     1    38    1
    41     2    39    1
    42     3    40    1
    43     3    41    1
    44     4    42    1
    45     7    43    1
    46     8    44    1
    47     9    45    1
    48    14    46    1
    49    15    47    1
    50    16    48    1
    51    16    49    1
    52    17    50    1
    53    17    51    1
    54    18    52    1
    55    18    53    1
    56    19    54    1
    57    21    55    1
    58    22    56    1
    59    22    57    1
    60    26    58    1
    61    26    59    1
    62    27    60    1
    63    27    61    1
    64    28    62    1
    65    29    63    1
    66    29    64    1
    67    29    65    1
    68    30    66    1
    69    30    67    1
    70    31    68    1
    71    34    69    1
    72    35    70    1
    73    35    71    1
