
     RDKit          3D

 75 77  0  0  0  0  0  0  0  0999 V2000
   -7.6118   -3.1284   -2.0971 C   0  0  0  0  0  0  0  0  0  0  0  0
   -7.1626   -4.0186   -1.1216 O   0  0  0  0  0  0  0  0  0  0  0  0
   -6.4980   -3.5249    0.0032 C   0  0  0  0  0  0  0  0  0  0  0  0
   -6.2610   -2.1937    0.2028 C   0  0  0  0  0  0  0  0  0  0  0  0
   -5.5988   -1.6878    1.3229 C   0  0  0  0  0  0  0  0  0  0  0  0
   -5.3950   -0.2220    1.4797 C   0  0  0  0  0  0  0  0  0  0  0  0
   -4.1963    0.1828    0.7775 N   0  0  0  0  0  0  0  0  0  0  0  0
   -2.8823   -0.0066    1.2296 C   0  0  0  0  0  0  0  0  0  0  0  0
   -2.7140   -0.5975    2.3524 O   0  0  0  0  0  0  0  0  0  0  0  0
   -1.6779    0.4370    0.4737 C   0  0  1  0  0  0  0  0  0  0  0  0
   -1.4853    1.9149    0.6592 C   0  0  0  0  0  0  0  0  0  0  0  0
   -2.5976    2.7662    0.1868 C   0  0  0  0  0  0  0  0  0  0  0  0
   -2.1810    4.2336    0.4928 C   0  0  0  0  0  0  0  0  0  0  0  0
   -2.7080    5.1406   -0.5939 C   0  0  0  0  0  0  0  0  0  0  0  0
   -1.8547    4.9210   -1.8350 C   0  0  0  0  0  0  0  0  0  0  0  0
   -1.7131    3.4431   -2.0571 C   0  0  0  0  0  0  0  0  0  0  0  0
   -2.7889    2.6597   -1.3308 C   0  0  0  0  0  0  0  0  0  0  0  0
   -0.5197   -0.2284    1.0744 N   0  0  0  0  0  0  0  0  0  0  0  0
    0.8013   -0.0614    0.5052 C   0  0  0  0  0  0  0  0  0  0  0  0
    0.9322    0.5771   -0.5663 N   0  0  0  0  0  0  0  0  0  0  0  0
    1.9085   -0.6379    1.1841 N   0  0  0  0  0  0  0  0  0  0  0  0
    3.2546   -0.5656    0.7560 C   0  0  0  0  0  0  0  0  0  0  0  0
    3.5232    0.0508   -0.2980 O   0  0  0  0  0  0  0  0  0  0  0  0
    4.3451   -1.2274    1.5660 C   0  0  0  0  0  0  0  0  0  0  0  0
    5.6173   -0.9737    0.8691 C   0  0  0  0  0  0  0  0  0  0  0  0
    6.2259   -1.9541    0.1109 C   0  0  0  0  0  0  0  0  0  0  0  0
    7.4177   -1.7421   -0.5538 C   0  0  0  0  0  0  0  0  0  0  0  0
    8.0328   -2.7248   -1.3168 O   0  0  0  0  0  0  0  0  0  0  0  0
    7.5482   -4.0187   -1.5130 C   0  0  0  0  0  0  0  0  0  0  0  0
    8.0553   -0.5155   -0.4815 C   0  0  0  0  0  0  0  0  0  0  0  0
    9.2543   -0.2903   -1.1448 O   0  0  0  0  0  0  0  0  0  0  0  0
    9.9500    0.9177   -1.1159 C   0  0  0  0  0  0  0  0  0  0  0  0
    7.4429    0.4615    0.2768 C   0  0  0  0  0  0  0  0  0  0  0  0
    6.2540    0.2566    0.9427 C   0  0  0  0  0  0  0  0  0  0  0  0
    5.4310    1.6362    1.9900 Br  0  0  0  0  0  0  0  0  0  0  0  0
   -5.1757   -2.6092    2.2564 C   0  0  0  0  0  0  0  0  0  0  0  0
   -5.4134   -3.9672    2.0594 C   0  0  0  0  0  0  0  0  0  0  0  0
   -6.0626   -4.4171    0.9530 C   0  0  0  0  0  0  0  0  0  0  0  0
   -6.2923   -5.7335    0.7667 F   0  0  0  0  0  0  0  0  0  0  0  0
   -8.3891   -3.6180   -2.7527 H   0  0  0  0  0  0  0  0  0  0  0  0
   -6.7375   -2.8549   -2.7338 H   0  0  0  0  0  0  0  0  0  0  0  0
   -8.0856   -2.2150   -1.6917 H   0  0  0  0  0  0  0  0  0  0  0  0
   -6.5886   -1.4751   -0.5205 H   0  0  0  0  0  0  0  0  0  0  0  0
   -5.3481    0.0519    2.5608 H   0  0  0  0  0  0  0  0  0  0  0  0
   -6.2757    0.2922    1.0430 H   0  0  0  0  0  0  0  0  0  0  0  0
   -4.3755    0.6350   -0.1633 H   0  0  0  0  0  0  0  0  0  0  0  0
   -1.7600    0.1627   -0.5798 H   0  0  0  0  0  0  0  0  0  0  0  0
   -1.2522    2.1082    1.7475 H   0  0  0  0  0  0  0  0  0  0  0  0
   -0.5558    2.2324    0.1309 H   0  0  0  0  0  0  0  0  0  0  0  0
   -3.5542    2.6236    0.6708 H   0  0  0  0  0  0  0  0  0  0  0  0
   -1.0724    4.3237    0.4704 H   0  0  0  0  0  0  0  0  0  0  0  0
   -2.5651    4.5516    1.4636 H   0  0  0  0  0  0  0  0  0  0  0  0
   -2.6184    6.1745   -0.2548 H   0  0  0  0  0  0  0  0  0  0  0  0
   -3.7721    4.8814   -0.8295 H   0  0  0  0  0  0  0  0  0  0  0  0
   -0.8686    5.4031   -1.6904 H   0  0  0  0  0  0  0  0  0  0  0  0
   -2.3359    5.3535   -2.7298 H   0  0  0  0  0  0  0  0  0  0  0  0
   -0.7128    3.1379   -1.7089 H   0  0  0  0  0  0  0  0  0  0  0  0
   -1.7813    3.1804   -3.1182 H   0  0  0  0  0  0  0  0  0  0  0  0
   -3.7856    3.0073   -1.6264 H   0  0  0  0  0  0  0  0  0  0  0  0
   -2.7192    1.6030   -1.5957 H   0  0  0  0  0  0  0  0  0  0  0  0
   -0.6174   -0.8222    1.9042 H   0  0  0  0  0  0  0  0  0  0  0  0
    1.7399    0.7915   -1.0967 H   0  0  0  0  0  0  0  0  0  0  0  0
    1.7202   -1.1683    2.0891 H   0  0  0  0  0  0  0  0  0  0  0  0
    4.3828   -0.7034    2.5575 H   0  0  0  0  0  0  0  0  0  0  0  0
    4.0984   -2.2854    1.6613 H   0  0  0  0  0  0  0  0  0  0  0  0
    5.7267   -2.9139    0.0532 H   0  0  0  0  0  0  0  0  0  0  0  0
    6.9402   -4.0798   -2.4600 H   0  0  0  0  0  0  0  0  0  0  0  0
    8.3942   -4.7191   -1.5992 H   0  0  0  0  0  0  0  0  0  0  0  0
    6.9137   -4.4012   -0.6776 H   0  0  0  0  0  0  0  0  0  0  0  0
    9.2618    1.7368   -1.3407 H   0  0  0  0  0  0  0  0  0  0  0  0
   10.7784    0.8610   -1.8649 H   0  0  0  0  0  0  0  0  0  0  0  0
   10.3974    1.0493   -0.0893 H   0  0  0  0  0  0  0  0  0  0  0  0
    7.9391    1.4377    0.3407 H   0  0  0  0  0  0  0  0  0  0  0  0
   -4.6753   -2.2715    3.1280 H   0  0  0  0  0  0  0  0  0  0  0  0
   -5.0500   -4.6236    2.8373 H   0  0  0  0  0  0  0  0  0  0  0  0
  1  2  1  0
  2  3  1  0
  3  4  2  0
  4  5  1  0
  5  6  1  0
  6  7  1  0
  7  8  1  0
  8  9  2  0
  8 10  1  0
 10 11  1  0
 11 12  1  0
 12 13  1  0
 13 14  1  0
 14 15  1  0
 15 16  1  0
 16 17  1  0
 10 18  1  0
 18 19  1  0
 19 20  2  3
 19 21  1  0
 21 22  1  0
 22 23  2  0
 22 24  1  0
 24 25  1  0
 25 26  2  0
 26 27  1  0
 27 28  1  0
 28 29  1  0
 27 30  2  0
 30 31  1  0
 31 32  1  0
 30 33  1  0
 33 34  2  0
 34 35  1  0
  5 36  2  0
 36 37  1  0
 37 38  2  0
 38 39  1  0
 38  3  1  0
 17 12  1  0
 34 25  1  0
  1 40  1  0
  1 41  1  0
  1 42  1  0
  4 43  1  0
  6 44  1  0
  6 45  1  0
  7 46  1  0
 10 47  1  6
 11 48  1  0
 11 49  1  0
 12 50  1  0
 13 51  1  0
 13 52  1  0
 14 53  1  0
 14 54  1  0
 15 55  1  0
 15 56  1  0
 16 57  1  0
 16 58  1  0
 17 59  1  0
 17 60  1  0
 18 61  1  0
 20 62  1  0
 21 63  1  0
 24 64  1  0
 24 65  1  0
 26 66  1  0
 29 67  1  0
 29 68  1  0
 29 69  1  0
 32 70  1  0
 32 71  1  0
 32 72  1  0
 33 73  1  0
 36 74  1  0
 37 75  1  0
M  END
$$$$
