@<TRIPOS>MOLECULE
*****
 75 77 0 0 0
SMALL
GASTEIGER

@<TRIPOS>ATOM
      1 C          -7.6118   -3.1284   -2.0971 C.3     1  UNL1        0.0789
      2 O          -7.1626   -4.0186   -1.1216 O.3     1  UNL1       -0.4922
      3 C          -6.4980   -3.5249    0.0032 C.ar    1  UNL1        0.1554
      4 C          -6.2610   -2.1937    0.2028 C.ar    1  UNL1       -0.0124
      5 C          -5.5988   -1.6878    1.3229 C.ar    1  UNL1       -0.0267
      6 C          -5.3950   -0.2220    1.4797 C.3     1  UNL1        0.0371
      7 N          -4.1963    0.1828    0.7775 N.am    1  UNL1       -0.3084
      8 C          -2.8823   -0.0066    1.2296 C.2     1  UNL1        0.2503
      9 O          -2.7140   -0.5975    2.3524 O.2     1  UNL1       -0.2720
     10 C          -1.6779    0.4370    0.4737 C.3     1  UNL1        0.1514
     11 C          -1.4853    1.9149    0.6592 C.3     1  UNL1       -0.0078
     12 C          -2.5976    2.7662    0.1868 C.3     1  UNL1       -0.0374
     13 C          -2.1810    4.2336    0.4928 C.3     1  UNL1       -0.0501
     14 C          -2.7080    5.1406   -0.5939 C.3     1  UNL1       -0.0528
     15 C          -1.8547    4.9210   -1.8350 C.3     1  UNL1       -0.0530
     16 C          -1.7131    3.4431   -2.0571 C.3     1  UNL1       -0.0528
     17 C          -2.7889    2.6597   -1.3308 C.3     1  UNL1       -0.0501
     18 N          -0.5197   -0.2284    1.0744 N.pl3   1  UNL1       -0.2661
     19 C           0.8013   -0.0614    0.5052 C.2     1  UNL1        0.3777
     20 N           0.9322    0.5771   -0.5663 N.pl3   1  UNL1       -0.1312
     21 N           1.9085   -0.6379    1.1841 N.am    1  UNL1       -0.1746
     22 C           3.2546   -0.5656    0.7560 C.2     1  UNL1        0.2797
     23 O           3.5232    0.0508   -0.2980 O.2     1  UNL1       -0.2570
     24 C           4.3451   -1.2274    1.5660 C.3     1  UNL1        0.0655
     25 C           5.6173   -0.9737    0.8691 C.ar    1  UNL1       -0.0195
     26 C           6.2259   -1.9541    0.1109 C.ar    1  UNL1       -0.0116
     27 C           7.4177   -1.7421   -0.5538 C.ar    1  UNL1        0.1618
     28 O           8.0328   -2.7248   -1.3168 O.3     1  UNL1       -0.4914
     29 C           7.5482   -4.0187   -1.5130 C.3     1  UNL1        0.0790
     30 C           8.0553   -0.5155   -0.4815 C.ar    1  UNL1        0.1625
     31 O           9.2543   -0.2903   -1.1448 O.3     1  UNL1       -0.4914
     32 C           9.9500    0.9177   -1.1159 C.3     1  UNL1        0.0790
     33 C           7.4429    0.4615    0.2768 C.ar    1  UNL1       -0.0021
     34 C           6.2540    0.2566    0.9427 C.ar    1  UNL1        0.0252
     35 BR          5.4310    1.6362    1.9900 Br      1  UNL1       -0.0499
     36 C          -5.1757   -2.6092    2.2564 C.ar    1  UNL1       -0.0541
     37 C          -5.4134   -3.9672    2.0594 C.ar    1  UNL1       -0.0225
     38 C          -6.0626   -4.4171    0.9530 C.ar    1  UNL1        0.1648
     39 F          -6.2923   -5.7335    0.7667 F       1  UNL1       -0.2017
     40 H          -8.3891   -3.6180   -2.7527 H       1  UNL1        0.0660
     41 H          -6.7375   -2.8549   -2.7338 H       1  UNL1        0.0660
     42 H          -8.0856   -2.2150   -1.6917 H       1  UNL1        0.0660
     43 H          -6.5886   -1.4751   -0.5205 H       1  UNL1        0.0658
     44 H          -5.3481    0.0519    2.5608 H       1  UNL1        0.0512
     45 H          -6.2757    0.2922    1.0430 H       1  UNL1        0.0512
     46 H          -4.3755    0.6350   -0.1633 H       1  UNL1        0.1491
     47 H          -1.7600    0.1627   -0.5798 H       1  UNL1        0.0790
     48 H          -1.2522    2.1082    1.7475 H       1  UNL1        0.0306
     49 H          -0.5558    2.2324    0.1309 H       1  UNL1        0.0306
     50 H          -3.5542    2.6236    0.6708 H       1  UNL1        0.0302
     51 H          -1.0724    4.3237    0.4704 H       1  UNL1        0.0268
     52 H          -2.5651    4.5516    1.4636 H       1  UNL1        0.0268
     53 H          -2.6184    6.1745   -0.2548 H       1  UNL1        0.0265
     54 H          -3.7721    4.8814   -0.8295 H       1  UNL1        0.0265
     55 H          -0.8686    5.4031   -1.6904 H       1  UNL1        0.0265
     56 H          -2.3359    5.3535   -2.7298 H       1  UNL1        0.0265
     57 H          -0.7128    3.1379   -1.7089 H       1  UNL1        0.0265
     58 H          -1.7813    3.1804   -3.1182 H       1  UNL1        0.0265
     59 H          -3.7856    3.0073   -1.6264 H       1  UNL1        0.0268
     60 H          -2.7192    1.6030   -1.5957 H       1  UNL1        0.0268
     61 H          -0.6174   -0.8222    1.9042 H       1  UNL1        0.2585
     62 H           1.7399    0.7915   -1.0967 H       1  UNL1        0.3060
     63 H           1.7202   -1.1683    2.0891 H       1  UNL1        0.2542
     64 H           4.3828   -0.7034    2.5575 H       1  UNL1        0.0422
     65 H           4.0984   -2.2854    1.6613 H       1  UNL1        0.0422
     66 H           5.7267   -2.9139    0.0532 H       1  UNL1        0.0658
     67 H           6.9402   -4.0798   -2.4600 H       1  UNL1        0.0660
     68 H           8.3942   -4.7191   -1.5992 H       1  UNL1        0.0660
     69 H           6.9137   -4.4012   -0.6776 H       1  UNL1        0.0660
     70 H           9.2618    1.7368   -1.3407 H       1  UNL1        0.0660
     71 H          10.7784    0.8610   -1.8649 H       1  UNL1        0.0660
     72 H          10.3974    1.0493   -0.0893 H       1  UNL1        0.0660
     73 H           7.9391    1.4377    0.3407 H       1  UNL1        0.0666
     74 H          -4.6753   -2.2715    3.1280 H       1  UNL1        0.0622
     75 H          -5.0500   -4.6236    2.8373 H       1  UNL1        0.0647
@<TRIPOS>BOND
     1     1     2    1
     2     2     3    1
     3     3     4   ar
     4     4     5   ar
     5     5     6    1
     6     6     7    1
     7     7     8   am
     8     8     9    2
     9     8    10    1
    10    10    11    1
    11    11    12    1
    12    12    13    1
    13    13    14    1
    14    14    15    1
    15    15    16    1
    16    16    17    1
    17    10    18    1
    18    18    19    1
    19    19    20    2
    20    19    21    1
    21    21    22   am
    22    22    23    2
    23    22    24    1
    24    24    25    1
    25    25    26   ar
    26    26    27   ar
    27    27    28    1
    28    28    29    1
    29    27    30   ar
    30    30    31    1
    31    31    32    1
    32    30    33   ar
    33    33    34   ar
    34    34    35    1
    35     5    36   ar
    36    36    37   ar
    37    37    38   ar
    38    38    39    1
    39    38     3   ar
    40    17    12    1
    41    34    25   ar
    42     1    40    1
    43     1    41    1
    44     1    42    1
    45     4    43    1
    46     6    44    1
    47     6    45    1
    48     7    46    1
    49    10    47    1
    50    11    48    1
    51    11    49    1
    52    12    50    1
    53    13    51    1
    54    13    52    1
    55    14    53    1
    56    14    54    1
    57    15    55    1
    58    15    56    1
    59    16    57    1
    60    16    58    1
    61    17    59    1
    62    17    60    1
    63    18    61    1
    64    20    62    1
    65    21    63    1
    66    24    64    1
    67    24    65    1
    68    26    66    1
    69    29    67    1
    70    29    68    1
    71    29    69    1
    72    32    70    1
    73    32    71    1
    74    32    72    1
    75    33    73    1
    76    36    74    1
    77    37    75    1
