@<TRIPOS>MOLECULE
*****
 32 32 0 0 0
SMALL
GASTEIGER

@<TRIPOS>ATOM
      1 O           4.0477   -0.0199    0.2898 O.2     1  UNL1       -0.2492
      2 C           3.8503   -1.2506    0.3702 C.2     1  UNL1        0.3221
      3 O           4.8659   -2.1107    0.0136 O.3     1  UNL1       -0.4795
      4 C           2.5438   -1.7541    0.8419 C.3     1  UNL1        0.1088
      5 N           1.6446   -0.6334    1.1548 N.am    1  UNL1       -0.3046
      6 C           1.2716    0.3121    0.1736 C.2     1  UNL1        0.2176
      7 O           1.7317    0.1699   -0.9839 O.2     1  UNL1       -0.2755
      8 C           0.3815    1.4335    0.4630 C.3     1  UNL1        0.0482
      9 C           0.1849    2.3642   -0.7097 C.3     1  UNL1        0.0021
     10 S          -0.9268    3.7047   -0.1306 S.3     1  UNL1       -0.1775
     11 C          -0.9501    1.0152    1.0300 C.3     1  UNL1       -0.0158
     12 C          -1.7478    0.1288    0.1895 C.ar    1  UNL1       -0.0466
     13 C          -2.6440    0.5608   -0.7522 C.ar    1  UNL1       -0.0586
     14 C          -3.3949   -0.3133   -1.5360 C.ar    1  UNL1       -0.0615
     15 C          -3.2595   -1.6735   -1.3883 C.ar    1  UNL1       -0.0617
     16 C          -2.3626   -2.1252   -0.4453 C.ar    1  UNL1       -0.0615
     17 C          -1.6235   -1.2484    0.3262 C.ar    1  UNL1       -0.0586
     18 H           5.7759   -1.7213   -0.1901 H       1  UNL1        0.2951
     19 H           2.0664   -2.2866   -0.0260 H       1  UNL1        0.0577
     20 H           2.5950   -2.4716    1.6568 H       1  UNL1        0.0577
     21 H           1.2919   -0.5700    2.1475 H       1  UNL1        0.1493
     22 H           0.8686    2.0702    1.2613 H       1  UNL1        0.0405
     23 H          -0.3356    1.8798   -1.5557 H       1  UNL1        0.0381
     24 H           1.1254    2.8685   -1.0006 H       1  UNL1        0.0381
     25 H          -0.7464    4.7699   -1.0540 H       1  UNL1        0.1017
     26 H          -1.5418    1.9249    1.2594 H       1  UNL1        0.0321
     27 H          -0.7816    0.5219    2.0294 H       1  UNL1        0.0321
     28 H          -2.8115    1.6054   -0.9265 H       1  UNL1        0.0620
     29 H          -4.0903    0.0528   -2.2670 H       1  UNL1        0.0618
     30 H          -3.8450   -2.3795   -1.9997 H       1  UNL1        0.0618
     31 H          -2.2609   -3.2006   -0.3340 H       1  UNL1        0.0618
     32 H          -0.9231   -1.6239    1.0721 H       1  UNL1        0.0620
@<TRIPOS>BOND
     1     1     2    2
     2     2     3    1
     3     2     4    1
     4     4     5    1
     5     5     6   am
     6     6     7    2
     7     6     8    1
     8     8     9    1
     9     9    10    1
    10     8    11    1
    11    11    12    1
    12    12    13   ar
    13    13    14   ar
    14    14    15   ar
    15    15    16   ar
    16    16    17   ar
    17    17    12   ar
    18     3    18    1
    19     4    19    1
    20     4    20    1
    21     5    21    1
    22     8    22    1
    23     9    23    1
    24     9    24    1
    25    10    25    1
    26    11    26    1
    27    11    27    1
    28    13    28    1
    29    14    29    1
    30    15    30    1
    31    16    31    1
    32    17    32    1
