
     RDKit          3D

 32 32  0  0  0  0  0  0  0  0999 V2000
    4.0477   -0.0199    0.2898 O   0  0  0  0  0  0  0  0  0  0  0  0
    3.8503   -1.2506    0.3702 C   0  0  0  0  0  0  0  0  0  0  0  0
    4.8659   -2.1107    0.0136 O   0  0  0  0  0  0  0  0  0  0  0  0
    2.5438   -1.7541    0.8419 C   0  0  0  0  0  0  0  0  0  0  0  0
    1.6446   -0.6334    1.1548 N   0  0  0  0  0  0  0  0  0  0  0  0
    1.2716    0.3121    0.1736 C   0  0  0  0  0  0  0  0  0  0  0  0
    1.7317    0.1699   -0.9839 O   0  0  0  0  0  0  0  0  0  0  0  0
    0.3815    1.4335    0.4630 C   0  0  0  0  0  0  0  0  0  0  0  0
    0.1849    2.3642   -0.7097 C   0  0  0  0  0  0  0  0  0  0  0  0
   -0.9268    3.7047   -0.1306 S   0  0  0  0  0  0  0  0  0  0  0  0
   -0.9501    1.0152    1.0300 C   0  0  0  0  0  0  0  0  0  0  0  0
   -1.7478    0.1288    0.1895 C   0  0  0  0  0  0  0  0  0  0  0  0
   -2.6440    0.5608   -0.7522 C   0  0  0  0  0  0  0  0  0  0  0  0
   -3.3949   -0.3133   -1.5360 C   0  0  0  0  0  0  0  0  0  0  0  0
   -3.2595   -1.6735   -1.3883 C   0  0  0  0  0  0  0  0  0  0  0  0
   -2.3626   -2.1252   -0.4453 C   0  0  0  0  0  0  0  0  0  0  0  0
   -1.6235   -1.2484    0.3262 C   0  0  0  0  0  0  0  0  0  0  0  0
    5.7759   -1.7213   -0.1901 H   0  0  0  0  0  0  0  0  0  0  0  0
    2.0664   -2.2866   -0.0260 H   0  0  0  0  0  0  0  0  0  0  0  0
    2.5950   -2.4716    1.6568 H   0  0  0  0  0  0  0  0  0  0  0  0
    1.2919   -0.5700    2.1475 H   0  0  0  0  0  0  0  0  0  0  0  0
    0.8686    2.0702    1.2613 H   0  0  0  0  0  0  0  0  0  0  0  0
   -0.3356    1.8798   -1.5557 H   0  0  0  0  0  0  0  0  0  0  0  0
    1.1254    2.8685   -1.0006 H   0  0  0  0  0  0  0  0  0  0  0  0
   -0.7464    4.7699   -1.0540 H   0  0  0  0  0  0  0  0  0  0  0  0
   -1.5418    1.9249    1.2594 H   0  0  0  0  0  0  0  0  0  0  0  0
   -0.7816    0.5219    2.0294 H   0  0  0  0  0  0  0  0  0  0  0  0
   -2.8115    1.6054   -0.9265 H   0  0  0  0  0  0  0  0  0  0  0  0
   -4.0903    0.0528   -2.2670 H   0  0  0  0  0  0  0  0  0  0  0  0
   -3.8450   -2.3795   -1.9997 H   0  0  0  0  0  0  0  0  0  0  0  0
   -2.2609   -3.2006   -0.3340 H   0  0  0  0  0  0  0  0  0  0  0  0
   -0.9231   -1.6239    1.0721 H   0  0  0  0  0  0  0  0  0  0  0  0
  1  2  2  0
  2  3  1  0
  2  4  1  0
  4  5  1  0
  5  6  1  0
  6  7  2  0
  6  8  1  0
  8  9  1  0
  9 10  1  0
  8 11  1  0
 11 12  1  0
 12 13  2  0
 13 14  1  0
 14 15  2  0
 15 16  1  0
 16 17  2  0
 17 12  1  0
  3 18  1  0
  4 19  1  0
  4 20  1  0
  5 21  1  0
  8 22  1  0
  9 23  1  0
  9 24  1  0
 10 25  1  0
 11 26  1  0
 11 27  1  0
 13 28  1  0
 14 29  1  0
 15 30  1  0
 16 31  1  0
 17 32  1  0
M  END
$$$$
