
     RDKit          3D

 41 41  0  0  0  0  0  0  0  0999 V2000
   -4.7701   -0.5221    1.6455 C   0  0  0  0  0  0  0  0  0  0  0  0
   -4.6118    0.2016    0.3503 C   0  0  0  0  0  0  0  0  0  0  0  0
   -5.0629   -0.6335   -0.8233 C   0  0  0  0  0  0  0  0  0  0  0  0
   -5.4558    1.4472    0.3861 C   0  0  0  0  0  0  0  0  0  0  0  0
   -3.2214    0.6118    0.1056 N   0  0  0  0  0  0  0  0  0  0  0  0
   -2.1805   -0.3289    0.0229 C   0  0  0  0  0  0  0  0  0  0  0  0
   -2.4484   -1.5582    0.1629 O   0  0  0  0  0  0  0  0  0  0  0  0
   -0.8102    0.0480   -0.2161 C   0  0  0  0  0  0  0  0  0  0  0  0
    0.1899   -0.9448   -0.2883 C   0  0  0  0  0  0  0  0  0  0  0  0
    1.5059   -0.6010   -0.5164 C   0  0  0  0  0  0  0  0  0  0  0  0
    1.8993    0.7095   -0.6818 C   0  0  0  0  0  0  0  0  0  0  0  0
    3.2028    1.0830   -0.9094 O   0  0  0  0  0  0  0  0  0  0  0  0
    4.3333    0.3043   -0.9910 C   0  0  0  0  0  0  0  0  0  0  0  0
    4.6658   -0.3351    0.2912 C   0  0  0  0  0  0  0  0  0  0  0  0
    3.9354   -0.1290    1.3673 C   0  0  0  0  0  0  0  0  0  0  0  0
    4.2795   -0.7524    2.5558 F   0  0  0  0  0  0  0  0  0  0  0  0
    5.8460   -1.2508    0.4445 C   0  0  0  0  0  0  0  0  0  0  0  0
    7.0877   -0.6141    0.1414 N   0  0  0  0  0  0  0  0  0  0  0  0
    0.8947    1.6493   -0.6048 C   0  0  0  0  0  0  0  0  0  0  0  0
   -0.4366    1.3562   -0.3786 C   0  0  0  0  0  0  0  0  0  0  0  0
   -5.6646   -1.2006    1.5397 H   0  0  0  0  0  0  0  0  0  0  0  0
   -3.9281   -1.1513    1.9283 H   0  0  0  0  0  0  0  0  0  0  0  0
   -5.0438    0.1952    2.4466 H   0  0  0  0  0  0  0  0  0  0  0  0
   -6.1676   -0.6305   -0.8161 H   0  0  0  0  0  0  0  0  0  0  0  0
   -4.6669   -1.6552   -0.6609 H   0  0  0  0  0  0  0  0  0  0  0  0
   -4.6401   -0.1636   -1.7357 H   0  0  0  0  0  0  0  0  0  0  0  0
   -6.4804    1.2390    0.7454 H   0  0  0  0  0  0  0  0  0  0  0  0
   -5.5868    1.8679   -0.6520 H   0  0  0  0  0  0  0  0  0  0  0  0
   -4.9841    2.2670    0.9767 H   0  0  0  0  0  0  0  0  0  0  0  0
   -2.9937    1.6190   -0.0103 H   0  0  0  0  0  0  0  0  0  0  0  0
   -0.1205   -1.9790   -0.1575 H   0  0  0  0  0  0  0  0  0  0  0  0
    2.2413   -1.3973   -0.5694 H   0  0  0  0  0  0  0  0  0  0  0  0
    5.1912    0.9956   -1.2692 H   0  0  0  0  0  0  0  0  0  0  0  0
    4.2833   -0.4450   -1.8273 H   0  0  0  0  0  0  0  0  0  0  0  0
    3.0743    0.5136    1.4507 H   0  0  0  0  0  0  0  0  0  0  0  0
    5.7047   -2.0930   -0.2779 H   0  0  0  0  0  0  0  0  0  0  0  0
    5.8854   -1.7132    1.4468 H   0  0  0  0  0  0  0  0  0  0  0  0
    7.8554   -1.1973    0.5375 H   0  0  0  0  0  0  0  0  0  0  0  0
    7.1945    0.3315    0.5637 H   0  0  0  0  0  0  0  0  0  0  0  0
    1.1769    2.6853   -0.7314 H   0  0  0  0  0  0  0  0  0  0  0  0
   -1.1729    2.1708   -0.3323 H   0  0  0  0  0  0  0  0  0  0  0  0
  1  2  1  0
  2  3  1  0
  2  4  1  0
  2  5  1  0
  5  6  1  0
  6  7  2  0
  6  8  1  0
  8  9  2  0
  9 10  1  0
 10 11  2  0
 11 12  1  0
 12 13  1  0
 13 14  1  0
 14 15  2  0
 15 16  1  0
 14 17  1  0
 17 18  1  0
 11 19  1  0
 19 20  2  0
 20  8  1  0
  1 21  1  0
  1 22  1  0
  1 23  1  0
  3 24  1  0
  3 25  1  0
  3 26  1  0
  4 27  1  0
  4 28  1  0
  4 29  1  0
  5 30  1  0
  9 31  1  0
 10 32  1  0
 13 33  1  0
 13 34  1  0
 15 35  1  0
 17 36  1  0
 17 37  1  0
 18 38  1  0
 18 39  1  0
 19 40  1  0
 20 41  1  0
M  END
$$$$
