@<TRIPOS>MOLECULE
*****
 41 41 0 0 0
SMALL
GASTEIGER

@<TRIPOS>ATOM
      1 C          -4.7701   -0.5221    1.6455 C.3     1  UNL1       -0.0442
      2 C          -4.6118    0.2016    0.3503 C.3     1  UNL1        0.0265
      3 C          -5.0629   -0.6335   -0.8233 C.3     1  UNL1       -0.0442
      4 C          -5.4558    1.4472    0.3861 C.3     1  UNL1       -0.0442
      5 N          -3.2214    0.6118    0.1056 N.am    1  UNL1       -0.3066
      6 C          -2.1805   -0.3289    0.0229 C.2     1  UNL1        0.2445
      7 O          -2.4484   -1.5582    0.1629 O.2     1  UNL1       -0.2702
      8 C          -0.8102    0.0480   -0.2161 C.ar    1  UNL1        0.0369
      9 C           0.1899   -0.9448   -0.2883 C.ar    1  UNL1       -0.0462
     10 C           1.5059   -0.6010   -0.5164 C.ar    1  UNL1       -0.0192
     11 C           1.8993    0.7095   -0.6818 C.ar    1  UNL1        0.1210
     12 O           3.2028    1.0830   -0.9094 O.3     1  UNL1       -0.4876
     13 C           4.3333    0.3043   -0.9910 C.3     1  UNL1        0.1142
     14 C           4.6658   -0.3351    0.2912 C.2     1  UNL1        0.0085
     15 C           3.9354   -0.1290    1.3673 C.2     1  UNL1        0.0909
     16 F           4.2795   -0.7524    2.5558 F       1  UNL1       -0.2137
     17 C           5.8460   -1.2508    0.4445 C.3     1  UNL1        0.0201
     18 N           7.0877   -0.6141    0.1414 N.3     1  UNL1       -0.3262
     19 C           0.8947    1.6493   -0.6048 C.ar    1  UNL1       -0.0192
     20 C          -0.4366    1.3562   -0.3786 C.ar    1  UNL1       -0.0462
     21 H          -5.6646   -1.2006    1.5397 H       1  UNL1        0.0250
     22 H          -3.9281   -1.1513    1.9283 H       1  UNL1        0.0250
     23 H          -5.0438    0.1952    2.4466 H       1  UNL1        0.0250
     24 H          -6.1676   -0.6305   -0.8161 H       1  UNL1        0.0250
     25 H          -4.6669   -1.6552   -0.6609 H       1  UNL1        0.0250
     26 H          -4.6401   -0.1636   -1.7357 H       1  UNL1        0.0250
     27 H          -6.4804    1.2390    0.7454 H       1  UNL1        0.0250
     28 H          -5.5868    1.8679   -0.6520 H       1  UNL1        0.0250
     29 H          -4.9841    2.2670    0.9767 H       1  UNL1        0.0250
     30 H          -2.9937    1.6190   -0.0103 H       1  UNL1        0.1495
     31 H          -0.1205   -1.9790   -0.1575 H       1  UNL1        0.0626
     32 H           2.2413   -1.3973   -0.5694 H       1  UNL1        0.0654
     33 H           5.1912    0.9956   -1.2692 H       1  UNL1        0.0746
     34 H           4.2833   -0.4450   -1.8273 H       1  UNL1        0.0746
     35 H           3.0743    0.5136    1.4507 H       1  UNL1        0.0943
     36 H           5.7047   -2.0930   -0.2779 H       1  UNL1        0.0470
     37 H           5.8854   -1.7132    1.4468 H       1  UNL1        0.0470
     38 H           7.8554   -1.1973    0.5375 H       1  UNL1        0.1185
     39 H           7.1945    0.3315    0.5637 H       1  UNL1        0.1185
     40 H           1.1769    2.6853   -0.7314 H       1  UNL1        0.0654
     41 H          -1.1729    2.1708   -0.3323 H       1  UNL1        0.0626
@<TRIPOS>BOND
     1     1     2    1
     2     2     3    1
     3     2     4    1
     4     2     5    1
     5     5     6   am
     6     6     7    2
     7     6     8    1
     8     8     9   ar
     9     9    10   ar
    10    10    11   ar
    11    11    12    1
    12    12    13    1
    13    13    14    1
    14    14    15    2
    15    15    16    1
    16    14    17    1
    17    17    18    1
    18    11    19   ar
    19    19    20   ar
    20    20     8   ar
    21     1    21    1
    22     1    22    1
    23     1    23    1
    24     3    24    1
    25     3    25    1
    26     3    26    1
    27     4    27    1
    28     4    28    1
    29     4    29    1
    30     5    30    1
    31     9    31    1
    32    10    32    1
    33    13    33    1
    34    13    34    1
    35    15    35    1
    36    17    36    1
    37    17    37    1
    38    18    38    1
    39    18    39    1
    40    19    40    1
    41    20    41    1
