@<TRIPOS>MOLECULE
*****
 34 35 0 0 0
SMALL
GASTEIGER

@<TRIPOS>ATOM
      1 O          -6.6196    1.7114    0.0803 O.3     1  UNL1       -0.4806
      2 C          -5.6414    0.8351    0.5290 C.2     1  UNL1        0.3047
      3 O          -5.3187    1.0199    1.7404 O.2     1  UNL1       -0.2510
      4 C          -5.2348   -0.0936   -0.5504 C.3     1  UNL1        0.0462
      5 C          -4.1660   -1.0551   -0.1124 C.3     1  UNL1       -0.0274
      6 C          -2.9512   -0.2963    0.3082 C.3     1  UNL1        0.0092
      7 N          -1.8775   -1.2042    0.7425 N.pl3   1  UNL1       -0.3478
      8 C          -0.5803   -0.8600    1.2139 C.2     1  UNL1        0.0224
      9 C           0.4612   -0.6374    0.4305 C.2     1  UNL1        0.1652
     10 N           1.7862   -0.2910    0.8014 N.2     1  UNL1       -0.2041
     11 C           2.5244   -0.1566   -0.2614 C.2     1  UNL1        0.2321
     12 O           1.7736   -0.3961   -1.4087 O.3     1  UNL1       -0.4019
     13 C           0.4529   -0.7067   -1.0266 C.2     1  UNL1        0.3655
     14 O          -0.5117   -0.9831   -1.8207 O.2     1  UNL1       -0.2427
     15 C           3.9393    0.1981   -0.1945 C.ar    1  UNL1        0.0370
     16 C           4.5059    0.3965    1.0555 C.ar    1  UNL1       -0.0495
     17 C           5.8475    0.7366    1.1972 C.ar    1  UNL1       -0.0610
     18 C           6.6231    0.8765    0.0464 C.ar    1  UNL1       -0.0617
     19 C           6.0594    0.6780   -1.2193 C.ar    1  UNL1       -0.0610
     20 C           4.7227    0.3417   -1.3062 C.ar    1  UNL1       -0.0495
     21 H          -7.0543    2.3936    0.6835 H       1  UNL1        0.2951
     22 H          -4.8252    0.5249   -1.3716 H       1  UNL1        0.0378
     23 H          -6.1169   -0.6475   -0.9619 H       1  UNL1        0.0378
     24 H          -4.5336   -1.6194    0.7757 H       1  UNL1        0.0285
     25 H          -3.9511   -1.7695   -0.9249 H       1  UNL1        0.0285
     26 H          -3.1738    0.3699    1.1492 H       1  UNL1        0.0461
     27 H          -2.5690    0.3461   -0.5311 H       1  UNL1        0.0461
     28 H          -1.9891   -2.2521    0.7399 H       1  UNL1        0.1456
     29 H          -0.4395   -0.7755    2.2850 H       1  UNL1        0.0802
     30 H           3.9365    0.2978    1.9825 H       1  UNL1        0.0625
     31 H           6.2576    0.8842    2.1910 H       1  UNL1        0.0618
     32 H           7.6488    1.1408    0.2505 H       1  UNL1        0.0618
     33 H           6.7071    0.8001   -2.0615 H       1  UNL1        0.0618
     34 H           4.3072    0.1930   -2.2917 H       1  UNL1        0.0625
@<TRIPOS>BOND
     1     1     2    1
     2     2     3    2
     3     2     4    1
     4     4     5    1
     5     5     6    1
     6     6     7    1
     7     7     8    1
     8     8     9    2
     9     9    10    1
    10    10    11    2
    11    11    12    1
    12    12    13    1
    13    13    14    2
    14    11    15    1
    15    15    16   ar
    16    16    17   ar
    17    17    18   ar
    18    18    19   ar
    19    19    20   ar
    20    13     9    1
    21    20    15   ar
    22     1    21    1
    23     4    22    1
    24     4    23    1
    25     5    24    1
    26     5    25    1
    27     6    26    1
    28     6    27    1
    29     7    28    1
    30     8    29    1
    31    16    30    1
    32    17    31    1
    33    18    32    1
    34    19    33    1
    35    20    34    1
