@<TRIPOS>MOLECULE
*****
 92 93 0 0 0
SMALL
GASTEIGER

@<TRIPOS>ATOM
      1 CL         -3.1707   -2.9527    1.0922 Cl      1  UNL1       -0.1454
      2 C          -2.6620   -2.2403    3.8344 C.3     2  UNL2       -0.0305
      3 C          -2.8775   -3.7254    3.8318 C.3     2  UNL2        0.0913
      4 O          -2.7555   -4.1699    2.4552 O.3     2  UNL2       -0.4505
      5 C          -1.6064   -3.9884    1.7600 C.2     2  UNL2        0.4029
      6 O          -0.9196   -3.4472    2.6354 O.2     2  UNL2       -0.2263
      7 N          -0.4511   -3.8434    0.9478 N.am    2  UNL2       -0.2644
      8 C           0.8250   -3.2817    1.3118 C.3     2  UNL2        0.0336
      9 C           1.1101   -2.0031    0.5125 C.3     2  UNL2        0.0307
     10 N           0.3384   -2.0157   -0.7179 N.am    2  UNL2       -0.2972
     11 C          -0.3788   -3.1159   -1.3349 C.3     2  UNL2        0.0307
     12 C          -0.4944   -4.2890   -0.4335 C.3     2  UNL2        0.0336
     13 C           0.3663   -0.7301   -1.2804 C.2     2  UNL2        0.2346
     14 O           1.0645   -0.0844   -0.4338 O.2     2  UNL2       -0.2738
     15 C           0.3674    0.5945   -1.9054 C.3     2  UNL2        0.1089
     16 C           0.9307    0.4660   -3.2930 C.3     2  UNL2       -0.0021
     17 C           2.2950   -0.0305   -3.4125 C.ar    2  UNL2       -0.0446
     18 C           3.3123    0.8951   -3.4345 C.ar    2  UNL2       -0.0585
     19 C           4.6589    0.5409   -3.5460 C.ar    2  UNL2       -0.0607
     20 C           4.9438   -0.8114   -3.6353 C.ar    2  UNL2       -0.0469
     21 C           3.9920   -1.8079   -3.6210 C.ar    2  UNL2        0.0650
     22 C           2.7068   -1.3441   -3.5086 C.ar    2  UNL2       -0.0437
     23 C           4.2620   -3.2387   -3.7054 C.2     2  UNL2        0.3081
     24 N           5.4688   -3.6764   -3.1649 N.pl3   2  UNL2       -0.2466
     25 N           3.4437   -4.1076   -4.2482 N.2     2  UNL2       -0.0994
     26 N           1.0467    1.4885   -1.0454 N.3     2  UNL2       -0.1777
     27 S           0.2708    2.8772   -0.4951 S.O2    2  UNL2        0.0596
     28 O           0.0547    3.7684   -1.7186 O.2     2  UNL2       -0.1530
     29 O           1.3544    3.7098    0.2116 O.2     2  UNL2       -0.1530
     30 C          -1.1424    2.6713    0.4332 C.ar    2  UNL2        0.1121
     31 C          -2.3961    2.7842   -0.0838 C.ar    2  UNL2       -0.0179
     32 C          -3.5281    2.5971    0.7338 C.ar    2  UNL2       -0.0530
     33 C          -3.4223    2.2944    2.0770 C.ar    2  UNL2       -0.0441
     34 C          -2.1516    2.1807    2.5873 C.ar    2  UNL2       -0.0530
     35 C          -1.0302    2.3675    1.7720 C.ar    2  UNL2       -0.0179
     36 C           0.2213    2.1952    2.5477 C.3     2  UNL2       -0.0196
     37 C           0.3739    3.3552    3.5322 C.3     2  UNL2       -0.0586
     38 C           0.2147    0.9279    3.3823 C.3     2  UNL2       -0.0586
     39 C          -4.6273    2.1119    2.9433 C.3     2  UNL2       -0.0215
     40 C          -4.5883    0.8092    3.6855 C.3     2  UNL2       -0.0586
     41 C          -4.6991    3.2853    3.8997 C.3     2  UNL2       -0.0586
     42 C          -2.8019    3.0540   -1.4577 C.3     2  UNL2       -0.0196
     43 C          -3.4012    1.7606   -2.0307 C.3     2  UNL2       -0.0586
     44 C          -3.9290    4.0924   -1.5148 C.3     2  UNL2       -0.0586
     45 H          -4.1916   -3.2940    1.9500 H       1  UNL1        0.1454
     46 H          -3.4676   -1.7354    4.4375 H       2  UNL2        0.0262
     47 H          -2.6715   -1.8308    2.8102 H       2  UNL2        0.0262
     48 H          -1.6561   -1.9914    4.2574 H       2  UNL2        0.0262
     49 H          -2.0887   -4.2395    4.3960 H       2  UNL2        0.0695
     50 H          -3.8873   -3.9874    4.1317 H       2  UNL2        0.0695
     51 H           1.5912   -4.0280    0.9961 H       2  UNL2        0.0481
     52 H           0.9173   -3.1225    2.3817 H       2  UNL2        0.0481
     53 H           0.8845   -1.1662    1.1822 H       2  UNL2        0.0480
     54 H           2.1909   -2.0173    0.2183 H       2  UNL2        0.0480
     55 H           0.2309   -3.4229   -2.2370 H       2  UNL2        0.0480
     56 H          -1.3537   -2.8055   -1.7518 H       2  UNL2        0.0480
     57 H           0.3845   -4.9580   -0.6349 H       2  UNL2        0.0481
     58 H          -1.4013   -4.8633   -0.6856 H       2  UNL2        0.0481
     59 H          -0.6560    1.0021   -2.0643 H       2  UNL2        0.0576
     60 H           0.2599   -0.3101   -3.7760 H       2  UNL2        0.0334
     61 H           0.8126    1.3676   -3.9039 H       2  UNL2        0.0334
     62 H           3.1267    1.9634   -3.3670 H       2  UNL2        0.0620
     63 H           5.4259    1.2927   -3.5610 H       2  UNL2        0.0618
     64 H           5.9896   -1.1164   -3.7216 H       2  UNL2        0.0626
     65 H           1.8971   -2.0910   -3.4909 H       2  UNL2        0.0629
     66 H           5.8513   -4.6262   -3.3913 H       2  UNL2        0.2884
     67 H           6.3799   -3.9852   -2.7451 H       2  UNL2        0.2884
     68 H           3.6616   -5.1023   -4.2930 H       2  UNL2        0.3633
     69 H           2.0580    1.6083   -1.2584 H       2  UNL2        0.1489
     70 H          -4.5679    2.6726    0.3924 H       2  UNL2        0.0624
     71 H          -2.1081    1.9377    3.6639 H       2  UNL2        0.0624
     72 H           1.1490    2.2631    1.9293 H       2  UNL2        0.0344
     73 H           1.4260    3.6336    3.7057 H       2  UNL2        0.0235
     74 H          -0.1352    3.0754    4.4964 H       2  UNL2        0.0235
     75 H          -0.1745    4.2228    3.1357 H       2  UNL2        0.0235
     76 H          -0.7281    0.3938    3.1029 H       2  UNL2        0.0235
     77 H           0.1204    1.1158    4.4722 H       2  UNL2        0.0235
     78 H           1.1281    0.3316    3.2487 H       2  UNL2        0.0235
     79 H          -5.5604    2.1549    2.3492 H       2  UNL2        0.0343
     80 H          -3.7701    0.8327    4.4342 H       2  UNL2        0.0235
     81 H          -4.4669    0.0034    2.9356 H       2  UNL2        0.0235
     82 H          -5.5780    0.6400    4.1520 H       2  UNL2        0.0235
     83 H          -4.1351    3.0841    4.8131 H       2  UNL2        0.0235
     84 H          -4.3408    4.1846    3.3470 H       2  UNL2        0.0235
     85 H          -5.7553    3.4609    4.1776 H       2  UNL2        0.0235
     86 H          -2.0544    3.3561   -2.1720 H       2  UNL2        0.0344
     87 H          -3.2970    0.9709   -1.2687 H       2  UNL2        0.0235
     88 H          -2.8414    1.4103   -2.9161 H       2  UNL2        0.0235
     89 H          -4.4587    1.9080   -2.3456 H       2  UNL2        0.0235
     90 H          -3.8234    4.7691   -2.3918 H       2  UNL2        0.0235
     91 H          -4.9083    3.5977   -1.5918 H       2  UNL2        0.0235
     92 H          -3.9566    4.7178   -0.5943 H       2  UNL2        0.0235
@<TRIPOS>BOND
     1     2     3    1
     2     3     4    1
     3     4     5    1
     4     5     6    2
     5     5     7   am
     6     7     8    1
     7     8     9    1
     8     9    10    1
     9    10    11    1
    10    11    12    1
    11    10    13   am
    12    13    14    2
    13    13    15    1
    14    15    16    1
    15    16    17    1
    16    17    18   ar
    17    18    19   ar
    18    19    20   ar
    19    20    21   ar
    20    21    22   ar
    21    21    23    1
    22    23    24    1
    23    23    25    2
    24    15    26    1
    25    26    27    1
    26    27    28    2
    27    27    29    2
    28    27    30    1
    29    30    31   ar
    30    31    32   ar
    31    32    33   ar
    32    33    34   ar
    33    34    35   ar
    34    35    36    1
    35    36    37    1
    36    36    38    1
    37    33    39    1
    38    39    40    1
    39    39    41    1
    40    31    42    1
    41    42    43    1
    42    42    44    1
    43    12     7    1
    44    22    17   ar
    45    35    30   ar
    46     1    45    1
    47     2    46    1
    48     2    47    1
    49     2    48    1
    50     3    49    1
    51     3    50    1
    52     8    51    1
    53     8    52    1
    54     9    53    1
    55     9    54    1
    56    11    55    1
    57    11    56    1
    58    12    57    1
    59    12    58    1
    60    15    59    1
    61    16    60    1
    62    16    61    1
    63    18    62    1
    64    19    63    1
    65    20    64    1
    66    22    65    1
    67    24    66    1
    68    24    67    1
    69    25    68    1
    70    26    69    1
    71    32    70    1
    72    34    71    1
    73    36    72    1
    74    37    73    1
    75    37    74    1
    76    37    75    1
    77    38    76    1
    78    38    77    1
    79    38    78    1
    80    39    79    1
    81    40    80    1
    82    40    81    1
    83    40    82    1
    84    41    83    1
    85    41    84    1
    86    41    85    1
    87    42    86    1
    88    43    87    1
    89    43    88    1
    90    43    89    1
    91    44    90    1
    92    44    91    1
    93    44    92    1
