@<TRIPOS>MOLECULE
*****
 42 45 0 0 0
SMALL
GASTEIGER

@<TRIPOS>ATOM
      1 N          -2.7602    3.6061    0.0709 N.pl3   1  UNL1       -0.3134
      2 C          -3.1184    2.2132    0.1213 C.2     1  UNL1        0.2764
      3 N          -2.2253    1.2989    0.2683 N.2     1  UNL1       -0.2194
      4 C          -2.6680   -0.1093    0.3117 C.3     1  UNL1        0.1590
      5 C          -1.4767   -0.9584    0.0217 C.ar    1  UNL1        0.0059
      6 C          -0.2273   -0.4090   -0.1901 C.ar    1  UNL1       -0.0334
      7 C           0.8715   -1.2012   -0.4398 C.ar    1  UNL1        0.0341
      8 N           2.1534   -0.6276   -0.6567 N.am    1  UNL1       -0.2802
      9 C           3.0167   -0.4053    0.4466 C.2     1  UNL1        0.2666
     10 O           2.6213   -0.7257    1.6075 O.2     1  UNL1       -0.2682
     11 C           4.3236    0.1755    0.2563 C.ar    1  UNL1        0.1257
     12 C           5.1729    0.3983    1.3101 C.ar    1  UNL1       -0.0301
     13 C           6.4376    0.9574    1.1482 C.ar    1  UNL1       -0.0441
     14 C           6.8218    1.2903   -0.1438 C.ar    1  UNL1        0.0360
     15 BR          8.5277    2.0579   -0.4660 Br      1  UNL1       -0.0487
     16 C           5.9463    1.0526   -1.1700 C.ar    1  UNL1        0.0424
     17 N           4.7378    0.5128   -0.9724 N.ar    1  UNL1       -0.2493
     18 C           0.6843   -2.5605   -0.4717 C.ar    1  UNL1       -0.0391
     19 C          -0.5365   -3.1588   -0.2681 C.ar    1  UNL1       -0.0413
     20 C          -1.6314   -2.3233   -0.0173 C.ar    1  UNL1        0.0467
     21 CL         -3.1582   -3.1498    0.2084 Cl      1  UNL1       -0.0832
     22 C          -3.0337   -0.3466    1.7517 C.3     1  UNL1        0.2685
     23 F          -1.8659   -0.1099    2.4944 F       1  UNL1       -0.2062
     24 F          -3.9626    0.5470    2.2346 F       1  UNL1       -0.2062
     25 C          -3.7080   -0.3609   -0.6907 C.3     1  UNL1        0.0344
     26 C          -5.1257   -0.6309   -0.3918 C.3     1  UNL1       -0.0064
     27 C          -4.7586    0.7073   -0.8446 C.3     1  UNL1        0.1091
     28 O          -4.4483    1.7836    0.0136 O.2     1  UNL1       -0.4622
     29 H          -2.7932    4.2416    0.8706 H       1  UNL1        0.1466
     30 H          -2.4498    3.9645   -0.8561 H       1  UNL1        0.1466
     31 H          -0.1285    0.6610   -0.1558 H       1  UNL1        0.0640
     32 H           2.4243   -0.3858   -1.6220 H       1  UNL1        0.1552
     33 H           4.8872    0.1431    2.3292 H       1  UNL1        0.0641
     34 H           7.1092    1.1345    1.9751 H       1  UNL1        0.0630
     35 H           6.2891    1.3307   -2.1787 H       1  UNL1        0.0841
     36 H           1.5359   -3.2213   -0.6673 H       1  UNL1        0.0636
     37 H          -0.6461   -4.2276   -0.3003 H       1  UNL1        0.0633
     38 H          -3.3068   -1.3922    1.9492 H       1  UNL1        0.1047
     39 H          -3.3204   -0.7182   -1.6909 H       1  UNL1        0.0366
     40 H          -5.6776   -1.2604   -1.1218 H       1  UNL1        0.0306
     41 H          -5.4680   -0.8371    0.6546 H       1  UNL1        0.0306
     42 H          -5.0655    1.0436   -1.8601 H       1  UNL1        0.0737
@<TRIPOS>BOND
     1     1     2    1
     2     2     3    2
     3     3     4    1
     4     4     5    1
     5     5     6   ar
     6     6     7   ar
     7     7     8    1
     8     8     9   am
     9     9    10    2
    10     9    11    1
    11    11    12   ar
    12    12    13   ar
    13    13    14   ar
    14    14    15    1
    15    14    16   ar
    16    16    17   ar
    17     7    18   ar
    18    18    19   ar
    19    19    20   ar
    20    20    21    1
    21     4    22    1
    22    22    23    1
    23    22    24    1
    24     4    25    1
    25    25    26    1
    26    26    27    1
    27    27    28    1
    28    28     2    1
    29    20     5   ar
    30    27    25    1
    31    17    11   ar
    32     1    29    1
    33     1    30    1
    34     6    31    1
    35     8    32    1
    36    12    33    1
    37    13    34    1
    38    16    35    1
    39    18    36    1
    40    19    37    1
    41    22    38    1
    42    25    39    1
    43    26    40    1
    44    26    41    1
    45    27    42    1
