
     RDKit          3D

 42 45  0  0  0  0  0  0  0  0999 V2000
   -2.7602    3.6061    0.0709 N   0  0  0  0  0  0  0  0  0  0  0  0
   -3.1184    2.2132    0.1213 C   0  0  0  0  0  0  0  0  0  0  0  0
   -2.2253    1.2989    0.2683 N   0  0  0  0  0  0  0  0  0  0  0  0
   -2.6680   -0.1093    0.3117 C   0  0  1  0  0  0  0  0  0  0  0  0
   -1.4767   -0.9584    0.0217 C   0  0  0  0  0  0  0  0  0  0  0  0
   -0.2273   -0.4090   -0.1901 C   0  0  0  0  0  0  0  0  0  0  0  0
    0.8715   -1.2012   -0.4398 C   0  0  0  0  0  0  0  0  0  0  0  0
    2.1534   -0.6276   -0.6567 N   0  0  0  0  0  0  0  0  0  0  0  0
    3.0167   -0.4053    0.4466 C   0  0  0  0  0  0  0  0  0  0  0  0
    2.6213   -0.7257    1.6075 O   0  0  0  0  0  0  0  0  0  0  0  0
    4.3236    0.1755    0.2563 C   0  0  0  0  0  0  0  0  0  0  0  0
    5.1729    0.3983    1.3101 C   0  0  0  0  0  0  0  0  0  0  0  0
    6.4376    0.9574    1.1482 C   0  0  0  0  0  0  0  0  0  0  0  0
    6.8218    1.2903   -0.1438 C   0  0  0  0  0  0  0  0  0  0  0  0
    8.5277    2.0579   -0.4660 Br  0  0  0  0  0  0  0  0  0  0  0  0
    5.9463    1.0526   -1.1700 C   0  0  0  0  0  0  0  0  0  0  0  0
    4.7378    0.5128   -0.9724 N   0  0  0  0  0  0  0  0  0  0  0  0
    0.6843   -2.5605   -0.4717 C   0  0  0  0  0  0  0  0  0  0  0  0
   -0.5365   -3.1588   -0.2681 C   0  0  0  0  0  0  0  0  0  0  0  0
   -1.6314   -2.3233   -0.0173 C   0  0  0  0  0  0  0  0  0  0  0  0
   -3.1582   -3.1498    0.2084 Cl  0  0  0  0  0  0  0  0  0  0  0  0
   -3.0337   -0.3466    1.7517 C   0  0  0  0  0  0  0  0  0  0  0  0
   -1.8659   -0.1099    2.4944 F   0  0  0  0  0  0  0  0  0  0  0  0
   -3.9626    0.5470    2.2346 F   0  0  0  0  0  0  0  0  0  0  0  0
   -3.7080   -0.3609   -0.6907 C   0  0  1  0  0  0  0  0  0  0  0  0
   -5.1257   -0.6309   -0.3918 C   0  0  0  0  0  0  0  0  0  0  0  0
   -4.7586    0.7073   -0.8446 C   0  0  1  0  0  0  0  0  0  0  0  0
   -4.4483    1.7836    0.0136 O   0  0  0  0  0  0  0  0  0  0  0  0
   -2.7932    4.2416    0.8706 H   0  0  0  0  0  0  0  0  0  0  0  0
   -2.4498    3.9645   -0.8561 H   0  0  0  0  0  0  0  0  0  0  0  0
   -0.1285    0.6610   -0.1558 H   0  0  0  0  0  0  0  0  0  0  0  0
    2.4243   -0.3858   -1.6220 H   0  0  0  0  0  0  0  0  0  0  0  0
    4.8872    0.1431    2.3292 H   0  0  0  0  0  0  0  0  0  0  0  0
    7.1092    1.1345    1.9751 H   0  0  0  0  0  0  0  0  0  0  0  0
    6.2891    1.3307   -2.1787 H   0  0  0  0  0  0  0  0  0  0  0  0
    1.5359   -3.2213   -0.6673 H   0  0  0  0  0  0  0  0  0  0  0  0
   -0.6461   -4.2276   -0.3003 H   0  0  0  0  0  0  0  0  0  0  0  0
   -3.3068   -1.3922    1.9492 H   0  0  0  0  0  0  0  0  0  0  0  0
   -3.3204   -0.7182   -1.6909 H   0  0  0  0  0  0  0  0  0  0  0  0
   -5.6776   -1.2604   -1.1218 H   0  0  0  0  0  0  0  0  0  0  0  0
   -5.4680   -0.8371    0.6546 H   0  0  0  0  0  0  0  0  0  0  0  0
   -5.0655    1.0436   -1.8601 H   0  0  0  0  0  0  0  0  0  0  0  0
  1  2  1  0
  2  3  2  0
  3  4  1  0
  4  5  1  0
  5  6  2  0
  6  7  1  0
  7  8  1  0
  8  9  1  0
  9 10  2  0
  9 11  1  0
 11 12  2  0
 12 13  1  0
 13 14  2  0
 14 15  1  0
 14 16  1  0
 16 17  2  0
  7 18  2  0
 18 19  1  0
 19 20  2  0
 20 21  1  0
  4 22  1  1
 22 23  1  0
 22 24  1  0
  4 25  1  0
 25 26  1  0
 26 27  1  0
 27 28  1  0
 28  2  1  0
 20  5  1  0
 27 25  1  0
 17 11  1  0
  1 29  1  0
  1 30  1  0
  6 31  1  0
  8 32  1  0
 12 33  1  0
 13 34  1  0
 16 35  1  0
 18 36  1  0
 19 37  1  0
 22 38  1  0
 25 39  1  6
 26 40  1  0
 26 41  1  0
 27 42  1  6
M  END
$$$$
