
     RDKit          3D

 56 58  0  0  0  0  0  0  0  0999 V2000
    6.7085   -1.1795    0.1823 C   0  0  0  0  0  0  0  0  0  0  0  0
    6.2769   -0.2439   -0.9026 C   0  0  0  0  0  0  0  0  0  0  0  0
    4.7682   -0.0879   -0.9079 C   0  0  0  0  0  0  0  0  0  0  0  0
    4.2610    0.5648    0.6575 S   0  0  0  0  0  6  0  0  0  0  0  0
    4.7122   -0.4159    1.7374 O   0  0  0  0  0  0  0  0  0  0  0  0
    4.9859    1.8574    0.9337 O   0  0  0  0  0  0  0  0  0  0  0  0
    2.6057    0.7998    0.8171 N   0  0  0  0  0  0  0  0  0  0  0  0
    1.9684    1.7111   -0.0697 C   0  0  0  0  0  0  0  0  0  0  0  0
    1.0991    1.0422   -1.0875 C   0  0  0  0  0  0  0  0  0  0  0  0
   -0.1160    0.3170   -0.3415 C   0  0  0  0  0  0  0  0  0  0  0  0
   -1.1120    1.4460   -0.3674 C   0  0  0  0  0  0  0  0  0  0  0  0
   -2.3894    1.4260    0.1280 N   0  0  0  0  0  0  0  0  0  0  0  0
   -3.5403    0.8148   -0.3898 C   0  0  0  0  0  0  0  0  0  0  0  0
   -3.5596    0.1917   -1.4610 O   0  0  0  0  0  0  0  0  0  0  0  0
   -4.8104    0.8944    0.3406 C   0  0  0  0  0  0  0  0  0  0  0  0
   -5.4155    2.1188    0.4871 C   0  0  0  0  0  0  0  0  0  0  0  0
   -6.6106    2.2383    1.1615 C   0  0  0  0  0  0  0  0  0  0  0  0
   -7.2272    1.1281    1.7058 C   0  0  0  0  0  0  0  0  0  0  0  0
   -8.7557    1.2694    2.5670 Cl  0  0  0  0  0  0  0  0  0  0  0  0
   -6.6157   -0.0884    1.5547 C   0  0  0  0  0  0  0  0  0  0  0  0
   -5.4045   -0.2175    0.8721 C   0  0  0  0  0  0  0  0  0  0  0  0
   -4.6822   -1.7920    0.7201 Cl  0  0  0  0  0  0  0  0  0  0  0  0
   -0.3572   -0.8599   -1.1517 C   0  0  0  0  0  0  0  0  0  0  0  0
   -1.2889   -1.9299   -0.7684 C   0  0  0  0  0  0  0  0  0  0  0  0
   -1.0178   -2.7177    0.4840 C   0  0  0  0  0  0  0  0  0  0  0  0
   -0.9006   -3.3757   -0.8572 C   0  0  0  0  0  0  0  0  0  0  0  0
    0.3715    0.1007    1.0711 C   0  0  0  0  0  0  0  0  0  0  0  0
    1.8290   -0.3633    1.1191 C   0  0  0  0  0  0  0  0  0  0  0  0
    7.6451   -1.7114   -0.1676 H   0  0  0  0  0  0  0  0  0  0  0  0
    6.9454   -0.6071    1.1252 H   0  0  0  0  0  0  0  0  0  0  0  0
    5.9147   -1.9165    0.4170 H   0  0  0  0  0  0  0  0  0  0  0  0
    6.7570    0.7485   -0.6807 H   0  0  0  0  0  0  0  0  0  0  0  0
    6.6092   -0.6440   -1.8648 H   0  0  0  0  0  0  0  0  0  0  0  0
    4.3080   -1.0387   -1.1653 H   0  0  0  0  0  0  0  0  0  0  0  0
    4.5514    0.6416   -1.7226 H   0  0  0  0  0  0  0  0  0  0  0  0
    2.7919    2.2640   -0.5967 H   0  0  0  0  0  0  0  0  0  0  0  0
    1.4068    2.4915    0.5196 H   0  0  0  0  0  0  0  0  0  0  0  0
    0.6807    1.7363   -1.8186 H   0  0  0  0  0  0  0  0  0  0  0  0
    1.6544    0.2095   -1.5580 H   0  0  0  0  0  0  0  0  0  0  0  0
   -0.5479    2.3654    0.0617 H   0  0  0  0  0  0  0  0  0  0  0  0
   -1.1241    1.8049   -1.4892 H   0  0  0  0  0  0  0  0  0  0  0  0
   -2.5630    1.9586    1.0653 H   0  0  0  0  0  0  0  0  0  0  0  0
   -4.9447    3.0031    0.0661 H   0  0  0  0  0  0  0  0  0  0  0  0
   -7.0802    3.2083    1.2734 H   0  0  0  0  0  0  0  0  0  0  0  0
   -7.0769   -0.9639    1.9690 H   0  0  0  0  0  0  0  0  0  0  0  0
    0.6795   -1.3216   -1.3967 H   0  0  0  0  0  0  0  0  0  0  0  0
   -0.6495   -0.4885   -2.2058 H   0  0  0  0  0  0  0  0  0  0  0  0
   -2.3524   -1.8067   -1.0939 H   0  0  0  0  0  0  0  0  0  0  0  0
   -1.8883   -2.8762    1.1350 H   0  0  0  0  0  0  0  0  0  0  0  0
   -0.0186   -2.6560    0.9862 H   0  0  0  0  0  0  0  0  0  0  0  0
   -1.6757   -4.1354   -1.0747 H   0  0  0  0  0  0  0  0  0  0  0  0
    0.0914   -3.6611   -1.2416 H   0  0  0  0  0  0  0  0  0  0  0  0
    0.3517    1.1472    1.5261 H   0  0  0  0  0  0  0  0  0  0  0  0
   -0.2183   -0.5772    1.6854 H   0  0  0  0  0  0  0  0  0  0  0  0
    1.9513   -1.1983    0.4252 H   0  0  0  0  0  0  0  0  0  0  0  0
    2.0180   -0.6252    2.1916 H   0  0  0  0  0  0  0  0  0  0  0  0
  1  2  1  0
  2  3  1  0
  3  4  1  0
  4  5  2  0
  4  6  2  0
  4  7  1  0
  7  8  1  0
  8  9  1  0
  9 10  1  0
 10 11  1  0
 11 12  1  0
 12 13  1  0
 13 14  2  0
 13 15  1  0
 15 16  2  0
 16 17  1  0
 17 18  2  0
 18 19  1  0
 18 20  1  0
 20 21  2  0
 21 22  1  0
 10 23  1  0
 23 24  1  0
 24 25  1  0
 25 26  1  0
 10 27  1  0
 27 28  1  0
 28  7  1  0
 21 15  1  0
 26 24  1  0
  1 29  1  0
  1 30  1  0
  1 31  1  0
  2 32  1  0
  2 33  1  0
  3 34  1  0
  3 35  1  0
  8 36  1  0
  8 37  1  0
  9 38  1  0
  9 39  1  0
 11 40  1  0
 11 41  1  0
 12 42  1  0
 16 43  1  0
 17 44  1  0
 20 45  1  0
 23 46  1  0
 23 47  1  0
 24 48  1  0
 25 49  1  0
 25 50  1  0
 26 51  1  0
 26 52  1  0
 27 53  1  0
 27 54  1  0
 28 55  1  0
 28 56  1  0
M  END
$$$$
