@<TRIPOS>MOLECULE
*****
 56 58 0 0 0
SMALL
GASTEIGER

@<TRIPOS>ATOM
      1 C           6.7085   -1.1795    0.1823 C.3     1  UNL1       -0.0638
      2 C           6.2769   -0.2439   -0.9026 C.3     1  UNL1       -0.0350
      3 C           4.7682   -0.0879   -0.9079 C.3     1  UNL1        0.0817
      4 S           4.2610    0.5648    0.6575 S.O2    1  UNL1        0.0318
      5 O           4.7122   -0.4159    1.7374 O.2     1  UNL1       -0.1580
      6 O           4.9859    1.8574    0.9337 O.2     1  UNL1       -0.1580
      7 N           2.6057    0.7998    0.8171 N.3     1  UNL1       -0.1811
      8 C           1.9684    1.7111   -0.0697 C.3     1  UNL1        0.0207
      9 C           1.0991    1.0422   -1.0875 C.3     1  UNL1       -0.0314
     10 C          -0.1160    0.3170   -0.3415 C.3     1  UNL1       -0.0110
     11 C          -1.1120    1.4460   -0.3674 C.3     1  UNL1        0.0176
     12 N          -2.3894    1.4260    0.1280 N.am    1  UNL1       -0.3108
     13 C          -3.5403    0.8148   -0.3898 C.2     1  UNL1        0.2455
     14 O          -3.5596    0.1917   -1.4610 O.2     1  UNL1       -0.2702
     15 C          -4.8104    0.8944    0.3406 C.ar    1  UNL1        0.0550
     16 C          -5.4155    2.1188    0.4871 C.ar    1  UNL1       -0.0468
     17 C          -6.6106    2.2383    1.1615 C.ar    1  UNL1       -0.0426
     18 C          -7.2272    1.1281    1.7058 C.ar    1  UNL1        0.0424
     19 CL         -8.7557    1.2694    2.5670 Cl      1  UNL1       -0.0835
     20 C          -6.6157   -0.0884    1.5547 C.ar    1  UNL1       -0.0243
     21 C          -5.4045   -0.2175    0.8721 C.ar    1  UNL1        0.0544
     22 CL         -4.6822   -1.7920    0.7201 Cl      1  UNL1       -0.0827
     23 C          -0.3572   -0.8599   -1.1517 C.3     1  UNL1       -0.0430
     24 C          -1.2889   -1.9299   -0.7684 C.3     1  UNL1       -0.0405
     25 C          -1.0178   -2.7177    0.4840 C.3     1  UNL1       -0.0499
     26 C          -0.9006   -3.3757   -0.8572 C.3     1  UNL1       -0.0499
     27 C           0.3715    0.1007    1.0711 C.3     1  UNL1       -0.0314
     28 C           1.8290   -0.3633    1.1191 C.3     1  UNL1        0.0207
     29 H           7.6451   -1.7114   -0.1676 H       1  UNL1        0.0230
     30 H           6.9454   -0.6071    1.1252 H       1  UNL1        0.0230
     31 H           5.9147   -1.9165    0.4170 H       1  UNL1        0.0230
     32 H           6.7570    0.7485   -0.6807 H       1  UNL1        0.0279
     33 H           6.6092   -0.6440   -1.8648 H       1  UNL1        0.0279
     34 H           4.3080   -1.0387   -1.1653 H       1  UNL1        0.0515
     35 H           4.5514    0.6416   -1.7226 H       1  UNL1        0.0515
     36 H           2.7919    2.2640   -0.5967 H       1  UNL1        0.0444
     37 H           1.4068    2.4915    0.5196 H       1  UNL1        0.0444
     38 H           0.6807    1.7363   -1.8186 H       1  UNL1        0.0284
     39 H           1.6544    0.2095   -1.5580 H       1  UNL1        0.0284
     40 H          -0.5479    2.3654    0.0617 H       1  UNL1        0.0467
     41 H          -1.1241    1.8049   -1.4892 H       1  UNL1        0.0467
     42 H          -2.5630    1.9586    1.0653 H       1  UNL1        0.1490
     43 H          -4.9447    3.0031    0.0661 H       1  UNL1        0.0626
     44 H          -7.0802    3.2083    1.2734 H       1  UNL1        0.0632
     45 H          -7.0769   -0.9639    1.9690 H       1  UNL1        0.0647
     46 H           0.6795   -1.3216   -1.3967 H       1  UNL1        0.0274
     47 H          -0.6495   -0.4885   -2.2058 H       1  UNL1        0.0274
     48 H          -2.3524   -1.8067   -1.0939 H       1  UNL1        0.0301
     49 H          -1.8883   -2.8762    1.1350 H       1  UNL1        0.0268
     50 H          -0.0186   -2.6560    0.9862 H       1  UNL1        0.0268
     51 H          -1.6757   -4.1354   -1.0747 H       1  UNL1        0.0268
     52 H           0.0914   -3.6611   -1.2416 H       1  UNL1        0.0268
     53 H           0.3517    1.1472    1.5261 H       1  UNL1        0.0284
     54 H          -0.2183   -0.5772    1.6854 H       1  UNL1        0.0284
     55 H           1.9513   -1.1983    0.4252 H       1  UNL1        0.0444
     56 H           2.0180   -0.6252    2.1916 H       1  UNL1        0.0444
@<TRIPOS>BOND
     1     1     2    1
     2     2     3    1
     3     3     4    1
     4     4     5    2
     5     4     6    2
     6     4     7    1
     7     7     8    1
     8     8     9    1
     9     9    10    1
    10    10    11    1
    11    11    12    1
    12    12    13   am
    13    13    14    2
    14    13    15    1
    15    15    16   ar
    16    16    17   ar
    17    17    18   ar
    18    18    19    1
    19    18    20   ar
    20    20    21   ar
    21    21    22    1
    22    10    23    1
    23    23    24    1
    24    24    25    1
    25    25    26    1
    26    10    27    1
    27    27    28    1
    28    28     7    1
    29    21    15   ar
    30    26    24    1
    31     1    29    1
    32     1    30    1
    33     1    31    1
    34     2    32    1
    35     2    33    1
    36     3    34    1
    37     3    35    1
    38     8    36    1
    39     8    37    1
    40     9    38    1
    41     9    39    1
    42    11    40    1
    43    11    41    1
    44    12    42    1
    45    16    43    1
    46    17    44    1
    47    20    45    1
    48    23    46    1
    49    23    47    1
    50    24    48    1
    51    25    49    1
    52    25    50    1
    53    26    51    1
    54    26    52    1
    55    27    53    1
    56    27    54    1
    57    28    55    1
    58    28    56    1
