
     RDKit          3D

 48 50  0  0  0  0  0  0  0  0999 V2000
    1.8125    5.4546    1.1652 C   0  0  0  0  0  0  0  0  0  0  0  0
    2.1423    4.1637    0.7608 O   0  0  0  0  0  0  0  0  0  0  0  0
    1.2420    3.0935    0.7629 C   0  0  0  0  0  0  0  0  0  0  0  0
   -0.0630    3.2456    1.1745 C   0  0  0  0  0  0  0  0  0  0  0  0
   -0.9621    2.1815    1.1778 C   0  0  0  0  0  0  0  0  0  0  0  0
   -0.5067    0.9515    0.7516 C   0  0  0  0  0  0  0  0  0  0  0  0
    0.7959    0.7532    0.3299 C   0  0  0  0  0  0  0  0  0  0  0  0
    1.6386    1.8547    0.3519 C   0  0  0  0  0  0  0  0  0  0  0  0
    0.9468   -0.5685   -0.0264 C   0  0  0  0  0  0  0  0  0  0  0  0
    2.2087   -1.1565   -0.5283 C   0  0  0  0  0  0  0  0  0  0  0  0
    3.2239   -1.3952    0.5252 C   0  0  0  0  0  0  0  0  0  0  0  0
    4.4969   -1.9947    0.0045 C   0  0  0  0  0  0  0  0  0  0  0  0
    4.2800   -3.3242   -0.6002 C   0  0  0  0  0  0  0  0  0  0  0  0
    3.1640   -3.8723   -0.5846 O   0  0  0  0  0  0  0  0  0  0  0  0
    5.3193   -4.0236   -1.2157 O   0  0  0  0  0  0  0  0  0  0  0  0
   -0.2800   -1.1559    0.1871 C   0  0  0  0  0  0  0  0  0  0  0  0
   -0.5032   -2.6071   -0.0859 C   0  0  0  0  0  0  0  0  0  0  0  0
   -1.1502   -0.2497    0.6514 N   0  0  0  0  0  0  0  0  0  0  0  0
   -2.5197   -0.5559    0.9745 C   0  0  0  0  0  0  0  0  0  0  0  0
   -3.4588   -0.4111   -0.1417 C   0  0  0  0  0  0  0  0  0  0  0  0
   -3.7508   -1.5150   -0.9315 C   0  0  0  0  0  0  0  0  0  0  0  0
   -4.6430   -1.3461   -1.9850 C   0  0  0  0  0  0  0  0  0  0  0  0
   -5.2321   -0.1261   -2.2546 C   0  0  0  0  0  0  0  0  0  0  0  0
   -6.4356   -0.0386   -3.7302 Br  0  0  0  0  0  0  0  0  0  0  0  0
   -4.9510    0.9702   -1.4808 C   0  0  0  0  0  0  0  0  0  0  0  0
   -4.0517    0.7791   -0.4270 C   0  0  0  0  0  0  0  0  0  0  0  0
    0.8277    5.8126    0.8432 H   0  0  0  0  0  0  0  0  0  0  0  0
    2.6112    6.1369    0.7747 H   0  0  0  0  0  0  0  0  0  0  0  0
    1.8385    5.5386    2.2761 H   0  0  0  0  0  0  0  0  0  0  0  0
   -0.4339    4.1867    1.5069 H   0  0  0  0  0  0  0  0  0  0  0  0
   -1.9762    2.3021    1.5041 H   0  0  0  0  0  0  0  0  0  0  0  0
    2.6578    1.7305    0.0293 H   0  0  0  0  0  0  0  0  0  0  0  0
    2.6484   -0.3646   -1.2122 H   0  0  0  0  0  0  0  0  0  0  0  0
    2.0430   -2.0144   -1.1949 H   0  0  0  0  0  0  0  0  0  0  0  0
    2.7935   -2.1715    1.2281 H   0  0  0  0  0  0  0  0  0  0  0  0
    3.5130   -0.4817    1.0870 H   0  0  0  0  0  0  0  0  0  0  0  0
    4.9358   -1.2945   -0.7472 H   0  0  0  0  0  0  0  0  0  0  0  0
    5.1887   -2.1469    0.8640 H   0  0  0  0  0  0  0  0  0  0  0  0
    5.1743   -4.9051   -1.6736 H   0  0  0  0  0  0  0  0  0  0  0  0
    0.4264   -3.1827   -0.0488 H   0  0  0  0  0  0  0  0  0  0  0  0
   -1.3156   -3.0169    0.5580 H   0  0  0  0  0  0  0  0  0  0  0  0
   -0.8926   -2.7334   -1.1399 H   0  0  0  0  0  0  0  0  0  0  0  0
   -2.8273    0.1738    1.7804 H   0  0  0  0  0  0  0  0  0  0  0  0
   -2.6191   -1.5645    1.4681 H   0  0  0  0  0  0  0  0  0  0  0  0
   -3.2901   -2.4447   -0.7033 H   0  0  0  0  0  0  0  0  0  0  0  0
   -4.8435   -2.2290   -2.5755 H   0  0  0  0  0  0  0  0  0  0  0  0
   -5.3998    1.9162   -1.6795 H   0  0  0  0  0  0  0  0  0  0  0  0
   -3.8234    1.6458    0.1976 H   0  0  0  0  0  0  0  0  0  0  0  0
  1  2  1  0
  2  3  1  0
  3  4  2  0
  4  5  1  0
  5  6  2  0
  6  7  1  0
  7  8  2  0
  7  9  1  0
  9 10  1  0
 10 11  1  0
 11 12  1  0
 12 13  1  0
 13 14  2  0
 13 15  1  0
  9 16  2  0
 16 17  1  0
 16 18  1  0
 18 19  1  0
 19 20  1  0
 20 21  2  0
 21 22  1  0
 22 23  2  0
 23 24  1  0
 23 25  1  0
 25 26  2  0
  8  3  1  0
 26 20  1  0
 18  6  1  0
  1 27  1  0
  1 28  1  0
  1 29  1  0
  4 30  1  0
  5 31  1  0
  8 32  1  0
 10 33  1  0
 10 34  1  0
 11 35  1  0
 11 36  1  0
 12 37  1  0
 12 38  1  0
 15 39  1  0
 17 40  1  0
 17 41  1  0
 17 42  1  0
 19 43  1  0
 19 44  1  0
 21 45  1  0
 22 46  1  0
 25 47  1  0
 26 48  1  0
M  END
$$$$
