@<TRIPOS>MOLECULE
*****
 48 50 0 0 0
SMALL
GASTEIGER

@<TRIPOS>ATOM
      1 C           1.8125    5.4546    1.1652 C.3     1  UNL1        0.0788
      2 O           2.1423    4.1637    0.7608 O.3     1  UNL1       -0.4951
      3 C           1.2420    3.0935    0.7629 C.ar    1  UNL1        0.1208
      4 C          -0.0630    3.2456    1.1745 C.ar    1  UNL1       -0.0180
      5 C          -0.9621    2.1815    1.1778 C.ar    1  UNL1       -0.0341
      6 C          -0.5067    0.9515    0.7516 C.ar    1  UNL1        0.0500
      7 C           0.7959    0.7532    0.3299 C.ar    1  UNL1        0.0067
      8 C           1.6386    1.8547    0.3519 C.ar    1  UNL1       -0.0105
      9 C           0.9468   -0.5685   -0.0264 C.ar    1  UNL1       -0.0190
     10 C           2.2087   -1.1565   -0.5283 C.3     1  UNL1       -0.0249
     11 C           3.2239   -1.3952    0.5252 C.3     1  UNL1       -0.0389
     12 C           4.4969   -1.9947    0.0045 C.3     1  UNL1        0.0451
     13 C           4.2800   -3.3242   -0.6002 C.2     1  UNL1        0.3047
     14 O           3.1640   -3.8723   -0.5846 O.2     1  UNL1       -0.2510
     15 O           5.3193   -4.0236   -1.2157 O.3     1  UNL1       -0.4806
     16 C          -0.2800   -1.1559    0.1871 C.ar    1  UNL1        0.0203
     17 C          -0.5032   -2.6071   -0.0859 C.3     1  UNL1       -0.0240
     18 N          -1.1502   -0.2497    0.6514 N.ar    1  UNL1       -0.3394
     19 C          -2.5197   -0.5559    0.9745 C.3     1  UNL1        0.0486
     20 C          -3.4588   -0.4111   -0.1417 C.ar    1  UNL1       -0.0277
     21 C          -3.7508   -1.5150   -0.9315 C.ar    1  UNL1       -0.0558
     22 C          -4.6430   -1.3461   -1.9850 C.ar    1  UNL1       -0.0474
     23 C          -5.2321   -0.1261   -2.2546 C.ar    1  UNL1        0.0179
     24 BR         -6.4356   -0.0386   -3.7302 Br      1  UNL1       -0.0503
     25 C          -4.9510    0.9702   -1.4808 C.ar    1  UNL1       -0.0474
     26 C          -4.0517    0.7791   -0.4270 C.ar    1  UNL1       -0.0558
     27 H           0.8277    5.8126    0.8432 H       1  UNL1        0.0660
     28 H           2.6112    6.1369    0.7747 H       1  UNL1        0.0660
     29 H           1.8385    5.5386    2.2761 H       1  UNL1        0.0660
     30 H          -0.4339    4.1867    1.5069 H       1  UNL1        0.0655
     31 H          -1.9762    2.3021    1.5041 H       1  UNL1        0.0639
     32 H           2.6578    1.7305    0.0293 H       1  UNL1        0.0661
     33 H           2.6484   -0.3646   -1.2122 H       1  UNL1        0.0314
     34 H           2.0430   -2.0144   -1.1949 H       1  UNL1        0.0314
     35 H           2.7935   -2.1715    1.2281 H       1  UNL1        0.0274
     36 H           3.5130   -0.4817    1.0870 H       1  UNL1        0.0274
     37 H           4.9358   -1.2945   -0.7472 H       1  UNL1        0.0378
     38 H           5.1887   -2.1469    0.8640 H       1  UNL1        0.0378
     39 H           5.1743   -4.9051   -1.6736 H       1  UNL1        0.2951
     40 H           0.4264   -3.1827   -0.0488 H       1  UNL1        0.0292
     41 H          -1.3156   -3.0169    0.5580 H       1  UNL1        0.0292
     42 H          -0.8926   -2.7334   -1.1399 H       1  UNL1        0.0292
     43 H          -2.8273    0.1738    1.7804 H       1  UNL1        0.0541
     44 H          -2.6191   -1.5645    1.4681 H       1  UNL1        0.0541
     45 H          -3.2901   -2.4447   -0.7033 H       1  UNL1        0.0621
     46 H          -4.8435   -2.2290   -2.5755 H       1  UNL1        0.0629
     47 H          -5.3998    1.9162   -1.6795 H       1  UNL1        0.0629
     48 H          -3.8234    1.6458    0.1976 H       1  UNL1        0.0621
@<TRIPOS>BOND
     1     1     2    1
     2     2     3    1
     3     3     4   ar
     4     4     5   ar
     5     5     6   ar
     6     6     7   ar
     7     7     8   ar
     8     7     9   ar
     9     9    10    1
    10    10    11    1
    11    11    12    1
    12    12    13    1
    13    13    14    2
    14    13    15    1
    15     9    16   ar
    16    16    17    1
    17    16    18   ar
    18    18    19    1
    19    19    20    1
    20    20    21   ar
    21    21    22   ar
    22    22    23   ar
    23    23    24    1
    24    23    25   ar
    25    25    26   ar
    26     8     3   ar
    27    26    20   ar
    28    18     6   ar
    29     1    27    1
    30     1    28    1
    31     1    29    1
    32     4    30    1
    33     5    31    1
    34     8    32    1
    35    10    33    1
    36    10    34    1
    37    11    35    1
    38    11    36    1
    39    12    37    1
    40    12    38    1
    41    15    39    1
    42    17    40    1
    43    17    41    1
    44    17    42    1
    45    19    43    1
    46    19    44    1
    47    21    45    1
    48    22    46    1
    49    25    47    1
    50    26    48    1
