
     RDKit          3D

 54 57  0  0  0  0  0  0  0  0999 V2000
   -6.0017   -3.3800    2.4654 N   0  0  0  0  0  0  0  0  0  0  0  0
   -5.2201   -2.9446    1.8613 C   0  0  0  0  0  0  0  0  0  0  0  0
   -4.1569   -2.3587    1.0112 C   0  0  0  0  0  0  0  0  0  0  0  0
   -4.0454   -1.0148    0.8326 C   0  0  0  0  0  0  0  0  0  0  0  0
   -3.0281   -0.5146    0.0079 C   0  0  0  0  0  0  0  0  0  0  0  0
   -2.1255   -1.3386   -0.6389 C   0  0  0  0  0  0  0  0  0  0  0  0
   -1.0664   -0.7968   -1.5512 C   0  0  2  0  0  0  0  0  0  0  0  0
    0.1106   -1.7160   -1.4780 C   0  0  0  0  0  0  0  0  0  0  0  0
    1.1452   -1.4630   -0.7122 C   0  0  0  0  0  0  0  0  0  0  0  0
    2.1711   -2.5677   -0.8089 C   0  0  0  0  0  0  0  0  0  0  0  0
    1.4790   -3.6591   -1.5481 C   0  0  0  0  0  0  0  0  0  0  0  0
    0.3716   -2.9361   -2.2086 C   0  0  0  0  0  0  0  0  0  0  0  0
   -0.2223   -3.3698   -3.2575 O   0  0  0  0  0  0  0  0  0  0  0  0
    1.3719   -0.2178   -0.0494 N   0  0  0  0  0  0  0  0  0  0  0  0
    2.4707    0.0544    0.8029 C   0  0  0  0  0  0  0  0  0  0  0  0
    3.6482    0.5485    0.2737 C   0  0  0  0  0  0  0  0  0  0  0  0
    4.7520    0.8451    1.0628 C   0  0  0  0  0  0  0  0  0  0  0  0
    4.6950    0.6460    2.4395 C   0  0  0  0  0  0  0  0  0  0  0  0
    3.5074    0.1504    2.9453 C   0  0  0  0  0  0  0  0  0  0  0  0
    3.4157   -0.0703    4.4100 C   0  0  0  0  0  0  0  0  0  0  0  0
    4.6499   -0.2047    4.9667 F   0  0  0  0  0  0  0  0  0  0  0  0
    2.6889   -1.2166    4.6817 F   0  0  0  0  0  0  0  0  0  0  0  0
    2.7944    1.0266    5.0058 F   0  0  0  0  0  0  0  0  0  0  0  0
    2.4139   -0.1422    2.1544 C   0  0  0  0  0  0  0  0  0  0  0  0
    0.3683    0.8041   -0.3107 C   0  0  0  0  0  0  0  0  0  0  0  0
    0.5349    1.9002    0.2776 O   0  0  0  0  0  0  0  0  0  0  0  0
   -0.7133    0.5532   -1.1723 N   0  0  0  0  0  0  0  0  0  0  0  0
   -1.4590    1.6014   -1.7455 C   0  0  0  0  0  0  0  0  0  0  0  0
   -2.3922    1.2824   -2.5780 O   0  0  0  0  0  0  0  0  0  0  0  0
   -1.2851    2.9743   -1.4978 N   0  0  0  0  0  0  0  0  0  0  0  0
   -2.1887    3.9054   -2.2094 C   0  0  0  0  0  0  0  0  0  0  0  0
   -1.8107    5.3008   -1.7834 C   0  0  0  0  0  0  0  0  0  0  0  0
   -1.9665    5.4290   -0.3924 O   0  0  0  0  0  0  0  0  0  0  0  0
   -2.2595   -2.6923   -0.4411 C   0  0  0  0  0  0  0  0  0  0  0  0
   -3.2801   -3.2037    0.3879 C   0  0  0  0  0  0  0  0  0  0  0  0
   -4.7489   -0.3673    1.3346 H   0  0  0  0  0  0  0  0  0  0  0  0
   -2.9441    0.5324   -0.1092 H   0  0  0  0  0  0  0  0  0  0  0  0
   -1.4258   -0.7878   -2.5804 H   0  0  0  0  0  0  0  0  0  0  0  0
    2.5038   -2.8922    0.1873 H   0  0  0  0  0  0  0  0  0  0  0  0
    2.9766   -2.1711   -1.4561 H   0  0  0  0  0  0  0  0  0  0  0  0
    1.1226   -4.4963   -0.9466 H   0  0  0  0  0  0  0  0  0  0  0  0
    2.1278   -4.0344   -2.3897 H   0  0  0  0  0  0  0  0  0  0  0  0
    3.7152    0.7092   -0.7980 H   0  0  0  0  0  0  0  0  0  0  0  0
    5.6752    1.2371    0.6328 H   0  0  0  0  0  0  0  0  0  0  0  0
    5.5535    0.8777    3.0583 H   0  0  0  0  0  0  0  0  0  0  0  0
    1.4894   -0.5319    2.5627 H   0  0  0  0  0  0  0  0  0  0  0  0
   -0.5750    3.3299   -0.8640 H   0  0  0  0  0  0  0  0  0  0  0  0
   -3.2308    3.6911   -1.8664 H   0  0  0  0  0  0  0  0  0  0  0  0
   -2.1055    3.7124   -3.2733 H   0  0  0  0  0  0  0  0  0  0  0  0
   -0.7472    5.4795   -2.0624 H   0  0  0  0  0  0  0  0  0  0  0  0
   -2.4688    6.0711   -2.2297 H   0  0  0  0  0  0  0  0  0  0  0  0
   -1.3283    6.0713   -0.0147 H   0  0  0  0  0  0  0  0  0  0  0  0
   -1.5832   -3.3871   -0.9186 H   0  0  0  0  0  0  0  0  0  0  0  0
   -3.3737   -4.2579    0.5300 H   0  0  0  0  0  0  0  0  0  0  0  0
  1  2  3  0
  2  3  1  0
  3  4  2  0
  4  5  1  0
  5  6  2  0
  6  7  1  0
  7  8  1  0
  8  9  2  0
  9 10  1  0
 10 11  1  0
 11 12  1  0
 12 13  2  0
  9 14  1  0
 14 15  1  0
 15 16  2  0
 16 17  1  0
 17 18  2  0
 18 19  1  0
 19 20  1  0
 20 21  1  0
 20 22  1  0
 20 23  1  0
 19 24  2  0
 14 25  1  0
 25 26  2  0
 25 27  1  0
 27 28  1  0
 28 29  2  0
 28 30  1  0
 30 31  1  0
 31 32  1  0
 32 33  1  0
  6 34  1  0
 34 35  2  0
 35  3  1  0
 27  7  1  0
 12  8  1  0
 24 15  1  0
  4 36  1  0
  5 37  1  0
  7 38  1  6
 10 39  1  0
 10 40  1  0
 11 41  1  0
 11 42  1  0
 16 43  1  0
 17 44  1  0
 18 45  1  0
 24 46  1  0
 30 47  1  0
 31 48  1  0
 31 49  1  0
 32 50  1  0
 32 51  1  0
 33 52  1  0
 34 53  1  0
 35 54  1  0
M  END
$$$$
