@<TRIPOS>MOLECULE
*****
 54 57 0 0 0
SMALL
GASTEIGER

@<TRIPOS>ATOM
      1 N          -6.0017   -3.3800    2.4654 N.1     1  UNL1       -0.1909
      2 C          -5.2201   -2.9446    1.8613 C.1     1  UNL1        0.0992
      3 C          -4.1569   -2.3587    1.0112 C.ar    1  UNL1        0.0518
      4 C          -4.0454   -1.0148    0.8326 C.ar    1  UNL1       -0.0440
      5 C          -3.0281   -0.5146    0.0079 C.ar    1  UNL1       -0.0552
      6 C          -2.1255   -1.3386   -0.6389 C.ar    1  UNL1       -0.0219
      7 C          -1.0664   -0.7968   -1.5512 C.3     1  UNL1        0.0914
      8 C           0.1106   -1.7160   -1.4780 C.2     1  UNL1        0.0379
      9 C           1.1452   -1.4630   -0.7122 C.2     1  UNL1        0.0290
     10 C           2.1711   -2.5677   -0.8089 C.3     1  UNL1       -0.0064
     11 C           1.4790   -3.6591   -1.5481 C.3     1  UNL1        0.0154
     12 C           0.3716   -2.9361   -2.2086 C.2     1  UNL1        0.1632
     13 O          -0.2223   -3.3698   -3.2575 O.2     1  UNL1       -0.2923
     14 N           1.3719   -0.2178   -0.0494 N.am    1  UNL1       -0.2271
     15 C           2.4707    0.0544    0.8029 C.ar    1  UNL1        0.0430
     16 C           3.6482    0.5485    0.2737 C.ar    1  UNL1       -0.0399
     17 C           4.7520    0.8451    1.0628 C.ar    1  UNL1       -0.0595
     18 C           4.6950    0.6460    2.4395 C.ar    1  UNL1       -0.0500
     19 C           3.5074    0.1504    2.9453 C.ar    1  UNL1        0.0566
     20 C           3.4157   -0.0703    4.4100 C.3     1  UNL1        0.4175
     21 F           4.6499   -0.2047    4.9667 F       1  UNL1       -0.1659
     22 F           2.6889   -1.2166    4.6817 F       1  UNL1       -0.1659
     23 F           2.7944    1.0266    5.0058 F       1  UNL1       -0.1659
     24 C           2.4139   -0.1422    2.1544 C.ar    1  UNL1       -0.0283
     25 C           0.3683    0.8041   -0.3107 C.2     1  UNL1        0.3216
     26 O           0.5349    1.9002    0.2776 O.2     1  UNL1       -0.2512
     27 N          -0.7133    0.5532   -1.1723 N.am    1  UNL1       -0.1973
     28 C          -1.4590    1.6014   -1.7455 C.2     1  UNL1        0.3106
     29 O          -2.3922    1.2824   -2.5780 O.2     1  UNL1       -0.2521
     30 N          -1.2851    2.9743   -1.4978 N.am    1  UNL1       -0.2967
     31 C          -2.1887    3.9054   -2.2094 C.3     1  UNL1        0.0362
     32 C          -1.8107    5.3008   -1.7834 C.3     1  UNL1        0.0598
     33 O          -1.9665    5.4290   -0.3924 O.3     1  UNL1       -0.3935
     34 C          -2.2595   -2.6923   -0.4411 C.ar    1  UNL1       -0.0552
     35 C          -3.2801   -3.2037    0.3879 C.ar    1  UNL1       -0.0440
     36 H          -4.7489   -0.3673    1.3346 H       1  UNL1        0.0630
     37 H          -2.9441    0.5324   -0.1092 H       1  UNL1        0.0621
     38 H          -1.4258   -0.7878   -2.5804 H       1  UNL1        0.0608
     39 H           2.5038   -2.8922    0.1873 H       1  UNL1        0.0330
     40 H           2.9766   -2.1711   -1.4561 H       1  UNL1        0.0330
     41 H           1.1226   -4.4963   -0.9466 H       1  UNL1        0.0349
     42 H           2.1278   -4.0344   -2.3897 H       1  UNL1        0.0349
     43 H           3.7152    0.7092   -0.7980 H       1  UNL1        0.0636
     44 H           5.6752    1.2371    0.6328 H       1  UNL1        0.0618
     45 H           5.5535    0.8777    3.0583 H       1  UNL1        0.0623
     46 H           1.4894   -0.5319    2.5627 H       1  UNL1        0.0642
     47 H          -0.5750    3.3299   -0.8640 H       1  UNL1        0.1503
     48 H          -3.2308    3.6911   -1.8664 H       1  UNL1        0.0485
     49 H          -2.1055    3.7124   -3.2733 H       1  UNL1        0.0485
     50 H          -0.7472    5.4795   -2.0624 H       1  UNL1        0.0573
     51 H          -2.4688    6.0711   -2.2297 H       1  UNL1        0.0573
     52 H          -1.3283    6.0713   -0.0147 H       1  UNL1        0.2095
     53 H          -1.5832   -3.3871   -0.9186 H       1  UNL1        0.0621
     54 H          -3.3737   -4.2579    0.5300 H       1  UNL1        0.0630
@<TRIPOS>BOND
     1     1     2    3
     2     2     3    1
     3     3     4   ar
     4     4     5   ar
     5     5     6   ar
     6     6     7    1
     7     7     8    1
     8     8     9    2
     9     9    10    1
    10    10    11    1
    11    11    12    1
    12    12    13    2
    13     9    14    1
    14    14    15    1
    15    15    16   ar
    16    16    17   ar
    17    17    18   ar
    18    18    19   ar
    19    19    20    1
    20    20    21    1
    21    20    22    1
    22    20    23    1
    23    19    24   ar
    24    14    25   am
    25    25    26    2
    26    25    27   am
    27    27    28   am
    28    28    29    2
    29    28    30   am
    30    30    31    1
    31    31    32    1
    32    32    33    1
    33     6    34   ar
    34    34    35   ar
    35    35     3   ar
    36    27     7    1
    37    12     8    1
    38    24    15   ar
    39     4    36    1
    40     5    37    1
    41     7    38    1
    42    10    39    1
    43    10    40    1
    44    11    41    1
    45    11    42    1
    46    16    43    1
    47    17    44    1
    48    18    45    1
    49    24    46    1
    50    30    47    1
    51    31    48    1
    52    31    49    1
    53    32    50    1
    54    32    51    1
    55    33    52    1
    56    34    53    1
    57    35    54    1
