@<TRIPOS>MOLECULE
*****
 61 63 0 0 0
SMALL
GASTEIGER

@<TRIPOS>ATOM
      1 C          -6.7035    2.3670   -1.5365 C.3     1  UNL1       -0.0638
      2 C          -6.0534    1.1337   -0.9780 C.3     1  UNL1       -0.0350
      3 C          -6.0287    1.2020    0.5352 C.3     1  UNL1        0.0817
      4 S          -5.2505   -0.2749    1.1783 S.O2    1  UNL1        0.0319
      5 O          -5.2188   -0.1071    2.6911 O.2     1  UNL1       -0.1580
      6 O          -6.0867   -1.4445    0.7857 O.2     1  UNL1       -0.1580
      7 N          -3.6487   -0.3828    0.5823 N.3     1  UNL1       -0.1787
      8 C          -2.8641    0.7367    1.0120 C.3     1  UNL1        0.0329
      9 C          -1.4392    0.7016    0.5822 C.3     1  UNL1        0.0139
     10 N          -1.0149   -0.4649   -0.0828 N.3     1  UNL1       -0.2927
     11 C           0.4648   -0.5949   -0.1253 C.3     1  UNL1        0.0375
     12 C           1.0345    0.6072   -0.7378 C.3     1  UNL1        0.0304
     13 N           2.4129    0.8016   -0.9889 N.am    1  UNL1       -0.3095
     14 C           3.5257    0.9369   -0.1536 C.2     1  UNL1        0.2470
     15 O           3.3081    0.8799    1.1111 O.2     1  UNL1       -0.2701
     16 C           4.9188    1.1313   -0.4977 C.ar    1  UNL1        0.0732
     17 C           5.9321    0.7515    0.3980 C.ar    1  UNL1        0.0545
     18 CL          5.3812    0.0013    1.8862 Cl      1  UNL1       -0.0827
     19 C           7.2486    0.9563    0.1186 C.ar    1  UNL1       -0.0426
     20 C           7.6609    1.5453   -1.0538 C.ar    1  UNL1       -0.0590
     21 C           6.6953    1.9226   -1.9371 C.ar    1  UNL1       -0.0426
     22 C           5.3303    1.7130   -1.6510 C.ar    1  UNL1        0.0545
     23 CL          4.2301    2.3140   -2.8652 Cl      1  UNL1       -0.0827
     24 C           0.6965   -1.7761   -1.0464 C.3     1  UNL1       -0.0330
     25 C           2.1282   -2.1614   -1.1525 C.3     1  UNL1       -0.0513
     26 C           2.7997   -2.3814    0.1480 C.3     1  UNL1       -0.0529
     27 C           1.9990   -2.0098    1.3255 C.3     1  UNL1       -0.0513
     28 C           0.9622   -0.9664    1.2175 C.3     1  UNL1       -0.0330
     29 C          -1.6869   -1.6730    0.0949 C.3     1  UNL1        0.0139
     30 C          -3.0326   -1.6439    0.7416 C.3     1  UNL1        0.0329
     31 H          -7.7008    2.5384   -1.0588 H       1  UNL1        0.0230
     32 H          -6.9165    2.2268   -2.6284 H       1  UNL1        0.0230
     33 H          -6.1099    3.2850   -1.3933 H       1  UNL1        0.0230
     34 H          -5.0178    1.0659   -1.3218 H       1  UNL1        0.0279
     35 H          -6.6735    0.2714   -1.2661 H       1  UNL1        0.0279
     36 H          -7.0868    1.1745    0.8890 H       1  UNL1        0.0515
     37 H          -5.5685    2.1094    0.9280 H       1  UNL1        0.0515
     38 H          -2.9040    0.7523    2.1302 H       1  UNL1        0.0456
     39 H          -3.4041    1.6536    0.6961 H       1  UNL1        0.0456
     40 H          -1.3697    1.5354   -0.1887 H       1  UNL1        0.0440
     41 H          -0.7747    0.8998    1.4471 H       1  UNL1        0.0440
     42 H           0.6197    1.5580   -0.1881 H       1  UNL1        0.0480
     43 H           0.5100    0.7886   -1.7430 H       1  UNL1        0.0480
     44 H           2.7287    0.8319   -2.0413 H       1  UNL1        0.1491
     45 H           7.9992    0.6493    0.8349 H       1  UNL1        0.0632
     46 H           8.7099    1.7115   -1.2843 H       1  UNL1        0.0618
     47 H           7.0160    2.3886   -2.8651 H       1  UNL1        0.0632
     48 H           0.3800   -1.4559   -2.0903 H       1  UNL1        0.0284
     49 H           0.1108   -2.6632   -0.8303 H       1  UNL1        0.0284
     50 H           2.7104   -1.5217   -1.8588 H       1  UNL1        0.0266
     51 H           2.1209   -3.1647   -1.6888 H       1  UNL1        0.0266
     52 H           3.1089   -3.4761    0.2833 H       1  UNL1        0.0265
     53 H           3.8210   -1.8746    0.1514 H       1  UNL1        0.0265
     54 H           1.6330   -2.9607    1.7996 H       1  UNL1        0.0266
     55 H           2.7444   -1.6430    2.1094 H       1  UNL1        0.0266
     56 H           0.0635   -1.4181    1.8242 H       1  UNL1        0.0284
     57 H           1.1904   -0.1082    1.8776 H       1  UNL1        0.0284
     58 H          -1.8289   -2.1344   -0.9339 H       1  UNL1        0.0440
     59 H          -1.1288   -2.4808    0.6465 H       1  UNL1        0.0440
     60 H          -3.0117   -1.9531    1.8101 H       1  UNL1        0.0456
     61 H          -3.6721   -2.4067    0.2460 H       1  UNL1        0.0456
@<TRIPOS>BOND
     1     1     2    1
     2     2     3    1
     3     3     4    1
     4     4     5    2
     5     4     6    2
     6     4     7    1
     7     7     8    1
     8     8     9    1
     9     9    10    1
    10    10    11    1
    11    11    12    1
    12    12    13    1
    13    13    14   am
    14    14    15    2
    15    14    16    1
    16    16    17   ar
    17    17    18    1
    18    17    19   ar
    19    19    20   ar
    20    20    21   ar
    21    21    22   ar
    22    22    23    1
    23    11    24    1
    24    24    25    1
    25    25    26    1
    26    26    27    1
    27    27    28    1
    28    10    29    1
    29    29    30    1
    30    30     7    1
    31    28    11    1
    32    22    16   ar
    33     1    31    1
    34     1    32    1
    35     1    33    1
    36     2    34    1
    37     2    35    1
    38     3    36    1
    39     3    37    1
    40     8    38    1
    41     8    39    1
    42     9    40    1
    43     9    41    1
    44    12    42    1
    45    12    43    1
    46    13    44    1
    47    19    45    1
    48    20    46    1
    49    21    47    1
    50    24    48    1
    51    24    49    1
    52    25    50    1
    53    25    51    1
    54    26    52    1
    55    26    53    1
    56    27    54    1
    57    27    55    1
    58    28    56    1
    59    28    57    1
    60    29    58    1
    61    29    59    1
    62    30    60    1
    63    30    61    1
