@<TRIPOS>MOLECULE
*****
 71 75 0 0 0
SMALL
GASTEIGER

@<TRIPOS>ATOM
      1 N          -9.8634    2.2159    2.0745 N.am    1  UNL1       -0.3241
      2 C         -10.4616    2.2602    0.7937 C.2     1  UNL1        0.2599
      3 O         -11.5273    2.9039    0.6050 O.2     1  UNL1       -0.2687
      4 C          -9.7675    1.5241   -0.2577 C.ar    1  UNL1        0.1255
      5 N          -8.6451    0.8355   -0.0983 N.ar    1  UNL1       -0.2443
      6 C          -8.0231    0.1638   -1.0857 C.ar    1  UNL1        0.0734
      7 C          -8.5517    0.1610   -2.3727 C.ar    1  UNL1       -0.0377
      8 C          -9.7218    0.8674   -2.5812 C.ar    1  UNL1       -0.0578
      9 C         -10.3197    1.5392   -1.5359 C.ar    1  UNL1       -0.0312
     10 C          -6.7906   -0.5314   -0.6846 C.3     1  UNL1        0.1292
     11 O          -5.9615    0.2730    0.1208 O.3     1  UNL1       -0.3597
     12 C          -4.8804   -0.5995    0.2761 C.3     1  UNL1        0.1117
     13 C          -3.6826    0.0350    0.9228 C.3     1  UNL1        0.0878
     14 O          -2.6989   -0.9317    1.0128 O.3     1  UNL1       -0.2837
     15 P          -1.3033   -0.3160    1.7298 P.3     1  UNL1        0.4835
     16 O          -1.6139    0.4485    3.1864 O.3     1  UNL1       -0.3022
     17 O          -0.6994    0.6820    0.7684 O.2     1  UNL1       -0.2269
     18 O          -0.1954   -1.5446    2.0179 O.3     1  UNL1       -0.1861
     19 P           0.9472   -1.6891    0.7838 P.3     1  UNL1        0.4835
     20 O           1.5331   -3.2764    0.7284 O.3     1  UNL1       -0.3022
     21 O           0.2854   -1.4089   -0.5466 O.2     1  UNL1       -0.2269
     22 O           2.2059   -0.6387    1.1049 O.3     1  UNL1       -0.2837
     23 C           3.4689   -1.1953    0.9172 C.3     1  UNL1        0.0879
     24 C           4.5731   -0.2203    1.2158 C.3     1  UNL1        0.1134
     25 O           5.7940   -0.8549    1.0038 O.3     1  UNL1       -0.3456
     26 C           6.6983    0.1533    0.6647 C.3     1  UNL1        0.1667
     27 C           5.9123    0.9714   -0.3224 C.3     1  UNL1        0.1285
     28 O           6.3422    2.2870   -0.3883 O.3     1  UNL1       -0.3847
     29 C           4.5162    0.9386    0.2629 C.3     1  UNL1        0.1135
     30 O           4.2833    2.1376    0.9210 O.3     1  UNL1       -0.3864
     31 N           7.8780   -0.4374    0.0787 N.ar    1  UNL1       -0.2855
     32 C           8.2961   -1.7124   -0.0583 C.ar    1  UNL1        0.1004
     33 N           9.4926   -1.6960   -0.6935 N.ar    1  UNL1       -0.2306
     34 C           9.8331   -0.4416   -0.9570 C.ar    1  UNL1        0.1473
     35 C           8.8094    0.3675   -0.4681 C.ar    1  UNL1        0.1674
     36 N           8.9772    1.6890   -0.6446 N.ar    1  UNL1       -0.2159
     37 C          10.0520    2.1911   -1.2474 C.ar    1  UNL1        0.1205
     38 N          11.0477    1.4379   -1.7252 N.ar    1  UNL1       -0.2188
     39 C          10.9576    0.0936   -1.5883 C.ar    1  UNL1        0.1472
     40 N          11.9682   -0.7880   -2.0655 N.pl3   1  UNL1       -0.3413
     41 C          -4.5693   -1.1394   -1.0931 C.3     1  UNL1        0.1121
     42 O          -4.4498   -2.5363   -0.9459 O.3     1  UNL1       -0.3865
     43 C          -5.8545   -0.8123   -1.8447 C.3     1  UNL1        0.1151
     44 O          -6.2817   -1.8948   -2.6089 O.3     1  UNL1       -0.3862
     45 H          -9.5882    2.8005    2.8783 H       1  UNL1        0.1453
     46 H          -9.5962    2.8398    2.8750 H       1  UNL1        0.1453
     47 H          -8.0104   -0.3941   -3.1225 H       1  UNL1        0.0636
     48 H         -10.1411    0.8674   -3.5944 H       1  UNL1        0.0619
     49 H         -11.2364    2.0941   -1.6936 H       1  UNL1        0.0640
     50 H          -6.9555   -1.4687   -0.1225 H       1  UNL1        0.0689
     51 H          -5.2735   -1.4016    0.9611 H       1  UNL1        0.0646
     52 H          -3.3238    0.8688    0.2683 H       1  UNL1        0.0592
     53 H          -3.9916    0.4417    1.9009 H       1  UNL1        0.0592
     54 H          -2.2391   -0.0775    3.7443 H       1  UNL1        0.2220
     55 H           1.1393   -3.7806   -0.0280 H       1  UNL1        0.2220
     56 H           3.6175   -2.1299    1.4968 H       1  UNL1        0.0592
     57 H           3.5342   -1.4488   -0.1596 H       1  UNL1        0.0592
     58 H           4.4656    0.1086    2.2823 H       1  UNL1        0.0647
     59 H           6.9483    0.7815    1.5625 H       1  UNL1        0.0866
     60 H           5.9102    0.4758   -1.3160 H       1  UNL1        0.0665
     61 H           5.5408    2.8478   -0.5255 H       1  UNL1        0.2101
     62 H           3.7876    0.7551   -0.5556 H       1  UNL1        0.0647
     63 H           3.8279    2.0373    1.7803 H       1  UNL1        0.2100
     64 H           7.7077   -2.5510    0.3090 H       1  UNL1        0.1030
     65 H          10.1809    3.2692   -1.3871 H       1  UNL1        0.1048
     66 H          12.6580   -1.3108   -1.4806 H       1  UNL1        0.1438
     67 H          12.2148   -1.0777   -3.0442 H       1  UNL1        0.1438
     68 H          -3.6768   -0.6883   -1.5589 H       1  UNL1        0.0647
     69 H          -3.8698   -2.7020   -0.1380 H       1  UNL1        0.2100
     70 H          -5.6423    0.0853   -2.4287 H       1  UNL1        0.0650
     71 H          -5.9976   -2.7534   -2.1990 H       1  UNL1        0.2100
@<TRIPOS>BOND
     1     1     2   am
     2     2     3    2
     3     2     4    1
     4     4     5   ar
     5     5     6   ar
     6     6     7   ar
     7     7     8   ar
     8     8     9   ar
     9     6    10    1
    10    10    11    1
    11    11    12    1
    12    12    13    1
    13    13    14    1
    14    14    15    1
    15    15    16    1
    16    15    17    2
    17    15    18    1
    18    18    19    1
    19    19    20    1
    20    19    21    2
    21    19    22    1
    22    22    23    1
    23    23    24    1
    24    24    25    1
    25    25    26    1
    26    26    27    1
    27    27    28    1
    28    27    29    1
    29    29    30    1
    30    26    31    1
    31    31    32   ar
    32    32    33   ar
    33    33    34   ar
    34    34    35   ar
    35    35    36   ar
    36    36    37   ar
    37    37    38   ar
    38    38    39   ar
    39    39    40    1
    40    12    41    1
    41    41    42    1
    42    41    43    1
    43    43    44    1
    44     9     4   ar
    45    43    10    1
    46    29    24    1
    47    35    31   ar
    48    39    34   ar
    49     1    45    1
    50     1    46    1
    51     7    47    1
    52     8    48    1
    53     9    49    1
    54    10    50    1
    55    12    51    1
    56    13    52    1
    57    13    53    1
    58    16    54    1
    59    20    55    1
    60    23    56    1
    61    23    57    1
    62    24    58    1
    63    26    59    1
    64    27    60    1
    65    28    61    1
    66    29    62    1
    67    30    63    1
    68    32    64    1
    69    37    65    1
    70    40    66    1
    71    40    67    1
    72    41    68    1
    73    42    69    1
    74    43    70    1
    75    44    71    1
