@<TRIPOS>MOLECULE
*****
 79 83 0 0 0
SMALL
GASTEIGER

@<TRIPOS>ATOM
      1 C           8.7197    2.0466    2.2925 C.3     1  UNL1        0.0124
      2 C           7.5031    2.4388    1.5219 C.2     1  UNL1        0.2125
      3 O           7.5534    3.5127    0.8789 O.2     1  UNL1       -0.2759
      4 N           6.3733    1.5948    1.5540 N.am    1  UNL1       -0.3017
      5 C           5.1951    1.9780    0.7982 C.3     1  UNL1        0.0153
      6 C           4.9796    0.9222   -0.2675 C.3     1  UNL1       -0.0260
      7 C           5.1791   -0.4400    0.3071 C.3     1  UNL1        0.0386
      8 C           4.3045   -1.4141   -0.3352 C.2     1  UNL1        0.2188
      9 O           4.8959   -2.3092   -1.0334 O.2     1  UNL1       -0.2753
     10 N           2.9082   -1.5085   -0.2942 N.am    1  UNL1       -0.2999
     11 C           2.1062   -2.4996   -0.9713 C.3     1  UNL1        0.0223
     12 C           0.6723   -2.0191   -0.9264 C.3     1  UNL1        0.0129
     13 C          -0.1141   -2.3002   -2.1098 C.ar    1  UNL1       -0.0389
     14 C          -0.1863   -1.4386   -3.1745 C.ar    1  UNL1       -0.0553
     15 C          -0.9541   -1.7370   -4.3071 C.ar    1  UNL1       -0.0262
     16 C          -1.6559   -2.9125   -4.3699 C.ar    1  UNL1        0.1237
     17 F          -2.4040   -3.1936   -5.4833 F       1  UNL1       -0.2055
     18 C          -1.6020   -3.7863   -3.3269 C.ar    1  UNL1       -0.0233
     19 C          -0.8297   -3.4742   -2.2005 C.ar    1  UNL1       -0.0442
     20 C          -0.7952   -4.4590   -1.0741 C.3     1  UNL1       -0.0394
     21 C           0.8598   -0.5731   -0.5717 C.3     1  UNL1        0.0620
     22 C          -0.3769   -0.0678    0.0670 C.ar    1  UNL1        0.2326
     23 N          -1.1478    0.9234   -0.4145 N.ar    1  UNL1       -0.1949
     24 C          -2.1896    1.1545    0.3813 C.ar    1  UNL1        0.1816
     25 C          -3.3105    2.1275    0.2756 C.3     1  UNL1        0.0530
     26 C          -2.9603    3.4113    1.0137 C.3     1  UNL1       -0.0487
     27 C          -3.4471    2.5384   -1.1882 C.3     1  UNL1       -0.0487
     28 C          -4.5886    1.5629    0.7143 C.ar    1  UNL1       -0.0332
     29 C          -4.8483    1.2202    2.0297 C.ar    1  UNL1       -0.0460
     30 C          -6.0552    0.6971    2.3951 C.ar    1  UNL1        0.0556
     31 C          -6.3711    0.3173    3.8046 C.3     1  UNL1        0.4174
     32 F          -5.4345    0.7740    4.6800 F       1  UNL1       -0.1659
     33 F          -6.6355   -1.0369    3.9239 F       1  UNL1       -0.1659
     34 F          -7.5697    0.9741    4.1143 F       1  UNL1       -0.1659
     35 C          -7.0396    0.5016    1.4515 C.ar    1  UNL1       -0.0385
     36 C          -6.8281    0.8241    0.1465 C.ar    1  UNL1        0.0556
     37 C          -7.9150    0.5971   -0.8410 C.3     1  UNL1        0.4174
     38 F          -7.4279    0.5035   -2.1395 F       1  UNL1       -0.1659
     39 F          -8.8798    1.5771   -0.7799 F       1  UNL1       -0.1659
     40 F          -8.4735   -0.6527   -0.5488 F       1  UNL1       -0.1659
     41 C          -5.5866    1.3566   -0.1984 C.ar    1  UNL1       -0.0460
     42 N          -2.0467    0.2569    1.4017 N.ar    1  UNL1       -0.0604
     43 O          -0.9567   -0.4508    1.1767 O.2     1  UNL1       -0.3377
     44 C           2.0023   -0.6704    0.4269 C.3     1  UNL1        0.0266
     45 C           5.0829   -0.4178    1.8160 C.3     1  UNL1       -0.0260
     46 C           6.3202    0.3593    2.2985 C.3     1  UNL1        0.0153
     47 H           9.6117    2.6176    2.0144 H       1  UNL1        0.0323
     48 H           8.4824    2.1069    3.3689 H       1  UNL1        0.0323
     49 H           8.9309    0.9895    2.0066 H       1  UNL1        0.0323
     50 H           4.3277    2.0789    1.4592 H       1  UNL1        0.0465
     51 H           5.3697    2.9369    0.2422 H       1  UNL1        0.0465
     52 H           3.9977    1.0454   -0.7250 H       1  UNL1        0.0288
     53 H           5.7544    1.0521   -1.0914 H       1  UNL1        0.0288
     54 H           6.2541   -0.7529    0.1101 H       1  UNL1        0.0395
     55 H           2.4414   -2.7101   -2.0061 H       1  UNL1        0.0471
     56 H           2.2479   -3.4662   -0.4207 H       1  UNL1        0.0471
     57 H           0.2392   -2.4970    0.0053 H       1  UNL1        0.0372
     58 H           0.3658   -0.5162   -3.1267 H       1  UNL1        0.0621
     59 H          -0.9701   -1.0191   -5.1127 H       1  UNL1        0.0646
     60 H          -2.1275   -4.7151   -3.3204 H       1  UNL1        0.0649
     61 H          -1.4957   -5.2996   -1.2871 H       1  UNL1        0.0278
     62 H          -1.0810   -4.0405   -0.1127 H       1  UNL1        0.0278
     63 H           0.2258   -4.9233   -1.0807 H       1  UNL1        0.0278
     64 H           1.1854    0.0520   -1.3982 H       1  UNL1        0.0418
     65 H          -3.7244    4.1616    0.7393 H       1  UNL1        0.0242
     66 H          -1.9919    3.7626    0.5981 H       1  UNL1        0.0242
     67 H          -2.9501    3.2956    2.1007 H       1  UNL1        0.0242
     68 H          -4.2987    3.2460   -1.3162 H       1  UNL1        0.0242
     69 H          -2.5260    3.0637   -1.5121 H       1  UNL1        0.0242
     70 H          -3.5365    1.6513   -1.8596 H       1  UNL1        0.0242
     71 H          -4.0652    1.3810    2.7529 H       1  UNL1        0.0626
     72 H          -8.0073    0.0801    1.7477 H       1  UNL1        0.0629
     73 H          -5.4827    1.5928   -1.2569 H       1  UNL1        0.0626
     74 H           1.5913   -1.2609    1.2999 H       1  UNL1        0.0472
     75 H           2.3604    0.3017    0.7439 H       1  UNL1        0.0472
     76 H           4.2246    0.1802    2.1631 H       1  UNL1        0.0288
     77 H           5.1457   -1.4305    2.2434 H       1  UNL1        0.0288
     78 H           7.2182   -0.2706    2.0377 H       1  UNL1        0.0465
     79 H           6.2573    0.4972    3.3930 H       1  UNL1        0.0465
@<TRIPOS>BOND
     1     1     2    1
     2     2     3    2
     3     2     4   am
     4     4     5    1
     5     5     6    1
     6     6     7    1
     7     7     8    1
     8     8     9    2
     9     8    10   am
    10    10    11    1
    11    11    12    1
    12    12    13    1
    13    13    14   ar
    14    14    15   ar
    15    15    16   ar
    16    16    17    1
    17    16    18   ar
    18    18    19   ar
    19    19    20    1
    20    12    21    1
    21    21    22    1
    22    22    23   ar
    23    23    24   ar
    24    24    25    1
    25    25    26    1
    26    25    27    1
    27    25    28    1
    28    28    29   ar
    29    29    30   ar
    30    30    31    1
    31    31    32    1
    32    31    33    1
    33    31    34    1
    34    30    35   ar
    35    35    36   ar
    36    36    37    1
    37    37    38    1
    38    37    39    1
    39    37    40    1
    40    36    41   ar
    41    24    42   ar
    42    42    43   ar
    43    21    44    1
    44     7    45    1
    45    45    46    1
    46    46     4    1
    47    44    10    1
    48    19    13   ar
    49    43    22   ar
    50    41    28   ar
    51     1    47    1
    52     1    48    1
    53     1    49    1
    54     5    50    1
    55     5    51    1
    56     6    52    1
    57     6    53    1
    58     7    54    1
    59    11    55    1
    60    11    56    1
    61    12    57    1
    62    14    58    1
    63    15    59    1
    64    18    60    1
    65    20    61    1
    66    20    62    1
    67    20    63    1
    68    21    64    1
    69    26    65    1
    70    26    66    1
    71    26    67    1
    72    27    68    1
    73    27    69    1
    74    27    70    1
    75    29    71    1
    76    35    72    1
    77    41    73    1
    78    44    74    1
    79    44    75    1
    80    45    76    1
    81    45    77    1
    82    46    78    1
    83    46    79    1
