
     RDKit          3D

 62 65  0  0  0  0  0  0  0  0999 V2000
   -0.1013    0.2326    2.7648 C   0  0  0  0  0  0  0  0  0  0  0  0
    0.1442    0.9890    1.4626 C   0  0  1  0  0  0  0  0  0  0  0  0
    1.5342    0.9031    1.0290 C   0  0  0  0  0  0  0  0  0  0  0  0
    2.2269    2.1095    0.8813 C   0  0  0  0  0  0  0  0  0  0  0  0
    3.5466    2.1158    0.5015 C   0  0  0  0  0  0  0  0  0  0  0  0
    4.2420    0.9620    0.2517 C   0  0  0  0  0  0  0  0  0  0  0  0
    5.6299    0.9225   -0.1502 C   0  0  0  0  0  0  0  0  0  0  0  0
    6.3594    2.0635   -0.3118 C   0  0  0  0  0  0  0  0  0  0  0  0
    7.7044    1.9912   -0.7026 C   0  0  0  0  0  0  0  0  0  0  0  0
    8.2335    0.7447   -0.9084 C   0  0  0  0  0  0  0  0  0  0  0  0
    9.4388    0.5923   -1.2625 O   0  0  0  0  0  0  0  0  0  0  0  0
    7.4721   -0.3406   -0.7353 N   0  0  0  0  0  0  0  0  0  0  0  0
    8.0580   -1.6443   -0.9599 C   0  0  0  0  0  0  0  0  0  0  0  0
    6.2171   -0.2807   -0.3709 N   0  0  0  0  0  0  0  0  0  0  0  0
    3.5201   -0.2200    0.4094 C   0  0  0  0  0  0  0  0  0  0  0  0
    2.2097   -0.2552    0.7857 C   0  0  0  0  0  0  0  0  0  0  0  0
   -0.7406    0.4877    0.4337 N   0  0  0  0  0  0  0  0  0  0  0  0
   -0.7066   -0.8323   -0.1106 C   0  0  0  0  0  0  0  0  0  0  0  0
   -1.8802   -1.2168   -0.9570 C   0  0  0  0  0  0  0  0  0  0  0  0
   -3.1642   -0.5228   -0.4623 C   0  0  2  0  0  0  0  0  0  0  0  0
   -3.4197   -1.0897    0.8882 C   0  0  0  0  0  0  0  0  0  0  0  0
   -4.5881   -0.5951    1.6505 C   0  0  0  0  0  0  0  0  0  0  0  0
   -4.5852    0.8571    1.9985 C   0  0  0  0  0  0  0  0  0  0  0  0
   -5.7569    1.1586    2.7141 O   0  0  0  0  0  0  0  0  0  0  0  0
   -4.2553   -0.7886   -1.4527 C   0  0  0  0  0  0  0  0  0  0  0  0
   -5.4788   -0.1730   -1.4037 C   0  0  0  0  0  0  0  0  0  0  0  0
   -6.5070   -0.4130   -2.2990 C   0  0  0  0  0  0  0  0  0  0  0  0
   -6.3042   -1.3226   -3.3067 C   0  0  0  0  0  0  0  0  0  0  0  0
   -7.3020   -1.5808   -4.2069 F   0  0  0  0  0  0  0  0  0  0  0  0
   -5.0828   -1.9555   -3.3791 C   0  0  0  0  0  0  0  0  0  0  0  0
   -4.0722   -1.7039   -2.4793 C   0  0  0  0  0  0  0  0  0  0  0  0
   -2.9773    0.8603   -0.3871 O   0  0  0  0  0  0  0  0  0  0  0  0
   -1.7293    1.3906   -0.0781 C   0  0  0  0  0  0  0  0  0  0  0  0
   -1.4662    2.6163   -0.2373 O   0  0  0  0  0  0  0  0  0  0  0  0
   -0.9434    0.6666    3.3418 H   0  0  0  0  0  0  0  0  0  0  0  0
    0.7874    0.2555    3.4165 H   0  0  0  0  0  0  0  0  0  0  0  0
   -0.3547   -0.8308    2.5754 H   0  0  0  0  0  0  0  0  0  0  0  0
   -0.1025    2.0410    1.6992 H   0  0  0  0  0  0  0  0  0  0  0  0
    1.7356    3.0656    1.0638 H   0  0  0  0  0  0  0  0  0  0  0  0
    4.0407    3.0770    0.4004 H   0  0  0  0  0  0  0  0  0  0  0  0
    5.9432    3.0345   -0.1503 H   0  0  0  0  0  0  0  0  0  0  0  0
    8.3163    2.8708   -0.8415 H   0  0  0  0  0  0  0  0  0  0  0  0
    8.4200   -2.0544    0.0050 H   0  0  0  0  0  0  0  0  0  0  0  0
    7.2640   -2.3337   -1.3120 H   0  0  0  0  0  0  0  0  0  0  0  0
    8.8460   -1.6190   -1.7251 H   0  0  0  0  0  0  0  0  0  0  0  0
    4.0590   -1.1389    0.2148 H   0  0  0  0  0  0  0  0  0  0  0  0
    1.7445   -1.2148    0.8973 H   0  0  0  0  0  0  0  0  0  0  0  0
    0.1877   -0.8774   -0.7954 H   0  0  0  0  0  0  0  0  0  0  0  0
   -0.5489   -1.6221    0.6512 H   0  0  0  0  0  0  0  0  0  0  0  0
   -1.6768   -0.9496   -1.9995 H   0  0  0  0  0  0  0  0  0  0  0  0
   -1.9993   -2.3160   -0.9018 H   0  0  0  0  0  0  0  0  0  0  0  0
   -2.4998   -0.9574    1.5066 H   0  0  0  0  0  0  0  0  0  0  0  0
   -3.5567   -2.2075    0.7772 H   0  0  0  0  0  0  0  0  0  0  0  0
   -5.5689   -0.9147    1.2273 H   0  0  0  0  0  0  0  0  0  0  0  0
   -4.5490   -1.1354    2.6536 H   0  0  0  0  0  0  0  0  0  0  0  0
   -3.7256    1.0839    2.6911 H   0  0  0  0  0  0  0  0  0  0  0  0
   -4.5178    1.5655    1.1843 H   0  0  0  0  0  0  0  0  0  0  0  0
   -6.5366    0.6790    2.3250 H   0  0  0  0  0  0  0  0  0  0  0  0
   -5.6557    0.5562   -0.6225 H   0  0  0  0  0  0  0  0  0  0  0  0
   -7.4417    0.1070   -2.1994 H   0  0  0  0  0  0  0  0  0  0  0  0
   -4.9468   -2.6730   -4.1882 H   0  0  0  0  0  0  0  0  0  0  0  0
   -3.1394   -2.2197   -2.5728 H   0  0  0  0  0  0  0  0  0  0  0  0
  1  2  1  0
  2  3  1  0
  3  4  2  0
  4  5  1  0
  5  6  2  0
  6  7  1  0
  7  8  1  0
  8  9  2  0
  9 10  1  0
 10 11  2  0
 10 12  1  0
 12 13  1  0
 12 14  1  0
  6 15  1  0
 15 16  2  0
  2 17  1  0
 17 18  1  0
 18 19  1  0
 19 20  1  0
 20 21  1  1
 21 22  1  0
 22 23  1  0
 23 24  1  0
 20 25  1  0
 25 26  2  0
 26 27  1  0
 27 28  2  0
 28 29  1  0
 28 30  1  0
 30 31  2  0
 20 32  1  0
 32 33  1  0
 33 34  2  0
 16  3  1  0
 33 17  1  0
 14  7  2  0
 31 25  1  0
  1 35  1  0
  1 36  1  0
  1 37  1  0
  2 38  1  1
  4 39  1  0
  5 40  1  0
  8 41  1  0
  9 42  1  0
 13 43  1  0
 13 44  1  0
 13 45  1  0
 15 46  1  0
 16 47  1  0
 18 48  1  0
 18 49  1  0
 19 50  1  0
 19 51  1  0
 21 52  1  0
 21 53  1  0
 22 54  1  0
 22 55  1  0
 23 56  1  0
 23 57  1  0
 24 58  1  0
 26 59  1  0
 27 60  1  0
 30 61  1  0
 31 62  1  0
M  END
$$$$
