@<TRIPOS>MOLECULE
*****
 62 65 0 0 0
SMALL
GASTEIGER

@<TRIPOS>ATOM
      1 C          -0.1013    0.2326    2.7648 C.3     1  UNL1       -0.0421
      2 C           0.1442    0.9890    1.4626 C.3     1  UNL1        0.0515
      3 C           1.5342    0.9031    1.0290 C.ar    1  UNL1       -0.0271
      4 C           2.2269    2.1095    0.8813 C.ar    1  UNL1       -0.0562
      5 C           3.5466    2.1158    0.5015 C.ar    1  UNL1       -0.0522
      6 C           4.2420    0.9620    0.2517 C.ar    1  UNL1        0.0021
      7 C           5.6299    0.9225   -0.1502 C.ar    1  UNL1        0.0916
      8 C           6.3594    2.0635   -0.3118 C.ar    1  UNL1       -0.0289
      9 C           7.7044    1.9912   -0.7026 C.ar    1  UNL1        0.0064
     10 C           8.2335    0.7447   -0.9084 C.ar    1  UNL1        0.2670
     11 O           9.4388    0.5923   -1.2625 O.2     1  UNL1       -0.2662
     12 N           7.4721   -0.3406   -0.7353 N.ar    1  UNL1       -0.2321
     13 C           8.0580   -1.6443   -0.9599 C.3     1  UNL1        0.0340
     14 N           6.2171   -0.2807   -0.3709 N.ar    1  UNL1       -0.1685
     15 C           3.5201   -0.2200    0.4094 C.ar    1  UNL1       -0.0522
     16 C           2.2097   -0.2552    0.7857 C.ar    1  UNL1       -0.0562
     17 N          -0.7406    0.4877    0.4337 N.am    1  UNL1       -0.2605
     18 C          -0.7066   -0.8323   -0.1106 C.3     1  UNL1        0.0224
     19 C          -1.8802   -1.2168   -0.9570 C.3     1  UNL1        0.0075
     20 C          -3.1642   -0.5228   -0.4623 C.3     1  UNL1        0.1415
     21 C          -3.4197   -1.0897    0.8882 C.3     1  UNL1       -0.0064
     22 C          -4.5881   -0.5951    1.6505 C.3     1  UNL1       -0.0258
     23 C          -4.5852    0.8571    1.9985 C.3     1  UNL1        0.0443
     24 O          -5.7569    1.1586    2.7141 O.3     1  UNL1       -0.3950
     25 C          -4.2553   -0.7886   -1.4527 C.ar    1  UNL1       -0.0040
     26 C          -5.4788   -0.1730   -1.4037 C.ar    1  UNL1       -0.0521
     27 C          -6.5070   -0.4130   -2.2990 C.ar    1  UNL1       -0.0261
     28 C          -6.3042   -1.3226   -3.3067 C.ar    1  UNL1        0.1234
     29 F          -7.3020   -1.5808   -4.2069 F       1  UNL1       -0.2055
     30 C          -5.0828   -1.9555   -3.3791 C.ar    1  UNL1       -0.0261
     31 C          -4.0722   -1.7039   -2.4793 C.ar    1  UNL1       -0.0521
     32 O          -2.9773    0.8603   -0.3871 O.3     1  UNL1       -0.4388
     33 C          -1.7293    1.3906   -0.0781 C.2     1  UNL1        0.4042
     34 O          -1.4662    2.6163   -0.2373 O.2     1  UNL1       -0.2262
     35 H          -0.9434    0.6666    3.3418 H       1  UNL1        0.0251
     36 H           0.7874    0.2555    3.4165 H       1  UNL1        0.0251
     37 H          -0.3547   -0.8308    2.5754 H       1  UNL1        0.0251
     38 H          -0.1025    2.0410    1.6992 H       1  UNL1        0.0549
     39 H           1.7356    3.0656    1.0638 H       1  UNL1        0.0621
     40 H           4.0407    3.0770    0.4004 H       1  UNL1        0.0624
     41 H           5.9432    3.0345   -0.1503 H       1  UNL1        0.0641
     42 H           8.3163    2.8708   -0.8415 H       1  UNL1        0.0673
     43 H           8.4200   -2.0544    0.0050 H       1  UNL1        0.0474
     44 H           7.2640   -2.3337   -1.3120 H       1  UNL1        0.0474
     45 H           8.8460   -1.6190   -1.7251 H       1  UNL1        0.0474
     46 H           4.0590   -1.1389    0.2148 H       1  UNL1        0.0624
     47 H           1.7445   -1.2148    0.8973 H       1  UNL1        0.0621
     48 H           0.1877   -0.8774   -0.7954 H       1  UNL1        0.0467
     49 H          -0.5489   -1.6221    0.6512 H       1  UNL1        0.0467
     50 H          -1.6768   -0.9496   -1.9995 H       1  UNL1        0.0322
     51 H          -1.9993   -2.3160   -0.9018 H       1  UNL1        0.0322
     52 H          -2.4998   -0.9574    1.5066 H       1  UNL1        0.0308
     53 H          -3.5567   -2.2075    0.7772 H       1  UNL1        0.0308
     54 H          -5.5689   -0.9147    1.2273 H       1  UNL1        0.0289
     55 H          -4.5490   -1.1354    2.6536 H       1  UNL1        0.0289
     56 H          -3.7256    1.0839    2.6911 H       1  UNL1        0.0557
     57 H          -4.5178    1.5655    1.1843 H       1  UNL1        0.0557
     58 H          -6.5366    0.6790    2.3250 H       1  UNL1        0.2094
     59 H          -5.6557    0.5562   -0.6225 H       1  UNL1        0.0622
     60 H          -7.4417    0.1070   -2.1994 H       1  UNL1        0.0646
     61 H          -4.9468   -2.6730   -4.1882 H       1  UNL1        0.0646
     62 H          -3.1394   -2.2197   -2.5728 H       1  UNL1        0.0622
@<TRIPOS>BOND
     1     1     2    1
     2     2     3    1
     3     3     4   ar
     4     4     5   ar
     5     5     6   ar
     6     6     7    1
     7     7     8   ar
     8     8     9   ar
     9     9    10   ar
    10    10    11    2
    11    10    12   ar
    12    12    13    1
    13    12    14   ar
    14     6    15   ar
    15    15    16   ar
    16     2    17    1
    17    17    18    1
    18    18    19    1
    19    19    20    1
    20    20    21    1
    21    21    22    1
    22    22    23    1
    23    23    24    1
    24    20    25    1
    25    25    26   ar
    26    26    27   ar
    27    27    28   ar
    28    28    29    1
    29    28    30   ar
    30    30    31   ar
    31    20    32    1
    32    32    33    1
    33    33    34    2
    34    16     3   ar
    35    33    17   am
    36    14     7   ar
    37    31    25   ar
    38     1    35    1
    39     1    36    1
    40     1    37    1
    41     2    38    1
    42     4    39    1
    43     5    40    1
    44     8    41    1
    45     9    42    1
    46    13    43    1
    47    13    44    1
    48    13    45    1
    49    15    46    1
    50    16    47    1
    51    18    48    1
    52    18    49    1
    53    19    50    1
    54    19    51    1
    55    21    52    1
    56    21    53    1
    57    22    54    1
    58    22    55    1
    59    23    56    1
    60    23    57    1
    61    24    58    1
    62    26    59    1
    63    27    60    1
    64    30    61    1
    65    31    62    1
