@<TRIPOS>MOLECULE
*****
 54 58 0 0 0
SMALL
GASTEIGER

@<TRIPOS>ATOM
      1 C          10.2183   -3.7669   -0.5840 C.3     1  UNL1       -0.0025
      2 C           9.5443   -2.4413   -0.2682 C.1     1  UNL1       -0.1022
      3 C           9.0576   -1.4607   -0.0247 C.1     1  UNL1       -0.0617
      4 C           8.4364   -0.2066    0.2920 C.3     1  UNL1        0.1516
      5 O           7.0455   -0.0830    0.2693 O.3     1  UNL1       -0.4624
      6 C           5.8811   -0.0747    0.3453 C.ar    1  UNL1        0.2344
      7 C           5.0847    0.8240   -0.4944 C.ar    1  UNL1        0.0899
      8 N           3.7842    0.9110   -0.4655 N.ar    1  UNL1       -0.2435
      9 C           3.0204    0.1615    0.3691 C.ar    1  UNL1        0.1439
     10 C           1.5889    0.3938    0.4929 C.2     1  UNL1        0.2681
     11 O           0.9916   -0.2384    1.4215 O.2     1  UNL1       -0.2681
     12 N           0.7908    1.2469   -0.2806 N.am    1  UNL1       -0.2802
     13 C          -0.5715    1.5298   -0.0501 C.ar    1  UNL1        0.0343
     14 C          -0.7768    2.8321    0.4443 C.ar    1  UNL1       -0.0370
     15 C          -2.0103    3.3146    0.8046 C.ar    1  UNL1       -0.0172
     16 C          -3.0716    2.4435    0.6677 C.ar    1  UNL1        0.1346
     17 C          -2.9654    1.1396    0.1881 C.ar    1  UNL1        0.0287
     18 C          -1.6697    0.7419   -0.1585 C.ar    1  UNL1       -0.0312
     19 C          -4.1086    0.2043    0.0784 C.3     1  UNL1        0.1265
     20 C          -3.8551   -0.9928    1.0195 C.3     1  UNL1        0.0155
     21 C          -3.4011   -2.2191    0.2721 C.3     1  UNL1        0.0953
     22 O          -3.5302   -2.1748   -1.0929 O.2     1  UNL1       -0.4658
     23 C          -4.1864   -1.3093   -1.8664 C.2     1  UNL1        0.2763
     24 N          -4.6889   -1.3336   -3.1633 N.pl3   1  UNL1       -0.3134
     25 N          -4.4512   -0.1300   -1.2439 N.2     1  UNL1       -0.2205
     26 C          -5.3860    0.8536    0.5946 C.ar    1  UNL1        0.0343
     27 C          -6.5409    0.1289    0.6115 C.ar    1  UNL1       -0.0153
     28 C          -7.7230    0.6680    1.0409 C.ar    1  UNL1        0.1329
     29 CL         -9.1868   -0.2297    1.1034 Cl      1  UNL1       -0.0619
     30 N          -7.7266    1.9787    1.4735 N.ar    1  UNL1       -0.2045
     31 C          -6.6359    2.7005    1.4724 C.ar    1  UNL1        0.2574
     32 F          -6.6716    3.9876    1.8896 F       1  UNL1       -0.1799
     33 C          -5.4391    2.1257    1.0265 C.ar    1  UNL1        0.1883
     34 O          -4.3197    2.8866    1.0594 O.3     1  UNL1       -0.4508
     35 C           3.7180   -0.6861    1.1559 C.ar    1  UNL1        0.0619
     36 N           5.0224   -0.8239    1.1709 N.ar    1  UNL1       -0.2177
     37 H          10.8548   -3.9501    0.3321 H       1  UNL1        0.0362
     38 H          10.8589   -3.6514   -1.4464 H       1  UNL1        0.0362
     39 H           9.4422   -4.5016   -0.7361 H       1  UNL1        0.0362
     40 H           8.7387    0.1072    1.3453 H       1  UNL1        0.0837
     41 H           8.8204    0.5854   -0.4465 H       1  UNL1        0.0837
     42 H           5.7318    1.4212   -1.1498 H       1  UNL1        0.0884
     43 H           1.2946    1.7100   -1.1175 H       1  UNL1        0.1552
     44 H           0.0775    3.5136    0.5626 H       1  UNL1        0.0637
     45 H          -2.1674    4.3287    1.1662 H       1  UNL1        0.0655
     46 H          -1.5394   -0.2664   -0.5534 H       1  UNL1        0.0641
     47 H          -4.7185   -1.1735    1.6525 H       1  UNL1        0.0328
     48 H          -2.9741   -0.6959    1.6720 H       1  UNL1        0.0328
     49 H          -3.9579   -3.0837    0.7448 H       1  UNL1        0.0698
     50 H          -2.2912   -2.3709    0.4805 H       1  UNL1        0.0698
     51 H          -5.7549   -1.2383   -3.2981 H       1  UNL1        0.1466
     52 H          -4.1515   -1.4160   -4.0599 H       1  UNL1        0.1466
     53 H          -6.6015   -0.9148    0.2724 H       1  UNL1        0.0652
     54 H           3.0695   -1.3052    1.8493 H       1  UNL1        0.0854
@<TRIPOS>BOND
     1     1     2    1
     2     2     3    3
     3     3     4    1
     4     4     5    1
     5     5     6    1
     6     6     7   ar
     7     7     8   ar
     8     8     9   ar
     9     9    10    1
    10    10    11    2
    11    10    12   am
    12    12    13    1
    13    13    14   ar
    14    14    15   ar
    15    15    16   ar
    16    16    17   ar
    17    17    18   ar
    18    17    19    1
    19    19    20    1
    20    20    21    1
    21    21    22    1
    22    22    23    1
    23    23    24    1
    24    23    25    2
    25    19    26    1
    26    26    27   ar
    27    27    28   ar
    28    28    29    1
    29    28    30   ar
    30    30    31   ar
    31    31    32    1
    32    31    33   ar
    33    33    34    1
    34     9    35   ar
    35    35    36   ar
    36    36     6   ar
    37    18    13   ar
    38    25    19    1
    39    33    26   ar
    40    34    16    1
    41     1    37    1
    42     1    38    1
    43     1    39    1
    44     4    40    1
    45     4    41    1
    46     7    42    1
    47    12    43    1
    48    14    44    1
    49    15    45    1
    50    18    46    1
    51    20    47    1
    52    20    48    1
    53    21    49    1
    54    21    50    1
    55    24    51    1
    56    24    52    1
    57    27    53    1
    58    35    54    1
