
     RDKit          3D

 61 64  0  0  0  0  0  0  0  0999 V2000
   -7.9060   -0.4318    1.0091 O   0  0  0  0  0  0  0  0  0  0  0  0
   -6.5395   -0.6842    0.9269 C   0  0  0  0  0  0  0  0  0  0  0  0
   -5.9851   -0.2379   -0.4093 C   0  0  0  0  0  0  0  0  0  0  0  0
   -6.1709    1.2268   -0.6626 C   0  0  0  0  0  0  0  0  0  0  0  0
   -7.4811    1.6072   -0.3446 O   0  0  0  0  0  0  0  0  0  0  0  0
   -5.1908    1.9928    0.1774 C   0  0  0  0  0  0  0  0  0  0  0  0
   -5.4196    3.3664    0.1390 O   0  0  0  0  0  0  0  0  0  0  0  0
   -3.7908    1.7586   -0.3507 C   0  0  0  0  0  0  0  0  0  0  0  0
   -2.9161    2.3373    0.5891 O   0  0  0  0  0  0  0  0  0  0  0  0
   -3.5866    0.2859   -0.4184 C   0  0  0  0  0  0  0  0  0  0  0  0
   -2.4254   -0.3941   -0.4641 N   0  0  0  0  0  0  0  0  0  0  0  0
   -2.6369   -1.7115   -0.5194 C   0  0  0  0  0  0  0  0  0  0  0  0
   -1.7388   -2.8746   -0.5828 C   0  0  0  0  0  0  0  0  0  0  0  0
   -0.3173   -2.4390   -0.5747 C   0  0  0  0  0  0  0  0  0  0  0  0
    0.0999   -1.6789    0.6659 C   0  0  0  0  0  0  0  0  0  0  0  0
    1.5272   -1.3184    0.5358 C   0  0  0  0  0  0  0  0  0  0  0  0
    1.8913   -0.1284   -0.0480 C   0  0  0  0  0  0  0  0  0  0  0  0
    3.2402    0.2193   -0.1745 C   0  0  0  0  0  0  0  0  0  0  0  0
    4.1913   -0.6498    0.2951 C   0  0  0  0  0  0  0  0  0  0  0  0
    5.6235   -0.2891    0.1691 C   0  0  0  0  0  0  0  0  0  0  0  0
    5.9662    0.8014    1.1235 C   0  0  0  0  0  0  0  0  0  0  0  0
    6.1640    2.1572    0.5537 C   0  0  0  0  0  0  0  0  0  0  0  0
    7.1779    2.0362   -0.5838 C   0  0  0  0  0  0  0  0  0  0  0  0
    6.4315    1.2669   -1.6649 C   0  0  0  0  0  0  0  0  0  0  0  0
    6.0539   -0.1001   -1.2451 C   0  0  0  0  0  0  0  0  0  0  0  0
    3.8405   -1.8508    0.8848 C   0  0  0  0  0  0  0  0  0  0  0  0
    2.4826   -2.1855    1.0044 C   0  0  0  0  0  0  0  0  0  0  0  0
   -4.0287   -1.8293   -0.5058 C   0  0  0  0  0  0  0  0  0  0  0  0
   -4.5816   -0.5902   -0.4437 N   0  0  0  0  0  0  0  0  0  0  0  0
   -8.1777   -0.3968    1.9653 H   0  0  0  0  0  0  0  0  0  0  0  0
   -6.0131   -0.1455    1.7391 H   0  0  0  0  0  0  0  0  0  0  0  0
   -6.3042   -1.7627    1.0309 H   0  0  0  0  0  0  0  0  0  0  0  0
   -6.5087   -0.8025   -1.2210 H   0  0  0  0  0  0  0  0  0  0  0  0
   -5.9452    1.4221   -1.7249 H   0  0  0  0  0  0  0  0  0  0  0  0
   -8.1102    1.0669   -0.9003 H   0  0  0  0  0  0  0  0  0  0  0  0
   -5.1779    1.6487    1.2437 H   0  0  0  0  0  0  0  0  0  0  0  0
   -4.5440    3.8035    0.3357 H   0  0  0  0  0  0  0  0  0  0  0  0
   -3.6136    2.2447   -1.3269 H   0  0  0  0  0  0  0  0  0  0  0  0
   -2.5453    3.1861    0.2907 H   0  0  0  0  0  0  0  0  0  0  0  0
   -1.9860   -3.5180   -1.4628 H   0  0  0  0  0  0  0  0  0  0  0  0
   -1.8733   -3.5561    0.3042 H   0  0  0  0  0  0  0  0  0  0  0  0
   -0.0374   -1.8505   -1.4912 H   0  0  0  0  0  0  0  0  0  0  0  0
    0.3076   -3.3762   -0.6729 H   0  0  0  0  0  0  0  0  0  0  0  0
   -0.4644   -0.7358    0.7403 H   0  0  0  0  0  0  0  0  0  0  0  0
   -0.0908   -2.2776    1.5860 H   0  0  0  0  0  0  0  0  0  0  0  0
    1.1525    0.5600   -0.4193 H   0  0  0  0  0  0  0  0  0  0  0  0
    3.5514    1.1336   -0.6239 H   0  0  0  0  0  0  0  0  0  0  0  0
    6.1998   -1.1945    0.5419 H   0  0  0  0  0  0  0  0  0  0  0  0
    5.1222    0.8874    1.8715 H   0  0  0  0  0  0  0  0  0  0  0  0
    6.8467    0.5505    1.7796 H   0  0  0  0  0  0  0  0  0  0  0  0
    5.2630    2.6055    0.1387 H   0  0  0  0  0  0  0  0  0  0  0  0
    6.6491    2.7805    1.3356 H   0  0  0  0  0  0  0  0  0  0  0  0
    7.3270    3.0587   -0.9849 H   0  0  0  0  0  0  0  0  0  0  0  0
    8.0981    1.5363   -0.2678 H   0  0  0  0  0  0  0  0  0  0  0  0
    7.0406    1.1995   -2.5907 H   0  0  0  0  0  0  0  0  0  0  0  0
    5.5538    1.9158   -1.9333 H   0  0  0  0  0  0  0  0  0  0  0  0
    6.8776   -0.7861   -1.5375 H   0  0  0  0  0  0  0  0  0  0  0  0
    5.1800   -0.4138   -1.8912 H   0  0  0  0  0  0  0  0  0  0  0  0
    4.5560   -2.5525    1.2620 H   0  0  0  0  0  0  0  0  0  0  0  0
    2.2414   -3.1308    1.4698 H   0  0  0  0  0  0  0  0  0  0  0  0
   -4.5497   -2.7625   -0.5400 H   0  0  0  0  0  0  0  0  0  0  0  0
  1  2  1  0
  2  3  1  0
  3  4  1  0
  4  5  1  0
  4  6  1  0
  6  7  1  0
  6  8  1  0
  8  9  1  0
  8 10  1  0
 10 11  2  0
 11 12  1  0
 12 13  1  0
 13 14  1  0
 14 15  1  0
 15 16  1  0
 16 17  2  0
 17 18  1  0
 18 19  2  0
 19 20  1  0
 20 21  1  0
 21 22  1  0
 22 23  1  0
 23 24  1  0
 24 25  1  0
 19 26  1  0
 26 27  2  0
 12 28  2  0
 28 29  1  0
 29  3  1  0
 29 10  1  0
 27 16  1  0
 25 20  1  0
  1 30  1  0
  2 31  1  0
  2 32  1  0
  3 33  1  0
  4 34  1  0
  5 35  1  0
  6 36  1  0
  7 37  1  0
  8 38  1  0
  9 39  1  0
 13 40  1  0
 13 41  1  0
 14 42  1  0
 14 43  1  0
 15 44  1  0
 15 45  1  0
 17 46  1  0
 18 47  1  0
 20 48  1  0
 21 49  1  0
 21 50  1  0
 22 51  1  0
 22 52  1  0
 23 53  1  0
 23 54  1  0
 24 55  1  0
 24 56  1  0
 25 57  1  0
 25 58  1  0
 26 59  1  0
 27 60  1  0
 28 61  1  0
M  END
$$$$
