@<TRIPOS>MOLECULE
*****
 61 64 0 0 0
SMALL
GASTEIGER

@<TRIPOS>ATOM
      1 O          -7.9060   -0.4318    1.0091 O.3     1  UNL1       -0.3929
      2 C          -6.5395   -0.6842    0.9269 C.3     1  UNL1        0.0675
      3 C          -5.9851   -0.2379   -0.4093 C.3     1  UNL1        0.0871
      4 C          -6.1709    1.2268   -0.6626 C.3     1  UNL1        0.1067
      5 O          -7.4811    1.6072   -0.3446 O.3     1  UNL1       -0.3870
      6 C          -5.1908    1.9928    0.1774 C.3     1  UNL1        0.1158
      7 O          -5.4196    3.3664    0.1390 O.3     1  UNL1       -0.3861
      8 C          -3.7908    1.7586   -0.3507 C.3     1  UNL1        0.1409
      9 O          -2.9161    2.3373    0.5891 O.3     1  UNL1       -0.3814
     10 C          -3.5866    0.2859   -0.4184 C.ar    1  UNL1        0.1417
     11 N          -2.4254   -0.3941   -0.4641 N.ar    1  UNL1       -0.2345
     12 C          -2.6369   -1.7115   -0.5194 C.ar    1  UNL1        0.0595
     13 C          -1.7388   -2.8746   -0.5828 C.3     1  UNL1       -0.0086
     14 C          -0.3173   -2.4390   -0.5747 C.3     1  UNL1       -0.0436
     15 C           0.0999   -1.6789    0.6659 C.3     1  UNL1       -0.0273
     16 C           1.5272   -1.3184    0.5358 C.ar    1  UNL1       -0.0473
     17 C           1.8913   -0.1284   -0.0480 C.ar    1  UNL1       -0.0583
     18 C           3.2402    0.2193   -0.1745 C.ar    1  UNL1       -0.0581
     19 C           4.1913   -0.6498    0.2951 C.ar    1  UNL1       -0.0443
     20 C           5.6235   -0.2891    0.1691 C.3     1  UNL1       -0.0158
     21 C           5.9662    0.8014    1.1235 C.3     1  UNL1       -0.0462
     22 C           6.1640    2.1572    0.5537 C.3     1  UNL1       -0.0525
     23 C           7.1779    2.0362   -0.5838 C.3     1  UNL1       -0.0530
     24 C           6.4315    1.2669   -1.6649 C.3     1  UNL1       -0.0525
     25 C           6.0539   -0.1001   -1.2451 C.3     1  UNL1       -0.0462
     26 C           3.8405   -1.8508    0.8848 C.ar    1  UNL1       -0.0581
     27 C           2.4826   -2.1855    1.0044 C.ar    1  UNL1       -0.0583
     28 C          -4.0287   -1.8293   -0.5058 C.ar    1  UNL1        0.0280
     29 N          -4.5816   -0.5902   -0.4437 N.ar    1  UNL1       -0.3241
     30 H          -8.1777   -0.3968    1.9653 H       1  UNL1        0.2095
     31 H          -6.0131   -0.1455    1.7391 H       1  UNL1        0.0579
     32 H          -6.3042   -1.7627    1.0309 H       1  UNL1        0.0579
     33 H          -6.5087   -0.8025   -1.2210 H       1  UNL1        0.0577
     34 H          -5.9452    1.4221   -1.7249 H       1  UNL1        0.0642
     35 H          -8.1102    1.0669   -0.9003 H       1  UNL1        0.2100
     36 H          -5.1779    1.6487    1.2437 H       1  UNL1        0.0650
     37 H          -4.5440    3.8035    0.3357 H       1  UNL1        0.2100
     38 H          -3.6136    2.2447   -1.3269 H       1  UNL1        0.0702
     39 H          -2.5453    3.1861    0.2907 H       1  UNL1        0.2105
     40 H          -1.9860   -3.5180   -1.4628 H       1  UNL1        0.0329
     41 H          -1.8733   -3.5561    0.3042 H       1  UNL1        0.0329
     42 H          -0.0374   -1.8505   -1.4912 H       1  UNL1        0.0272
     43 H           0.3076   -3.3762   -0.6729 H       1  UNL1        0.0272
     44 H          -0.4644   -0.7358    0.7403 H       1  UNL1        0.0313
     45 H          -0.0908   -2.2776    1.5860 H       1  UNL1        0.0313
     46 H           1.1525    0.5600   -0.4193 H       1  UNL1        0.0620
     47 H           3.5514    1.1336   -0.6239 H       1  UNL1        0.0620
     48 H           6.1998   -1.1945    0.5419 H       1  UNL1        0.0349
     49 H           5.1222    0.8874    1.8715 H       1  UNL1        0.0271
     50 H           6.8467    0.5505    1.7796 H       1  UNL1        0.0271
     51 H           5.2630    2.6055    0.1387 H       1  UNL1        0.0265
     52 H           6.6491    2.7805    1.3356 H       1  UNL1        0.0265
     53 H           7.3270    3.0587   -0.9849 H       1  UNL1        0.0265
     54 H           8.0981    1.5363   -0.2678 H       1  UNL1        0.0265
     55 H           7.0406    1.1995   -2.5907 H       1  UNL1        0.0265
     56 H           5.5538    1.9158   -1.9333 H       1  UNL1        0.0265
     57 H           6.8776   -0.7861   -1.5375 H       1  UNL1        0.0271
     58 H           5.1800   -0.4138   -1.8912 H       1  UNL1        0.0271
     59 H           4.5560   -2.5525    1.2620 H       1  UNL1        0.0620
     60 H           2.2414   -3.1308    1.4698 H       1  UNL1        0.0620
     61 H          -4.5497   -2.7625   -0.5400 H       1  UNL1        0.0828
@<TRIPOS>BOND
     1     1     2    1
     2     2     3    1
     3     3     4    1
     4     4     5    1
     5     4     6    1
     6     6     7    1
     7     6     8    1
     8     8     9    1
     9     8    10    1
    10    10    11   ar
    11    11    12   ar
    12    12    13    1
    13    13    14    1
    14    14    15    1
    15    15    16    1
    16    16    17   ar
    17    17    18   ar
    18    18    19   ar
    19    19    20    1
    20    20    21    1
    21    21    22    1
    22    22    23    1
    23    23    24    1
    24    24    25    1
    25    19    26   ar
    26    26    27   ar
    27    12    28   ar
    28    28    29   ar
    29    29     3    1
    30    29    10   ar
    31    27    16   ar
    32    25    20    1
    33     1    30    1
    34     2    31    1
    35     2    32    1
    36     3    33    1
    37     4    34    1
    38     5    35    1
    39     6    36    1
    40     7    37    1
    41     8    38    1
    42     9    39    1
    43    13    40    1
    44    13    41    1
    45    14    42    1
    46    14    43    1
    47    15    44    1
    48    15    45    1
    49    17    46    1
    50    18    47    1
    51    20    48    1
    52    21    49    1
    53    21    50    1
    54    22    51    1
    55    22    52    1
    56    23    53    1
    57    23    54    1
    58    24    55    1
    59    24    56    1
    60    25    57    1
    61    25    58    1
    62    26    59    1
    63    27    60    1
    64    28    61    1
