@<TRIPOS>MOLECULE
*****
 77 80 0 0 0
SMALL
GASTEIGER

@<TRIPOS>ATOM
      1 C           0.8012   -2.8776   -4.2207 C.3     1  UNL1        0.0122
      2 C           1.8023   -2.4495   -3.2178 C.2     1  UNL1        0.2105
      3 O           2.5540   -3.3949   -2.8058 O.2     1  UNL1       -0.2761
      4 N           2.0088   -1.1455   -2.6839 N.am    1  UNL1       -0.3039
      5 C           3.0523   -0.8868   -1.6877 C.3     1  UNL1        0.1033
      6 C           4.0535    0.1028   -2.1779 C.3     1  UNL1       -0.0006
      7 C           5.0883    0.3431   -1.1445 C.ar    1  UNL1       -0.0443
      8 C           6.2526   -0.4067   -1.0105 C.ar    1  UNL1       -0.0550
      9 C           7.1540   -0.0924   -0.0179 C.ar    1  UNL1       -0.0184
     10 C           6.9203    0.9540    0.8454 C.ar    1  UNL1        0.1423
     11 O           7.7694    1.3470    1.8762 O.3     1  UNL1       -0.4033
     12 P           9.2205    0.4618    2.0834 P.3     1  UNL1        0.5280
     13 O          10.0474    0.9968    3.4614 O.3     1  UNL1       -0.2930
     14 O          10.1492    0.6739    0.6763 O.3     1  UNL1       -0.2930
     15 O           8.9213   -1.0237    2.2574 O.2     1  UNL1       -0.2156
     16 C           5.7669    1.7317    0.7474 C.ar    1  UNL1        0.0566
     17 C           5.4771    2.8628    1.6507 C.2     1  UNL1        0.1537
     18 O           4.4081    3.5380    1.5143 O.2     1  UNL1       -0.2956
     19 C           4.8561    1.4065   -0.2637 C.ar    1  UNL1       -0.0447
     20 C           2.4816   -0.5054   -0.3985 C.2     1  UNL1        0.2343
     21 O           2.8749   -0.2030    0.7773 O.2     1  UNL1       -0.2738
     22 N           1.0435   -0.4099   -0.3128 N.am    1  UNL1       -0.3025
     23 C           0.2594   -0.0611    0.8231 C.3     1  UNL1        0.0996
     24 C          -0.5206    1.2246    0.6377 C.3     1  UNL1       -0.0259
     25 C          -0.7940    1.8803    1.9704 C.3     1  UNL1       -0.0495
     26 C          -1.9760    1.3391    2.6993 C.3     1  UNL1       -0.0371
     27 C          -1.7347   -0.0294    3.3037 C.3     1  UNL1        0.0151
     28 N          -1.6987   -1.0258    2.2222 N.am    1  UNL1       -0.2956
     29 C          -2.7965   -1.9872    2.2350 C.3     1  UNL1        0.0398
     30 C          -3.9524   -1.4937    1.4478 C.ar    1  UNL1       -0.0301
     31 C          -4.1827   -1.7047    0.1126 C.ar    1  UNL1       -0.0565
     32 C          -5.3103   -1.1670   -0.4727 C.ar    1  UNL1       -0.0537
     33 C          -6.2526   -0.4099    0.2049 C.ar    1  UNL1       -0.0179
     34 C          -6.0194   -0.1988    1.5481 C.ar    1  UNL1       -0.0537
     35 C          -4.8961   -0.7302    2.1467 C.ar    1  UNL1       -0.0565
     36 C          -7.4365    0.1509   -0.4356 C.ar    1  UNL1       -0.0179
     37 C          -7.8903    1.3599    0.1038 C.ar    1  UNL1       -0.0540
     38 C          -9.0120    1.9887   -0.4280 C.ar    1  UNL1       -0.0612
     39 C          -9.7103    1.4507   -1.4934 C.ar    1  UNL1       -0.0617
     40 C          -9.2416    0.2602   -2.0043 C.ar    1  UNL1       -0.0612
     41 C          -8.1321   -0.3864   -1.4979 C.ar    1  UNL1       -0.0540
     42 C          -0.7148   -1.1149    1.2053 C.2     1  UNL1        0.2362
     43 O          -0.7115   -2.2352    0.5889 O.2     1  UNL1       -0.2736
     44 H           0.3857   -3.8831   -3.9283 H       1  UNL1        0.0322
     45 H           1.2647   -2.8954   -5.2243 H       1  UNL1        0.0322
     46 H          -0.0716   -2.1914   -4.1888 H       1  UNL1        0.0322
     47 H           1.3654   -0.4243   -3.0613 H       1  UNL1        0.1495
     48 H           3.5494   -1.8924   -1.5400 H       1  UNL1        0.0598
     49 H           3.5445    1.0512   -2.4465 H       1  UNL1        0.0336
     50 H           4.5447   -0.2403   -3.1113 H       1  UNL1        0.0336
     51 H           6.4100   -1.2241   -1.7025 H       1  UNL1        0.0621
     52 H           8.0693   -0.6579    0.1123 H       1  UNL1        0.0654
     53 H          10.9643    0.6148    3.3778 H       1  UNL1        0.2231
     54 H           9.9563    1.5523    0.2762 H       1  UNL1        0.2231
     55 H           6.2113    3.0745    2.4144 H       1  UNL1        0.1083
     56 H           3.9634    2.0516   -0.3058 H       1  UNL1        0.0628
     57 H           0.3507   -0.5894   -1.1003 H       1  UNL1        0.1495
     58 H           0.8966    0.1243    1.7366 H       1  UNL1        0.0594
     59 H          -1.4514    1.0324    0.0888 H       1  UNL1        0.0288
     60 H           0.1029    1.9001    0.0193 H       1  UNL1        0.0288
     61 H          -1.0346    2.9556    1.7382 H       1  UNL1        0.0266
     62 H           0.1172    1.9238    2.5821 H       1  UNL1        0.0266
     63 H          -2.8512    1.3479    2.0210 H       1  UNL1        0.0280
     64 H          -2.1873    2.0172    3.5426 H       1  UNL1        0.0280
     65 H          -2.4391   -0.2694    4.0937 H       1  UNL1        0.0465
     66 H          -0.7126   -0.0104    3.7361 H       1  UNL1        0.0465
     67 H          -3.0791   -2.0982    3.3006 H       1  UNL1        0.0514
     68 H          -2.4402   -2.9446    1.8543 H       1  UNL1        0.0514
     69 H          -3.4611   -2.2869   -0.4143 H       1  UNL1        0.0621
     70 H          -5.5037   -1.3310   -1.5399 H       1  UNL1        0.0624
     71 H          -6.7238    0.3898    2.1456 H       1  UNL1        0.0624
     72 H          -4.7650   -0.5314    3.2094 H       1  UNL1        0.0621
     73 H          -7.4485    1.8905    0.9277 H       1  UNL1        0.0624
     74 H          -9.3904    2.9323   -0.0300 H       1  UNL1        0.0618
     75 H         -10.5824    1.9735   -1.8800 H       1  UNL1        0.0618
     76 H          -9.7826   -0.1764   -2.8462 H       1  UNL1        0.0618
     77 H          -7.7511   -1.3185   -1.8845 H       1  UNL1        0.0624
@<TRIPOS>BOND
     1     1     2    1
     2     2     3    2
     3     2     4   am
     4     4     5    1
     5     5     6    1
     6     6     7    1
     7     7     8   ar
     8     8     9   ar
     9     9    10   ar
    10    10    11    1
    11    11    12    1
    12    12    13    1
    13    12    14    1
    14    12    15    2
    15    10    16   ar
    16    16    17    1
    17    17    18    2
    18    16    19   ar
    19     5    20    1
    20    20    21    2
    21    20    22   am
    22    22    23    1
    23    23    24    1
    24    24    25    1
    25    25    26    1
    26    26    27    1
    27    27    28    1
    28    28    29    1
    29    29    30    1
    30    30    31   ar
    31    31    32   ar
    32    32    33   ar
    33    33    34   ar
    34    34    35   ar
    35    33    36    1
    36    36    37   ar
    37    37    38   ar
    38    38    39   ar
    39    39    40   ar
    40    40    41   ar
    41    28    42   am
    42    42    43    2
    43    19     7   ar
    44    42    23    1
    45    35    30   ar
    46    41    36   ar
    47     1    44    1
    48     1    45    1
    49     1    46    1
    50     4    47    1
    51     5    48    1
    52     6    49    1
    53     6    50    1
    54     8    51    1
    55     9    52    1
    56    13    53    1
    57    14    54    1
    58    17    55    1
    59    19    56    1
    60    22    57    1
    61    23    58    1
    62    24    59    1
    63    24    60    1
    64    25    61    1
    65    25    62    1
    66    26    63    1
    67    26    64    1
    68    27    65    1
    69    27    66    1
    70    29    67    1
    71    29    68    1
    72    31    69    1
    73    32    70    1
    74    34    71    1
    75    35    72    1
    76    37    73    1
    77    38    74    1
    78    39    75    1
    79    40    76    1
    80    41    77    1
