@<TRIPOS>MOLECULE
*****
 42 45 0 0 0
SMALL
GASTEIGER

@<TRIPOS>ATOM
      1 C          -6.7702   -1.4479    1.5005 C.3     1  UNL1       -0.0397
      2 C          -5.3894   -1.0706    1.0530 C.ar    1  UNL1       -0.0503
      3 C          -4.5537   -1.9827    0.4603 C.ar    1  UNL1       -0.0568
      4 C          -3.2664   -1.6178    0.0519 C.ar    1  UNL1       -0.0359
      5 C          -2.8306   -0.3299    0.2463 C.ar    1  UNL1        0.0693
      6 N          -1.5194    0.0417   -0.1661 N.ar    1  UNL1       -0.1945
      7 N          -0.4607   -0.1349    0.5745 N.ar    1  UNL1       -0.1474
      8 C           0.8230    0.2129    0.2220 C.ar    1  UNL1        0.1529
      9 N           1.8524   -0.0338    1.1082 N.pl3   1  UNL1       -0.2829
     10 C           3.2175    0.1429    1.1903 C.ar    1  UNL1        0.1196
     11 C           4.1686   -0.8192    0.8243 C.ar    1  UNL1        0.0006
     12 C           5.4330   -0.3364    1.0649 C.ar    1  UNL1        0.0616
     13 C           6.7333   -1.0475    0.8112 C.3     1  UNL1       -0.0206
     14 N           5.2431    0.8862    1.5640 N.ar    1  UNL1       -0.1775
     15 N           3.9625    1.1854    1.6460 N.ar    1  UNL1       -0.2637
     16 C           0.9707    0.7872   -1.0075 C.ar    1  UNL1        0.0291
     17 C           2.2235    1.1762   -1.4551 C.ar    1  UNL1       -0.0505
     18 C           2.3166    1.7577   -2.7138 C.ar    1  UNL1       -0.0611
     19 C           1.2318    1.9676   -3.5377 C.ar    1  UNL1       -0.0610
     20 C          -0.0120    1.5734   -3.0745 C.ar    1  UNL1       -0.0487
     21 C          -0.1119    0.9992   -1.8344 C.ar    1  UNL1        0.0517
     22 C          -1.3804    0.6051   -1.3746 C.ar    1  UNL1        0.2797
     23 O          -2.3751    0.7821   -2.0961 O.2     1  UNL1       -0.2652
     24 C          -3.6659    0.6009    0.8446 C.ar    1  UNL1       -0.0359
     25 C          -4.9255    0.2250    1.2384 C.ar    1  UNL1       -0.0568
     26 H          -6.7199   -1.6913    2.5734 H       1  UNL1        0.0278
     27 H          -7.0779   -2.3183    0.9089 H       1  UNL1        0.0278
     28 H          -7.4471   -0.5565    1.3652 H       1  UNL1        0.0278
     29 H          -4.9111   -2.9957    0.3113 H       1  UNL1        0.0621
     30 H          -2.6757   -2.3957   -0.4043 H       1  UNL1        0.0639
     31 H           1.4906   -0.5228    2.0410 H       1  UNL1        0.1550
     32 H           3.9278   -1.8072    0.4076 H       1  UNL1        0.0670
     33 H           7.5157   -0.2590    0.8240 H       1  UNL1        0.0293
     34 H           6.6788   -1.6117   -0.1284 H       1  UNL1        0.0293
     35 H           6.8704   -1.7802    1.6335 H       1  UNL1        0.0293
     36 H           3.4975    2.0535    1.9887 H       1  UNL1        0.1903
     37 H           3.1092    1.0442   -0.8628 H       1  UNL1        0.0625
     38 H           3.3056    2.0560   -3.0509 H       1  UNL1        0.0618
     39 H           1.2894    2.4177   -4.5179 H       1  UNL1        0.0618
     40 H          -0.9110    1.7052   -3.6632 H       1  UNL1        0.0625
     41 H          -3.2671    1.5985    0.9703 H       1  UNL1        0.0639
     42 H          -5.5900    0.9405    1.7079 H       1  UNL1        0.0621
@<TRIPOS>BOND
     1     1     2    1
     2     2     3   ar
     3     3     4   ar
     4     4     5   ar
     5     5     6    1
     6     6     7   ar
     7     7     8   ar
     8     8     9    1
     9     9    10    1
    10    10    11   ar
    11    11    12   ar
    12    12    13    1
    13    12    14   ar
    14    14    15   ar
    15     8    16   ar
    16    16    17   ar
    17    17    18   ar
    18    18    19   ar
    19    19    20   ar
    20    20    21   ar
    21    21    22   ar
    22    22    23    2
    23     5    24   ar
    24    24    25   ar
    25    25     2   ar
    26    22     6   ar
    27    15    10   ar
    28    21    16   ar
    29     1    26    1
    30     1    27    1
    31     1    28    1
    32     3    29    1
    33     4    30    1
    34     9    31    1
    35    11    32    1
    36    13    33    1
    37    13    34    1
    38    13    35    1
    39    15    36    1
    40    17    37    1
    41    18    38    1
    42    19    39    1
    43    20    40    1
    44    24    41    1
    45    25    42    1
