@<TRIPOS>MOLECULE
*****
 46 47 0 0 0
SMALL
GASTEIGER

@<TRIPOS>ATOM
      1 C          -5.2945   -0.8339    0.7879 C.3     1  UNL1       -0.0307
      2 C          -4.1227    0.0148    0.3223 C.3     1  UNL1        0.0868
      3 O          -2.9037   -0.6482    0.4719 O.3     1  UNL1       -0.4917
      4 C          -1.6969   -0.1053    0.1434 C.ar    1  UNL1        0.1268
      5 C          -1.1501   -0.1995   -1.1444 C.ar    1  UNL1       -0.0054
      6 C          -1.8943   -0.9253   -2.1895 C.3     1  UNL1       -0.0271
      7 C          -1.7895   -2.4176   -1.9532 C.3     1  UNL1       -0.0611
      8 C           0.0918    0.3724   -1.4291 C.ar    1  UNL1       -0.0516
      9 C           0.8347    1.0445   -0.4884 C.ar    1  UNL1       -0.0422
     10 C           2.1602    1.6567   -0.7642 C.3     1  UNL1        0.0023
     11 C           3.3098    0.8221   -0.4159 C.ar    1  UNL1        0.0146
     12 C           3.9730    1.1512    0.7699 C.ar    1  UNL1        0.0379
     13 N           5.0225    0.4418    1.1643 N.ar    1  UNL1       -0.2227
     14 C           5.4638   -0.5940    0.4417 C.ar    1  UNL1        0.2142
     15 N           6.6060   -1.2909    0.9613 N.pl3   1  UNL1       -0.3274
     16 N           4.8602   -0.9382   -0.6915 N.ar    1  UNL1       -0.1999
     17 C           3.7892   -0.2490   -1.1359 C.ar    1  UNL1        0.1247
     18 N           3.1214   -0.5792   -2.3371 N.pl3   1  UNL1       -0.3428
     19 C           0.2853    1.1272    0.7688 C.ar    1  UNL1       -0.0516
     20 C          -0.9650    0.5634    1.0955 C.ar    1  UNL1       -0.0054
     21 C          -1.4211    0.7072    2.4709 C.3     1  UNL1       -0.0271
     22 C          -2.4196    1.7415    2.7862 C.3     1  UNL1       -0.0611
     23 H          -5.0995   -1.9030    0.6923 H       1  UNL1        0.0262
     24 H          -5.4469   -0.5714    1.8638 H       1  UNL1        0.0262
     25 H          -6.2343   -0.5471    0.2730 H       1  UNL1        0.0262
     26 H          -4.1484    1.0243    0.7572 H       1  UNL1        0.0694
     27 H          -4.3343    0.1943   -0.7757 H       1  UNL1        0.0694
     28 H          -2.8934   -0.5640   -2.4124 H       1  UNL1        0.0312
     29 H          -1.3180   -0.7577   -3.1588 H       1  UNL1        0.0312
     30 H          -1.8504   -2.9557   -2.9203 H       1  UNL1        0.0233
     31 H          -0.8134   -2.6399   -1.5042 H       1  UNL1        0.0233
     32 H          -2.6316   -2.7931   -1.3272 H       1  UNL1        0.0233
     33 H           0.4947    0.2890   -2.4458 H       1  UNL1        0.0624
     34 H           2.2621    1.8677   -1.8725 H       1  UNL1        0.0363
     35 H           2.2829    2.6549   -0.3021 H       1  UNL1        0.0363
     36 H           3.6309    1.9990    1.3841 H       1  UNL1        0.0834
     37 H           7.3622   -1.6422    0.3304 H       1  UNL1        0.1452
     38 H           6.7095   -1.4634    1.9752 H       1  UNL1        0.1452
     39 H           3.2679    0.0002   -3.1779 H       1  UNL1        0.1437
     40 H           2.4950   -1.3943   -2.3635 H       1  UNL1        0.1437
     41 H           0.8568    1.6596    1.5448 H       1  UNL1        0.0624
     42 H          -0.5350    0.8299    3.1634 H       1  UNL1        0.0312
     43 H          -1.8504   -0.2837    2.7926 H       1  UNL1        0.0312
     44 H          -3.4297    1.3192    3.0739 H       1  UNL1        0.0233
     45 H          -2.5370    2.5144    1.9920 H       1  UNL1        0.0233
     46 H          -2.1001    2.3012    3.6889 H       1  UNL1        0.0233
@<TRIPOS>BOND
     1     1     2    1
     2     2     3    1
     3     3     4    1
     4     4     5   ar
     5     5     6    1
     6     6     7    1
     7     5     8   ar
     8     8     9   ar
     9     9    10    1
    10    10    11    1
    11    11    12   ar
    12    12    13   ar
    13    13    14   ar
    14    14    15    1
    15    14    16   ar
    16    16    17   ar
    17    17    18    1
    18     9    19   ar
    19    19    20   ar
    20    20    21    1
    21    21    22    1
    22    20     4   ar
    23    17    11   ar
    24     1    23    1
    25     1    24    1
    26     1    25    1
    27     2    26    1
    28     2    27    1
    29     6    28    1
    30     6    29    1
    31     7    30    1
    32     7    31    1
    33     7    32    1
    34     8    33    1
    35    10    34    1
    36    10    35    1
    37    12    36    1
    38    15    37    1
    39    15    38    1
    40    18    39    1
    41    18    40    1
    42    19    41    1
    43    21    42    1
    44    21    43    1
    45    22    44    1
    46    22    45    1
    47    22    46    1
