
     RDKit          3D

 46 47  0  0  0  0  0  0  0  0999 V2000
   -5.2945   -0.8339    0.7879 C   0  0  0  0  0  0  0  0  0  0  0  0
   -4.1227    0.0148    0.3223 C   0  0  0  0  0  0  0  0  0  0  0  0
   -2.9037   -0.6482    0.4719 O   0  0  0  0  0  0  0  0  0  0  0  0
   -1.6969   -0.1053    0.1434 C   0  0  0  0  0  0  0  0  0  0  0  0
   -1.1501   -0.1995   -1.1444 C   0  0  0  0  0  0  0  0  0  0  0  0
   -1.8943   -0.9253   -2.1895 C   0  0  0  0  0  0  0  0  0  0  0  0
   -1.7895   -2.4176   -1.9532 C   0  0  0  0  0  0  0  0  0  0  0  0
    0.0918    0.3724   -1.4291 C   0  0  0  0  0  0  0  0  0  0  0  0
    0.8347    1.0445   -0.4884 C   0  0  0  0  0  0  0  0  0  0  0  0
    2.1602    1.6567   -0.7642 C   0  0  0  0  0  0  0  0  0  0  0  0
    3.3098    0.8221   -0.4159 C   0  0  0  0  0  0  0  0  0  0  0  0
    3.9730    1.1512    0.7699 C   0  0  0  0  0  0  0  0  0  0  0  0
    5.0225    0.4418    1.1643 N   0  0  0  0  0  0  0  0  0  0  0  0
    5.4638   -0.5940    0.4417 C   0  0  0  0  0  0  0  0  0  0  0  0
    6.6060   -1.2909    0.9613 N   0  0  0  0  0  0  0  0  0  0  0  0
    4.8602   -0.9382   -0.6915 N   0  0  0  0  0  0  0  0  0  0  0  0
    3.7892   -0.2490   -1.1359 C   0  0  0  0  0  0  0  0  0  0  0  0
    3.1214   -0.5792   -2.3371 N   0  0  0  0  0  0  0  0  0  0  0  0
    0.2853    1.1272    0.7688 C   0  0  0  0  0  0  0  0  0  0  0  0
   -0.9650    0.5634    1.0955 C   0  0  0  0  0  0  0  0  0  0  0  0
   -1.4211    0.7072    2.4709 C   0  0  0  0  0  0  0  0  0  0  0  0
   -2.4196    1.7415    2.7862 C   0  0  0  0  0  0  0  0  0  0  0  0
   -5.0995   -1.9030    0.6923 H   0  0  0  0  0  0  0  0  0  0  0  0
   -5.4469   -0.5714    1.8638 H   0  0  0  0  0  0  0  0  0  0  0  0
   -6.2343   -0.5471    0.2730 H   0  0  0  0  0  0  0  0  0  0  0  0
   -4.1484    1.0243    0.7572 H   0  0  0  0  0  0  0  0  0  0  0  0
   -4.3343    0.1943   -0.7757 H   0  0  0  0  0  0  0  0  0  0  0  0
   -2.8934   -0.5640   -2.4124 H   0  0  0  0  0  0  0  0  0  0  0  0
   -1.3180   -0.7577   -3.1588 H   0  0  0  0  0  0  0  0  0  0  0  0
   -1.8504   -2.9557   -2.9203 H   0  0  0  0  0  0  0  0  0  0  0  0
   -0.8134   -2.6399   -1.5042 H   0  0  0  0  0  0  0  0  0  0  0  0
   -2.6316   -2.7931   -1.3272 H   0  0  0  0  0  0  0  0  0  0  0  0
    0.4947    0.2890   -2.4458 H   0  0  0  0  0  0  0  0  0  0  0  0
    2.2621    1.8677   -1.8725 H   0  0  0  0  0  0  0  0  0  0  0  0
    2.2829    2.6549   -0.3021 H   0  0  0  0  0  0  0  0  0  0  0  0
    3.6309    1.9990    1.3841 H   0  0  0  0  0  0  0  0  0  0  0  0
    7.3622   -1.6422    0.3304 H   0  0  0  0  0  0  0  0  0  0  0  0
    6.7095   -1.4634    1.9752 H   0  0  0  0  0  0  0  0  0  0  0  0
    3.2679    0.0002   -3.1779 H   0  0  0  0  0  0  0  0  0  0  0  0
    2.4950   -1.3943   -2.3635 H   0  0  0  0  0  0  0  0  0  0  0  0
    0.8568    1.6596    1.5448 H   0  0  0  0  0  0  0  0  0  0  0  0
   -0.5350    0.8299    3.1634 H   0  0  0  0  0  0  0  0  0  0  0  0
   -1.8504   -0.2837    2.7926 H   0  0  0  0  0  0  0  0  0  0  0  0
   -3.4297    1.3192    3.0739 H   0  0  0  0  0  0  0  0  0  0  0  0
   -2.5370    2.5144    1.9920 H   0  0  0  0  0  0  0  0  0  0  0  0
   -2.1001    2.3012    3.6889 H   0  0  0  0  0  0  0  0  0  0  0  0
  1  2  1  0
  2  3  1  0
  3  4  1  0
  4  5  2  0
  5  6  1  0
  6  7  1  0
  5  8  1  0
  8  9  2  0
  9 10  1  0
 10 11  1  0
 11 12  2  0
 12 13  1  0
 13 14  2  0
 14 15  1  0
 14 16  1  0
 16 17  2  0
 17 18  1  0
  9 19  1  0
 19 20  2  0
 20 21  1  0
 21 22  1  0
 20  4  1  0
 17 11  1  0
  1 23  1  0
  1 24  1  0
  1 25  1  0
  2 26  1  0
  2 27  1  0
  6 28  1  0
  6 29  1  0
  7 30  1  0
  7 31  1  0
  7 32  1  0
  8 33  1  0
 10 34  1  0
 10 35  1  0
 12 36  1  0
 15 37  1  0
 15 38  1  0
 18 39  1  0
 18 40  1  0
 19 41  1  0
 21 42  1  0
 21 43  1  0
 22 44  1  0
 22 45  1  0
 22 46  1  0
M  END
$$$$
