@<TRIPOS>MOLECULE
*****
 40 40 0 0 0
SMALL
GASTEIGER

@<TRIPOS>ATOM
      1 C          -0.7735   -1.6064   -3.6523 C.3     1  UNL1        0.0788
      2 O          -0.8155   -1.2356   -2.2883 O.3     1  UNL1       -0.4946
      3 C           0.3245   -0.9808   -1.5937 C.ar    1  UNL1        0.1292
      4 C           1.5462   -1.0838   -2.2239 C.ar    1  UNL1        0.0225
      5 C           2.7017   -0.8288   -1.5387 C.ar    1  UNL1        0.1275
      6 O           3.9239   -0.9407   -2.2007 O.3     1  UNL1       -0.5061
      7 C           2.6394   -0.4577   -0.1775 C.ar    1  UNL1        0.0172
      8 C           3.9312   -0.3395    0.4452 C.2     1  UNL1       -0.0444
      9 C           4.2431    0.5495    1.3329 C.2     1  UNL1        0.0230
     10 C           3.4534    1.6000    1.8855 C.2     1  UNL1        0.3296
     11 O           2.2915    1.9060    1.5621 O.2     1  UNL1       -0.2458
     12 O           4.0024    2.4194    2.9239 O.3     1  UNL1       -0.4775
     13 C           1.4026   -0.3716    0.4086 C.ar    1  UNL1       -0.0420
     14 C           0.2017   -0.6276   -0.2773 C.ar    1  UNL1        0.0233
     15 C          -1.0467   -0.5112    0.4081 C.3     1  UNL1        0.0838
     16 O          -0.8682   -0.9413    1.7456 O.3     1  UNL1       -0.3871
     17 C          -1.7715    0.7651    0.4353 C.3     1  UNL1       -0.0202
     18 C          -3.0574    0.5335    1.2491 C.3     1  UNL1       -0.0441
     19 C          -3.8684    1.8094    1.3261 C.3     1  UNL1       -0.0626
     20 C          -3.8549   -0.6076    0.6831 C.3     1  UNL1       -0.0626
     21 H          -1.8015   -1.7594   -4.0593 H       1  UNL1        0.0660
     22 H          -0.1794   -2.5317   -3.7782 H       1  UNL1        0.0660
     23 H          -0.2776   -0.8006   -4.2391 H       1  UNL1        0.0660
     24 H           1.6093   -1.3692   -3.2747 H       1  UNL1        0.0691
     25 H           4.2892   -0.0747   -2.5901 H       1  UNL1        0.2922
     26 H           4.7209   -1.0672    0.1474 H       1  UNL1        0.0627
     27 H           5.2963    0.4797    1.7225 H       1  UNL1        0.0689
     28 H           3.3399    2.8713    3.5626 H       1  UNL1        0.2954
     29 H           1.3278   -0.1730    1.4791 H       1  UNL1        0.0629
     30 H          -1.7618   -1.2801   -0.0190 H       1  UNL1        0.0645
     31 H          -0.7448   -0.1228    2.2787 H       1  UNL1        0.2102
     32 H          -2.0706    1.0648   -0.5917 H       1  UNL1        0.0296
     33 H          -1.2956    1.6165    0.9060 H       1  UNL1        0.0296
     34 H          -2.7820    0.2685    2.2909 H       1  UNL1        0.0296
     35 H          -3.1469    2.6553    1.1297 H       1  UNL1        0.0232
     36 H          -4.6389    1.8622    0.5330 H       1  UNL1        0.0232
     37 H          -4.2666    1.9640    2.3305 H       1  UNL1        0.0232
     38 H          -3.4584   -1.5576    1.0972 H       1  UNL1        0.0232
     39 H          -4.8964   -0.4960    1.0512 H       1  UNL1        0.0232
     40 H          -3.8685   -0.6002   -0.4298 H       1  UNL1        0.0232
@<TRIPOS>BOND
     1     1     2    1
     2     2     3    1
     3     3     4   ar
     4     4     5   ar
     5     5     6    1
     6     5     7   ar
     7     7     8    1
     8     8     9    2
     9     9    10    1
    10    10    11    2
    11    10    12    1
    12     7    13   ar
    13    13    14   ar
    14    14    15    1
    15    15    16    1
    16    15    17    1
    17    17    18    1
    18    18    19    1
    19    18    20    1
    20    14     3   ar
    21     1    21    1
    22     1    22    1
    23     1    23    1
    24     4    24    1
    25     6    25    1
    26     8    26    1
    27     9    27    1
    28    12    28    1
    29    13    29    1
    30    15    30    1
    31    16    31    1
    32    17    32    1
    33    17    33    1
    34    18    34    1
    35    19    35    1
    36    19    36    1
    37    19    37    1
    38    20    38    1
    39    20    39    1
    40    20    40    1
