
     RDKit          3D

 40 40  0  0  0  0  0  0  0  0999 V2000
   -0.7735   -1.6064   -3.6523 C   0  0  0  0  0  0  0  0  0  0  0  0
   -0.8155   -1.2356   -2.2883 O   0  0  0  0  0  0  0  0  0  0  0  0
    0.3245   -0.9808   -1.5937 C   0  0  0  0  0  0  0  0  0  0  0  0
    1.5462   -1.0838   -2.2239 C   0  0  0  0  0  0  0  0  0  0  0  0
    2.7017   -0.8288   -1.5387 C   0  0  0  0  0  0  0  0  0  0  0  0
    3.9239   -0.9407   -2.2007 O   0  0  0  0  0  0  0  0  0  0  0  0
    2.6394   -0.4577   -0.1775 C   0  0  0  0  0  0  0  0  0  0  0  0
    3.9312   -0.3395    0.4452 C   0  0  0  0  0  0  0  0  0  0  0  0
    4.2431    0.5495    1.3329 C   0  0  0  0  0  0  0  0  0  0  0  0
    3.4534    1.6000    1.8855 C   0  0  0  0  0  0  0  0  0  0  0  0
    2.2915    1.9060    1.5621 O   0  0  0  0  0  0  0  0  0  0  0  0
    4.0024    2.4194    2.9239 O   0  0  0  0  0  0  0  0  0  0  0  0
    1.4026   -0.3716    0.4086 C   0  0  0  0  0  0  0  0  0  0  0  0
    0.2017   -0.6276   -0.2773 C   0  0  0  0  0  0  0  0  0  0  0  0
   -1.0467   -0.5112    0.4081 C   0  0  1  0  0  0  0  0  0  0  0  0
   -0.8682   -0.9413    1.7456 O   0  0  0  0  0  0  0  0  0  0  0  0
   -1.7715    0.7651    0.4353 C   0  0  0  0  0  0  0  0  0  0  0  0
   -3.0574    0.5335    1.2491 C   0  0  0  0  0  0  0  0  0  0  0  0
   -3.8684    1.8094    1.3261 C   0  0  0  0  0  0  0  0  0  0  0  0
   -3.8549   -0.6076    0.6831 C   0  0  0  0  0  0  0  0  0  0  0  0
   -1.8015   -1.7594   -4.0593 H   0  0  0  0  0  0  0  0  0  0  0  0
   -0.1794   -2.5317   -3.7782 H   0  0  0  0  0  0  0  0  0  0  0  0
   -0.2776   -0.8006   -4.2391 H   0  0  0  0  0  0  0  0  0  0  0  0
    1.6093   -1.3692   -3.2747 H   0  0  0  0  0  0  0  0  0  0  0  0
    4.2892   -0.0747   -2.5901 H   0  0  0  0  0  0  0  0  0  0  0  0
    4.7209   -1.0672    0.1474 H   0  0  0  0  0  0  0  0  0  0  0  0
    5.2963    0.4797    1.7225 H   0  0  0  0  0  0  0  0  0  0  0  0
    3.3399    2.8713    3.5626 H   0  0  0  0  0  0  0  0  0  0  0  0
    1.3278   -0.1730    1.4791 H   0  0  0  0  0  0  0  0  0  0  0  0
   -1.7618   -1.2801   -0.0190 H   0  0  0  0  0  0  0  0  0  0  0  0
   -0.7448   -0.1228    2.2787 H   0  0  0  0  0  0  0  0  0  0  0  0
   -2.0706    1.0648   -0.5917 H   0  0  0  0  0  0  0  0  0  0  0  0
   -1.2956    1.6165    0.9060 H   0  0  0  0  0  0  0  0  0  0  0  0
   -2.7820    0.2685    2.2909 H   0  0  0  0  0  0  0  0  0  0  0  0
   -3.1469    2.6553    1.1297 H   0  0  0  0  0  0  0  0  0  0  0  0
   -4.6389    1.8622    0.5330 H   0  0  0  0  0  0  0  0  0  0  0  0
   -4.2666    1.9640    2.3305 H   0  0  0  0  0  0  0  0  0  0  0  0
   -3.4584   -1.5576    1.0972 H   0  0  0  0  0  0  0  0  0  0  0  0
   -4.8964   -0.4960    1.0512 H   0  0  0  0  0  0  0  0  0  0  0  0
   -3.8685   -0.6002   -0.4298 H   0  0  0  0  0  0  0  0  0  0  0  0
  1  2  1  0
  2  3  1  0
  3  4  2  0
  4  5  1  0
  5  6  1  0
  5  7  2  0
  7  8  1  0
  8  9  2  0
  9 10  1  0
 10 11  2  0
 10 12  1  0
  7 13  1  0
 13 14  2  0
 14 15  1  0
 15 16  1  0
 15 17  1  0
 17 18  1  0
 18 19  1  0
 18 20  1  0
 14  3  1  0
  1 21  1  0
  1 22  1  0
  1 23  1  0
  4 24  1  0
  6 25  1  0
  8 26  1  0
  9 27  1  0
 12 28  1  0
 13 29  1  0
 15 30  1  6
 16 31  1  0
 17 32  1  0
 17 33  1  0
 18 34  1  0
 19 35  1  0
 19 36  1  0
 19 37  1  0
 20 38  1  0
 20 39  1  0
 20 40  1  0
M  END
$$$$
