
     RDKit          3D

 39 41  0  0  0  0  0  0  0  0999 V2000
   -0.7624    0.7998    0.6685 C   0  0  1  0  0  0  0  0  0  0  0  0
   -1.1212    1.7549   -0.4470 C   0  0  0  0  0  0  0  0  0  0  0  0
   -2.5061    2.2807   -0.2926 C   0  0  0  0  0  0  0  0  0  0  0  0
   -3.0246    3.2366   -1.3089 C   0  0  0  0  0  0  0  0  0  0  0  0
   -3.2862    2.0050    0.6035 O   0  0  0  0  0  0  0  0  0  0  0  0
   -1.6696   -0.3552    0.6980 C   0  0  0  0  0  0  0  0  0  0  0  0
   -1.9440   -0.9379    1.9408 C   0  0  0  0  0  0  0  0  0  0  0  0
   -2.7614   -2.0088    2.1504 C   0  0  0  0  0  0  0  0  0  0  0  0
   -3.3763   -2.5756    1.0549 C   0  0  0  0  0  0  0  0  0  0  0  0
   -3.1463   -2.0491   -0.1856 C   0  0  0  0  0  0  0  0  0  0  0  0
   -2.3130   -0.9653   -0.3583 C   0  0  0  0  0  0  0  0  0  0  0  0
    0.6610    0.4559    0.6160 C   0  0  0  0  0  0  0  0  0  0  0  0
    1.3239   -0.1039   -0.4545 C   0  0  0  0  0  0  0  0  0  0  0  0
    0.6007   -0.3764   -1.6010 O   0  0  0  0  0  0  0  0  0  0  0  0
    2.6903   -0.3959   -0.4033 C   0  0  0  0  0  0  0  0  0  0  0  0
    3.2768   -0.9627   -1.5379 C   0  0  0  0  0  0  0  0  0  0  0  0
    4.6322   -1.2589   -1.5045 C   0  0  0  0  0  0  0  0  0  0  0  0
    5.3922   -1.0012   -0.3753 C   0  0  0  0  0  0  0  0  0  0  0  0
    4.7737   -0.4479    0.7051 C   0  0  0  0  0  0  0  0  0  0  0  0
    3.4329   -0.1283    0.7414 C   0  0  0  0  0  0  0  0  0  0  0  0
    2.7829    0.4022    1.7430 O   0  0  0  0  0  0  0  0  0  0  0  0
    1.5055    0.6802    1.7081 C   0  0  0  0  0  0  0  0  0  0  0  0
    1.0503    1.1950    2.7849 O   0  0  0  0  0  0  0  0  0  0  0  0
   -0.9390    1.3783    1.6149 H   0  0  0  0  0  0  0  0  0  0  0  0
   -1.0858    1.2248   -1.4128 H   0  0  0  0  0  0  0  0  0  0  0  0
   -0.4235    2.6169   -0.4261 H   0  0  0  0  0  0  0  0  0  0  0  0
   -3.2952    4.2069   -0.8477 H   0  0  0  0  0  0  0  0  0  0  0  0
   -2.2762    3.4043   -2.1101 H   0  0  0  0  0  0  0  0  0  0  0  0
   -3.9483    2.8223   -1.7866 H   0  0  0  0  0  0  0  0  0  0  0  0
   -1.4777   -0.5183    2.8256 H   0  0  0  0  0  0  0  0  0  0  0  0
   -2.9267   -2.4061    3.1424 H   0  0  0  0  0  0  0  0  0  0  0  0
   -4.0374   -3.4247    1.1364 H   0  0  0  0  0  0  0  0  0  0  0  0
   -3.5833   -2.4263   -1.0989 H   0  0  0  0  0  0  0  0  0  0  0  0
   -2.1187   -0.5318   -1.3299 H   0  0  0  0  0  0  0  0  0  0  0  0
    0.2424   -1.2752   -1.8361 H   0  0  0  0  0  0  0  0  0  0  0  0
    2.7074   -1.1727   -2.4282 H   0  0  0  0  0  0  0  0  0  0  0  0
    5.1661   -1.6971   -2.3334 H   0  0  0  0  0  0  0  0  0  0  0  0
    6.4483   -1.2102   -0.2917 H   0  0  0  0  0  0  0  0  0  0  0  0
    5.3363   -0.2343    1.6007 H   0  0  0  0  0  0  0  0  0  0  0  0
  1  2  1  0
  2  3  1  0
  3  4  1  0
  3  5  2  0
  1  6  1  0
  6  7  2  0
  7  8  1  0
  8  9  2  0
  9 10  1  0
 10 11  2  0
  1 12  1  0
 12 13  2  0
 13 14  1  0
 13 15  1  0
 15 16  2  0
 16 17  1  0
 17 18  2  0
 18 19  1  0
 19 20  2  0
 20 21  1  0
 21 22  1  0
 22 23  2  0
 11  6  1  0
 22 12  1  0
 20 15  1  0
  1 24  1  1
  2 25  1  0
  2 26  1  0
  4 27  1  0
  4 28  1  0
  4 29  1  0
  7 30  1  0
  8 31  1  0
  9 32  1  0
 10 33  1  0
 11 34  1  0
 14 35  1  0
 16 36  1  0
 17 37  1  0
 18 38  1  0
 19 39  1  0
M  END
$$$$
