@<TRIPOS>MOLECULE
*****
 39 41 0 0 0
SMALL
GASTEIGER

@<TRIPOS>ATOM
      1 C          -0.7624    0.7998    0.6685 C.3     1  UNL1        0.0262
      2 C          -1.1212    1.7549   -0.4470 C.3     1  UNL1        0.0167
      3 C          -2.5061    2.2807   -0.2926 C.2     1  UNL1        0.1312
      4 C          -3.0246    3.2366   -1.3089 C.3     1  UNL1       -0.0060
      5 O          -3.2862    2.0050    0.6035 O.2     1  UNL1       -0.2977
      6 C          -1.6696   -0.3552    0.6980 C.ar    1  UNL1       -0.0392
      7 C          -1.9440   -0.9379    1.9408 C.ar    1  UNL1       -0.0580
      8 C          -2.7614   -2.0088    2.1504 C.ar    1  UNL1       -0.0615
      9 C          -3.3763   -2.5756    1.0549 C.ar    1  UNL1       -0.0617
     10 C          -3.1463   -2.0491   -0.1856 C.ar    1  UNL1       -0.0615
     11 C          -2.3130   -0.9653   -0.3583 C.ar    1  UNL1       -0.0580
     12 C           0.6610    0.4559    0.6160 C.ar    1  UNL1        0.0866
     13 C           1.3239   -0.1039   -0.4545 C.ar    1  UNL1        0.1381
     14 O           0.6007   -0.3764   -1.6010 O.3     1  UNL1       -0.5055
     15 C           2.6903   -0.3959   -0.4033 C.ar    1  UNL1        0.0593
     16 C           3.2768   -0.9627   -1.5379 C.ar    1  UNL1       -0.0475
     17 C           4.6322   -1.2589   -1.5045 C.ar    1  UNL1       -0.0609
     18 C           5.3922   -1.0012   -0.3753 C.ar    1  UNL1       -0.0582
     19 C           4.7737   -0.4479    0.7051 C.ar    1  UNL1       -0.0185
     20 C           3.4329   -0.1283    0.7414 C.ar    1  UNL1        0.1426
     21 O           2.7829    0.4022    1.7430 O.2     1  UNL1       -0.4217
     22 C           1.5055    0.6802    1.7081 C.ar    1  UNL1        0.3446
     23 O           1.0503    1.1950    2.7849 O.2     1  UNL1       -0.2447
     24 H          -0.9390    1.3783    1.6149 H       1  UNL1        0.0405
     25 H          -1.0858    1.2248   -1.4128 H       1  UNL1        0.0351
     26 H          -0.4235    2.6169   -0.4261 H       1  UNL1        0.0351
     27 H          -3.2952    4.2069   -0.8477 H       1  UNL1        0.0306
     28 H          -2.2762    3.4043   -2.1101 H       1  UNL1        0.0306
     29 H          -3.9483    2.8223   -1.7866 H       1  UNL1        0.0306
     30 H          -1.4777   -0.5183    2.8256 H       1  UNL1        0.0620
     31 H          -2.9267   -2.4061    3.1424 H       1  UNL1        0.0618
     32 H          -4.0374   -3.4247    1.1364 H       1  UNL1        0.0618
     33 H          -3.5833   -2.4263   -1.0989 H       1  UNL1        0.0618
     34 H          -2.1187   -0.5318   -1.3299 H       1  UNL1        0.0620
     35 H           0.2424   -1.2752   -1.8361 H       1  UNL1        0.2922
     36 H           2.7074   -1.1727   -2.4282 H       1  UNL1        0.0626
     37 H           5.1661   -1.6971   -2.3334 H       1  UNL1        0.0618
     38 H           6.4483   -1.2102   -0.2917 H       1  UNL1        0.0619
     39 H           5.3363   -0.2343    1.6007 H       1  UNL1        0.0654
@<TRIPOS>BOND
     1     1     2    1
     2     2     3    1
     3     3     4    1
     4     3     5    2
     5     1     6    1
     6     6     7   ar
     7     7     8   ar
     8     8     9   ar
     9     9    10   ar
    10    10    11   ar
    11     1    12    1
    12    12    13   ar
    13    13    14    1
    14    13    15   ar
    15    15    16   ar
    16    16    17   ar
    17    17    18   ar
    18    18    19   ar
    19    19    20   ar
    20    20    21   ar
    21    21    22   ar
    22    22    23    2
    23    11     6   ar
    24    22    12   ar
    25    20    15   ar
    26     1    24    1
    27     2    25    1
    28     2    26    1
    29     4    27    1
    30     4    28    1
    31     4    29    1
    32     7    30    1
    33     8    31    1
    34     9    32    1
    35    10    33    1
    36    11    34    1
    37    14    35    1
    38    16    36    1
    39    17    37    1
    40    18    38    1
    41    19    39    1
