@<TRIPOS>MOLECULE
*****
 29 31 0 0 0
SMALL
GASTEIGER

@<TRIPOS>ATOM
      1 C          -4.9228   -0.2461    0.2322 C.3     1  UNL1       -0.0397
      2 C          -3.4925    0.0954    0.0800 C.ar    1  UNL1       -0.0504
      3 C          -2.6322   -0.8052   -0.5170 C.ar    1  UNL1       -0.0583
      4 C          -1.2905   -0.5308   -0.6807 C.ar    1  UNL1       -0.0536
      5 C          -0.7733    0.6664   -0.2449 C.ar    1  UNL1       -0.0129
      6 C           0.6395    0.9587   -0.4092 C.ar    1  UNL1        0.0441
      7 C           1.1959    2.1009   -0.9116 C.ar    1  UNL1        0.1026
      8 O           2.4908    1.9300   -0.8843 O.2     1  UNL1       -0.4552
      9 C           2.8188    0.7701   -0.4050 C.ar    1  UNL1        0.2187
     10 C           4.0251    0.1432   -0.1814 C.ar    1  UNL1        0.3322
     11 O           5.1228    0.7160   -0.4622 O.2     1  UNL1       -0.2604
     12 N           4.0191   -1.0953    0.3435 N.ar    1  UNL1       -0.0886
     13 O           5.2176   -1.7454    0.5772 O.3     1  UNL1       -0.4193
     14 C           2.8836   -1.7397    0.6561 C.ar    1  UNL1        0.3630
     15 O           2.8698   -2.9072    1.1514 O.2     1  UNL1       -0.2433
     16 N           1.6979   -1.1577    0.4507 N.ar    1  UNL1       -0.3015
     17 C           1.6521    0.0902   -0.0768 C.ar    1  UNL1        0.1022
     18 C          -1.6077    1.5937    0.3586 C.ar    1  UNL1       -0.0536
     19 C          -2.9402    1.2885    0.5062 C.ar    1  UNL1       -0.0583
     20 H          -5.1255   -0.8700    1.1156 H       1  UNL1        0.0278
     21 H          -5.5460    0.6676    0.3027 H       1  UNL1        0.0278
     22 H          -5.2444   -0.8185   -0.6838 H       1  UNL1        0.0278
     23 H          -3.0457   -1.7645   -0.8662 H       1  UNL1        0.0620
     24 H          -0.6371   -1.2758   -1.1669 H       1  UNL1        0.0624
     25 H           0.7028    3.0094   -1.2787 H       1  UNL1        0.1036
     26 H           5.8832   -1.9684   -0.1353 H       1  UNL1        0.3261
     27 H           0.8025   -1.6375    0.6884 H       1  UNL1        0.1706
     28 H          -1.1578    2.5189    0.6844 H       1  UNL1        0.0624
     29 H          -3.6061    2.0132    0.9808 H       1  UNL1        0.0620
@<TRIPOS>BOND
     1     1     2    1
     2     2     3   ar
     3     3     4   ar
     4     4     5   ar
     5     5     6    1
     6     6     7   ar
     7     7     8   ar
     8     8     9   ar
     9     9    10   ar
    10    10    11    2
    11    10    12   ar
    12    12    13    1
    13    12    14   ar
    14    14    15    2
    15    14    16   ar
    16    16    17   ar
    17     5    18   ar
    18    18    19   ar
    19    19     2   ar
    20    17     6   ar
    21    17     9   ar
    22     1    20    1
    23     1    21    1
    24     1    22    1
    25     3    23    1
    26     4    24    1
    27     7    25    1
    28    13    26    1
    29    16    27    1
    30    18    28    1
    31    19    29    1
