@<TRIPOS>MOLECULE
*****
 85 89 0 0 0
SMALL
GASTEIGER

@<TRIPOS>ATOM
      1 C          -4.2360   -4.8629    1.8439 C.3     1  UNL1       -0.0652
      2 C          -4.0128   -3.9270    0.6520 C.3     1  UNL1       -0.0545
      3 C          -2.6151   -4.0380    0.1318 C.3     1  UNL1       -0.0374
      4 C          -2.2686   -3.1854   -1.0226 C.3     1  UNL1        0.0158
      5 N          -2.3928   -1.7643   -0.8547 N.am    1  UNL1       -0.2855
      6 C          -3.5964   -1.1114   -1.1907 C.2     1  UNL1        0.2393
      7 O          -4.6551   -1.8048   -1.3801 O.2     1  UNL1       -0.2734
      8 C          -3.7537    0.3778   -1.3518 C.3     1  UNL1        0.1259
      9 C          -5.1768    0.7283   -1.1400 C.3     1  UNL1        0.0848
     10 O          -6.0094    0.0028   -2.0437 O.3     1  UNL1       -0.3892
     11 C          -5.5989    2.1421   -1.2805 C.3     1  UNL1       -0.0127
     12 C          -7.1358    2.1975   -1.0407 C.3     1  UNL1       -0.0478
     13 C          -7.4184    2.2891    0.4474 C.3     1  UNL1       -0.0527
     14 C          -7.1354    3.7344    0.8281 C.3     1  UNL1       -0.0530
     15 C          -6.0464    4.2448   -0.0750 C.3     1  UNL1       -0.0527
     16 C          -4.9938    3.1466   -0.3657 C.3     1  UNL1       -0.0478
     17 N          -2.8063    1.0068   -0.4781 N.am    1  UNL1       -0.3001
     18 C          -1.8809    0.2271    0.3042 C.2     1  UNL1        0.2375
     19 O          -1.6076    0.5400    1.4686 O.2     1  UNL1       -0.2734
     20 C          -1.2740   -0.9550   -0.3393 C.3     1  UNL1        0.1156
     21 C          -0.4082   -0.5563   -1.5238 C.3     1  UNL1       -0.0100
     22 C           0.7861    0.2394   -1.1049 C.3     1  UNL1        0.0016
     23 N           0.8224    0.3745    0.3425 N.3     1  UNL1       -0.2980
     24 C           1.9475    1.1701    0.7503 C.3     1  UNL1        0.0240
     25 C           3.2450    0.6015    0.3458 C.ar    1  UNL1       -0.0331
     26 C           3.8621    0.8889   -0.8546 C.ar    1  UNL1       -0.0539
     27 C           5.0935    0.3122   -1.1787 C.ar    1  UNL1       -0.0190
     28 C           5.7138   -0.5482   -0.3150 C.ar    1  UNL1        0.1285
     29 O           6.9347   -1.1485   -0.5857 O.3     1  UNL1       -0.4560
     30 C           8.1089   -0.5040   -0.2202 C.ar    1  UNL1        0.1285
     31 C           8.0908    0.7279    0.3974 C.ar    1  UNL1       -0.0186
     32 C           9.2687    1.3872    0.7702 C.ar    1  UNL1       -0.0443
     33 C          10.4931    0.8016    0.5194 C.ar    1  UNL1        0.0591
     34 C          11.7254    1.4769    0.9020 C.2     1  UNL1        0.3368
     35 O          11.6888    2.5960    1.4650 O.2     1  UNL1       -0.2451
     36 O          12.9530    0.8928    0.6483 O.3     1  UNL1       -0.4771
     37 C          10.5046   -0.4323   -0.0998 C.ar    1  UNL1       -0.0443
     38 C           9.3444   -1.0816   -0.4664 C.ar    1  UNL1       -0.0186
     39 C           5.1139   -0.8406    0.8759 C.ar    1  UNL1       -0.0190
     40 C           3.8954   -0.2713    1.1979 C.ar    1  UNL1       -0.0539
     41 C           0.7754   -0.9065    1.0012 C.3     1  UNL1        0.0016
     42 C          -0.4246   -1.7141    0.6293 C.3     1  UNL1       -0.0100
     43 H          -5.2953   -5.1867    1.8913 H       1  UNL1        0.0230
     44 H          -3.6154   -5.7740    1.7715 H       1  UNL1        0.0230
     45 H          -4.0011   -4.3640    2.8061 H       1  UNL1        0.0230
     46 H          -4.2158   -2.9104    1.0636 H       1  UNL1        0.0263
     47 H          -4.7844   -4.1887   -0.0726 H       1  UNL1        0.0263
     48 H          -1.8749   -4.0045    0.9814 H       1  UNL1        0.0280
     49 H          -2.5190   -5.1156   -0.2228 H       1  UNL1        0.0280
     50 H          -1.2326   -3.4364   -1.3787 H       1  UNL1        0.0465
     51 H          -2.9296   -3.4656   -1.8785 H       1  UNL1        0.0465
     52 H          -3.5218    0.6259   -2.4331 H       1  UNL1        0.0621
     53 H          -5.4801    0.3655   -0.1158 H       1  UNL1        0.0619
     54 H          -6.6376   -0.5871   -1.5670 H       1  UNL1        0.2099
     55 H          -5.4781    2.5194   -2.3235 H       1  UNL1        0.0326
     56 H          -7.5676    3.0724   -1.5507 H       1  UNL1        0.0269
     57 H          -7.5314    1.2479   -1.4291 H       1  UNL1        0.0269
     58 H          -6.7793    1.6467    1.0517 H       1  UNL1        0.0265
     59 H          -8.5024    2.0746    0.5702 H       1  UNL1        0.0265
     60 H          -6.9016    3.7862    1.8906 H       1  UNL1        0.0265
     61 H          -8.0666    4.2920    0.6282 H       1  UNL1        0.0265
     62 H          -6.4242    4.6715   -1.0267 H       1  UNL1        0.0265
     63 H          -5.4963    5.0404    0.4864 H       1  UNL1        0.0265
     64 H          -4.6862    2.7850    0.6151 H       1  UNL1        0.0269
     65 H          -4.1630    3.7483   -0.8500 H       1  UNL1        0.0269
     66 H          -2.7305    2.0371   -0.3806 H       1  UNL1        0.1496
     67 H          -1.0031    0.0264   -2.2705 H       1  UNL1        0.0303
     68 H          -0.0606   -1.4758   -2.0278 H       1  UNL1        0.0303
     69 H           1.7388   -0.1859   -1.4646 H       1  UNL1        0.0427
     70 H           0.6979    1.2594   -1.5261 H       1  UNL1        0.0427
     71 H           1.8365    2.1606    0.2365 H       1  UNL1        0.0476
     72 H           1.8765    1.4013    1.8368 H       1  UNL1        0.0476
     73 H           3.3790    1.5673   -1.5417 H       1  UNL1        0.0622
     74 H           5.5463    0.5541   -2.1211 H       1  UNL1        0.0654
     75 H           7.1427    1.2097    0.6033 H       1  UNL1        0.0654
     76 H           9.2586    2.3499    1.2570 H       1  UNL1        0.0627
     77 H          13.8037    1.4397    0.4986 H       1  UNL1        0.2954
     78 H          11.4752   -0.8807   -0.2910 H       1  UNL1        0.0627
     79 H           9.3347   -2.0343   -0.9440 H       1  UNL1        0.0654
     80 H           5.5734   -1.5143    1.5851 H       1  UNL1        0.0654
     81 H           3.4185   -0.5022    2.1375 H       1  UNL1        0.0622
     82 H           1.7289   -1.4597    0.7451 H       1  UNL1        0.0427
     83 H           0.8512   -0.7131    2.0988 H       1  UNL1        0.0427
     84 H          -1.0022   -1.8836    1.5627 H       1  UNL1        0.0303
     85 H          -0.0817   -2.6530    0.1539 H       1  UNL1        0.0303
@<TRIPOS>BOND
     1     1     2    1
     2     2     3    1
     3     3     4    1
     4     4     5    1
     5     5     6   am
     6     6     7    2
     7     6     8    1
     8     8     9    1
     9     9    10    1
    10     9    11    1
    11    11    12    1
    12    12    13    1
    13    13    14    1
    14    14    15    1
    15    15    16    1
    16     8    17    1
    17    17    18   am
    18    18    19    2
    19    18    20    1
    20    20    21    1
    21    21    22    1
    22    22    23    1
    23    23    24    1
    24    24    25    1
    25    25    26   ar
    26    26    27   ar
    27    27    28   ar
    28    28    29    1
    29    29    30    1
    30    30    31   ar
    31    31    32   ar
    32    32    33   ar
    33    33    34    1
    34    34    35    2
    35    34    36    1
    36    33    37   ar
    37    37    38   ar
    38    28    39   ar
    39    39    40   ar
    40    23    41    1
    41    41    42    1
    42    20     5    1
    43    40    25   ar
    44    16    11    1
    45    42    20    1
    46    38    30   ar
    47     1    43    1
    48     1    44    1
    49     1    45    1
    50     2    46    1
    51     2    47    1
    52     3    48    1
    53     3    49    1
    54     4    50    1
    55     4    51    1
    56     8    52    1
    57     9    53    1
    58    10    54    1
    59    11    55    1
    60    12    56    1
    61    12    57    1
    62    13    58    1
    63    13    59    1
    64    14    60    1
    65    14    61    1
    66    15    62    1
    67    15    63    1
    68    16    64    1
    69    16    65    1
    70    17    66    1
    71    21    67    1
    72    21    68    1
    73    22    69    1
    74    22    70    1
    75    24    71    1
    76    24    72    1
    77    26    73    1
    78    27    74    1
    79    31    75    1
    80    32    76    1
    81    36    77    1
    82    37    78    1
    83    38    79    1
    84    39    80    1
    85    40    81    1
    86    41    82    1
    87    41    83    1
    88    42    84    1
    89    42    85    1
