@<TRIPOS>MOLECULE
*****
 48 51 0 0 0
SMALL
GASTEIGER

@<TRIPOS>ATOM
      1 N           8.4522   -0.5020    1.4987 N.3     1  UNL1       -0.2035
      2 S           7.6688    0.7257    0.5728 S.O2    1  UNL1        0.0559
      3 O           7.8082    2.0585    1.2569 O.2     1  UNL1       -0.1533
      4 O           8.2859    0.8739   -0.7940 O.2     1  UNL1       -0.1533
      5 C           5.9891    0.2701    0.3902 C.ar    1  UNL1        0.1051
      6 C           4.9561    0.6258    1.2290 C.ar    1  UNL1       -0.0336
      7 C           3.6734    0.1980    0.9651 C.ar    1  UNL1       -0.0387
      8 C           3.3364   -0.5870   -0.1146 C.ar    1  UNL1        0.0325
      9 N           2.0073   -0.9766   -0.3632 N.pl3   1  UNL1       -0.2992
     10 C           0.7575   -0.3159   -0.3665 C.ar    1  UNL1        0.1315
     11 C          -0.3604   -1.1047   -0.5263 C.ar    1  UNL1        0.0184
     12 C          -1.6019   -0.5128   -0.5601 C.ar    1  UNL1        0.1261
     13 N          -2.8066   -1.2510   -0.7255 N.pl3   1  UNL1       -0.3260
     14 C          -4.1040   -0.6404   -0.7598 C.3     1  UNL1        0.0220
     15 C          -5.1424   -1.7071   -0.9917 C.3     1  UNL1       -0.0345
     16 C          -6.3466   -1.5639   -0.0991 C.3     1  UNL1       -0.0514
     17 C          -6.8488   -0.1484   -0.0173 C.3     1  UNL1       -0.0529
     18 C          -5.7468    0.7808    0.3914 C.3     1  UNL1       -0.0514
     19 C          -4.4052    0.0801    0.5374 C.3     1  UNL1       -0.0345
     20 N          -1.6343    0.8225   -0.4317 N.ar    1  UNL1       -0.1957
     21 C          -0.5432    1.5859   -0.2764 C.ar    1  UNL1        0.2562
     22 N          -0.3868    2.9217   -0.1406 N.ar    1  UNL1       -0.1974
     23 C           0.9208    3.2016   -0.0214 C.ar    1  UNL1        0.1406
     24 N           1.5359    2.0092   -0.0889 N.ar    1  UNL1       -0.1506
     25 N           0.6765    1.0202   -0.2420 N.ar    1  UNL1       -0.1822
     26 C           4.4063   -0.9133   -0.9185 C.ar    1  UNL1       -0.0387
     27 C           5.7029   -0.5235   -0.7157 C.ar    1  UNL1       -0.0336
     28 H           8.0849   -1.4561    1.3202 H       1  UNL1        0.1442
     29 H           8.4559   -0.2924    2.5019 H       1  UNL1        0.1442
     30 H           5.2484    1.2459    2.0745 H       1  UNL1        0.0638
     31 H           2.9702    0.5393    1.7093 H       1  UNL1        0.0637
     32 H           2.0651   -2.0124   -0.5856 H       1  UNL1        0.1536
     33 H          -0.3485   -2.1827   -0.6314 H       1  UNL1        0.0686
     34 H          -2.6955   -2.2992   -0.8252 H       1  UNL1        0.1477
     35 H          -4.1212    0.1072   -1.5743 H       1  UNL1        0.0498
     36 H          -4.6872   -2.7100   -0.8336 H       1  UNL1        0.0283
     37 H          -5.4501   -1.6304   -2.0731 H       1  UNL1        0.0283
     38 H          -6.0756   -1.8986    0.9150 H       1  UNL1        0.0266
     39 H          -7.1502   -2.1833   -0.5537 H       1  UNL1        0.0266
     40 H          -7.3808    0.1607   -0.9493 H       1  UNL1        0.0265
     41 H          -7.6412   -0.1280    0.7694 H       1  UNL1        0.0265
     42 H          -5.6598    1.6103   -0.3434 H       1  UNL1        0.0266
     43 H          -5.9595    1.2335    1.4002 H       1  UNL1        0.0266
     44 H          -3.6748    0.8768    0.7257 H       1  UNL1        0.0283
     45 H          -4.4332   -0.6154    1.3882 H       1  UNL1        0.0283
     46 H           1.5265    4.0997    0.1055 H       1  UNL1        0.1066
     47 H           4.2036   -1.5377   -1.7955 H       1  UNL1        0.0637
     48 H           6.4727   -0.8501   -1.4333 H       1  UNL1        0.0638
@<TRIPOS>BOND
     1     1     2    1
     2     2     3    2
     3     2     4    2
     4     2     5    1
     5     5     6   ar
     6     6     7   ar
     7     7     8   ar
     8     8     9    1
     9     9    10    1
    10    10    11   ar
    11    11    12   ar
    12    12    13    1
    13    13    14    1
    14    14    15    1
    15    15    16    1
    16    16    17    1
    17    17    18    1
    18    18    19    1
    19    12    20   ar
    20    20    21   ar
    21    21    22   ar
    22    22    23   ar
    23    23    24   ar
    24    24    25   ar
    25     8    26   ar
    26    26    27   ar
    27    27     5   ar
    28    25    10   ar
    29    19    14    1
    30    25    21   ar
    31     1    28    1
    32     1    29    1
    33     6    30    1
    34     7    31    1
    35     9    32    1
    36    11    33    1
    37    13    34    1
    38    14    35    1
    39    15    36    1
    40    15    37    1
    41    16    38    1
    42    16    39    1
    43    17    40    1
    44    17    41    1
    45    18    42    1
    46    18    43    1
    47    19    44    1
    48    19    45    1
    49    23    46    1
    50    26    47    1
    51    27    48    1
