
     RDKit          3D

 48 51  0  0  0  0  0  0  0  0999 V2000
    8.4522   -0.5020    1.4987 N   0  0  0  0  0  0  0  0  0  0  0  0
    7.6688    0.7257    0.5728 S   0  0  0  0  0  0  0  0  0  0  0  0
    7.8082    2.0585    1.2569 O   0  0  0  0  0  0  0  0  0  0  0  0
    8.2859    0.8739   -0.7940 O   0  0  0  0  0  0  0  0  0  0  0  0
    5.9891    0.2701    0.3902 C   0  0  0  0  0  0  0  0  0  0  0  0
    4.9561    0.6258    1.2290 C   0  0  0  0  0  0  0  0  0  0  0  0
    3.6734    0.1980    0.9651 C   0  0  0  0  0  0  0  0  0  0  0  0
    3.3364   -0.5870   -0.1146 C   0  0  0  0  0  0  0  0  0  0  0  0
    2.0073   -0.9766   -0.3632 N   0  0  0  0  0  0  0  0  0  0  0  0
    0.7575   -0.3159   -0.3665 C   0  0  0  0  0  0  0  0  0  0  0  0
   -0.3604   -1.1047   -0.5263 C   0  0  0  0  0  0  0  0  0  0  0  0
   -1.6019   -0.5128   -0.5601 C   0  0  0  0  0  0  0  0  0  0  0  0
   -2.8066   -1.2510   -0.7255 N   0  0  0  0  0  0  0  0  0  0  0  0
   -4.1040   -0.6404   -0.7598 C   0  0  0  0  0  0  0  0  0  0  0  0
   -5.1424   -1.7071   -0.9917 C   0  0  0  0  0  0  0  0  0  0  0  0
   -6.3466   -1.5639   -0.0991 C   0  0  0  0  0  0  0  0  0  0  0  0
   -6.8488   -0.1484   -0.0173 C   0  0  0  0  0  0  0  0  0  0  0  0
   -5.7468    0.7808    0.3914 C   0  0  0  0  0  0  0  0  0  0  0  0
   -4.4052    0.0801    0.5374 C   0  0  0  0  0  0  0  0  0  0  0  0
   -1.6343    0.8225   -0.4317 N   0  0  0  0  0  0  0  0  0  0  0  0
   -0.5432    1.5859   -0.2764 C   0  0  0  0  0  0  0  0  0  0  0  0
   -0.3868    2.9217   -0.1406 N   0  0  0  0  0  0  0  0  0  0  0  0
    0.9208    3.2016   -0.0214 C   0  0  0  0  0  0  0  0  0  0  0  0
    1.5359    2.0092   -0.0889 N   0  0  0  0  0  0  0  0  0  0  0  0
    0.6765    1.0202   -0.2420 N   0  0  0  0  0  0  0  0  0  0  0  0
    4.4063   -0.9133   -0.9185 C   0  0  0  0  0  0  0  0  0  0  0  0
    5.7029   -0.5235   -0.7157 C   0  0  0  0  0  0  0  0  0  0  0  0
    8.0849   -1.4561    1.3202 H   0  0  0  0  0  0  0  0  0  0  0  0
    8.4559   -0.2924    2.5019 H   0  0  0  0  0  0  0  0  0  0  0  0
    5.2484    1.2459    2.0745 H   0  0  0  0  0  0  0  0  0  0  0  0
    2.9702    0.5393    1.7093 H   0  0  0  0  0  0  0  0  0  0  0  0
    2.0651   -2.0124   -0.5856 H   0  0  0  0  0  0  0  0  0  0  0  0
   -0.3485   -2.1827   -0.6314 H   0  0  0  0  0  0  0  0  0  0  0  0
   -2.6955   -2.2992   -0.8252 H   0  0  0  0  0  0  0  0  0  0  0  0
   -4.1212    0.1072   -1.5743 H   0  0  0  0  0  0  0  0  0  0  0  0
   -4.6872   -2.7100   -0.8336 H   0  0  0  0  0  0  0  0  0  0  0  0
   -5.4501   -1.6304   -2.0731 H   0  0  0  0  0  0  0  0  0  0  0  0
   -6.0756   -1.8986    0.9150 H   0  0  0  0  0  0  0  0  0  0  0  0
   -7.1502   -2.1833   -0.5537 H   0  0  0  0  0  0  0  0  0  0  0  0
   -7.3808    0.1607   -0.9493 H   0  0  0  0  0  0  0  0  0  0  0  0
   -7.6412   -0.1280    0.7694 H   0  0  0  0  0  0  0  0  0  0  0  0
   -5.6598    1.6103   -0.3434 H   0  0  0  0  0  0  0  0  0  0  0  0
   -5.9595    1.2335    1.4002 H   0  0  0  0  0  0  0  0  0  0  0  0
   -3.6748    0.8768    0.7257 H   0  0  0  0  0  0  0  0  0  0  0  0
   -4.4332   -0.6154    1.3882 H   0  0  0  0  0  0  0  0  0  0  0  0
    1.5265    4.0997    0.1055 H   0  0  0  0  0  0  0  0  0  0  0  0
    4.2036   -1.5377   -1.7955 H   0  0  0  0  0  0  0  0  0  0  0  0
    6.4727   -0.8501   -1.4333 H   0  0  0  0  0  0  0  0  0  0  0  0
  1  2  1  0
  2  3  2  0
  2  4  2  0
  2  5  1  0
  5  6  2  0
  6  7  1  0
  7  8  2  0
  8  9  1  0
  9 10  1  0
 10 11  2  0
 11 12  1  0
 12 13  1  0
 13 14  1  0
 14 15  1  0
 15 16  1  0
 16 17  1  0
 17 18  1  0
 18 19  1  0
 12 20  2  0
 20 21  1  0
 21 22  2  0
 22 23  1  0
 23 24  2  0
 24 25  1  0
  8 26  1  0
 26 27  2  0
 27  5  1  0
 25 10  1  0
 19 14  1  0
 25 21  1  0
  1 28  1  0
  1 29  1  0
  6 30  1  0
  7 31  1  0
  9 32  1  0
 11 33  1  0
 13 34  1  0
 14 35  1  0
 15 36  1  0
 15 37  1  0
 16 38  1  0
 16 39  1  0
 17 40  1  0
 17 41  1  0
 18 42  1  0
 18 43  1  0
 19 44  1  0
 19 45  1  0
 23 46  1  0
 26 47  1  0
 27 48  1  0
M  END
$$$$
