@<TRIPOS>MOLECULE
*****
 35 36 0 0 0
SMALL
GASTEIGER

@<TRIPOS>ATOM
      1 C           4.1993    2.7320    0.5304 C.3     1  UNL1        0.0790
      2 O           3.7911    1.6241   -0.2150 O.3     1  UNL1       -0.4915
      3 C           2.6718    0.9070    0.1466 C.ar    1  UNL1        0.1615
      4 C           1.9346    1.2704    1.2519 C.ar    1  UNL1       -0.0160
      5 C           0.8253    0.5358    1.5836 C.ar    1  UNL1       -0.0546
      6 C           0.3985   -0.5703    0.8556 C.ar    1  UNL1       -0.0392
      7 C          -0.7960   -1.3473    1.2480 C.3     1  UNL1        0.0024
      8 C          -2.0790   -0.7390    0.8156 C.ar    1  UNL1        0.0146
      9 C          -2.8701   -0.0359    1.7325 C.ar    1  UNL1        0.0379
     10 N          -4.0093    0.5005    1.2981 N.ar    1  UNL1       -0.2227
     11 C          -4.4500    0.4119    0.0385 C.ar    1  UNL1        0.2142
     12 N          -5.6904    1.0128   -0.3728 N.pl3   1  UNL1       -0.3274
     13 N          -3.6937   -0.2573   -0.8248 N.ar    1  UNL1       -0.1999
     14 C          -2.5123   -0.8419   -0.4786 C.ar    1  UNL1        0.1247
     15 N          -1.7605   -1.5532   -1.4712 N.pl3   1  UNL1       -0.3428
     16 C           1.1553   -0.9039   -0.2372 C.ar    1  UNL1       -0.0128
     17 C           2.2740   -0.1876   -0.5974 C.ar    1  UNL1        0.1617
     18 O           3.0262   -0.5614   -1.7279 O.3     1  UNL1       -0.4914
     19 C           2.6700   -1.6582   -2.5162 C.3     1  UNL1        0.0790
     20 H           4.7379    2.4765    1.4690 H       1  UNL1        0.0660
     21 H           4.9665    3.2678   -0.1002 H       1  UNL1        0.0660
     22 H           3.3294    3.4078    0.7235 H       1  UNL1        0.0660
     23 H           2.2273    2.1390    1.8669 H       1  UNL1        0.0655
     24 H           0.2614    0.8431    2.4605 H       1  UNL1        0.0622
     25 H          -0.7233   -2.3922    0.8717 H       1  UNL1        0.0363
     26 H          -0.8012   -1.3838    2.3641 H       1  UNL1        0.0363
     27 H          -2.5029    0.0288    2.7470 H       1  UNL1        0.0834
     28 H          -6.1539    0.7014   -1.2360 H       1  UNL1        0.1452
     29 H          -6.1475    1.7667    0.1796 H       1  UNL1        0.1452
     30 H          -1.6570   -2.5825   -1.5056 H       1  UNL1        0.1437
     31 H          -1.2861   -0.9949   -2.2073 H       1  UNL1        0.1437
     32 H           0.9130   -1.7628   -0.8750 H       1  UNL1        0.0658
     33 H           2.4459   -2.5760   -1.9398 H       1  UNL1        0.0660
     34 H           1.7866   -1.4351   -3.1519 H       1  UNL1        0.0660
     35 H           3.5189   -1.8423   -3.2394 H       1  UNL1        0.0660
@<TRIPOS>BOND
     1     1     2    1
     2     2     3    1
     3     3     4   ar
     4     4     5   ar
     5     5     6   ar
     6     6     7    1
     7     7     8    1
     8     8     9   ar
     9     9    10   ar
    10    10    11   ar
    11    11    12    1
    12    11    13   ar
    13    13    14   ar
    14    14    15    1
    15     6    16   ar
    16    16    17   ar
    17    17    18    1
    18    18    19    1
    19    17     3   ar
    20    14     8   ar
    21     1    20    1
    22     1    21    1
    23     1    22    1
    24     4    23    1
    25     5    24    1
    26     7    25    1
    27     7    26    1
    28     9    27    1
    29    12    28    1
    30    12    29    1
    31    15    30    1
    32    15    31    1
    33    16    32    1
    34    19    33    1
    35    19    34    1
    36    19    35    1
