
     RDKit          3D

 35 36  0  0  0  0  0  0  0  0999 V2000
    4.1993    2.7320    0.5304 C   0  0  0  0  0  0  0  0  0  0  0  0
    3.7911    1.6241   -0.2150 O   0  0  0  0  0  0  0  0  0  0  0  0
    2.6718    0.9070    0.1466 C   0  0  0  0  0  0  0  0  0  0  0  0
    1.9346    1.2704    1.2519 C   0  0  0  0  0  0  0  0  0  0  0  0
    0.8253    0.5358    1.5836 C   0  0  0  0  0  0  0  0  0  0  0  0
    0.3985   -0.5703    0.8556 C   0  0  0  0  0  0  0  0  0  0  0  0
   -0.7960   -1.3473    1.2480 C   0  0  0  0  0  0  0  0  0  0  0  0
   -2.0790   -0.7390    0.8156 C   0  0  0  0  0  0  0  0  0  0  0  0
   -2.8701   -0.0359    1.7325 C   0  0  0  0  0  0  0  0  0  0  0  0
   -4.0093    0.5005    1.2981 N   0  0  0  0  0  0  0  0  0  0  0  0
   -4.4500    0.4119    0.0385 C   0  0  0  0  0  0  0  0  0  0  0  0
   -5.6904    1.0128   -0.3728 N   0  0  0  0  0  0  0  0  0  0  0  0
   -3.6937   -0.2573   -0.8248 N   0  0  0  0  0  0  0  0  0  0  0  0
   -2.5123   -0.8419   -0.4786 C   0  0  0  0  0  0  0  0  0  0  0  0
   -1.7605   -1.5532   -1.4712 N   0  0  0  0  0  0  0  0  0  0  0  0
    1.1553   -0.9039   -0.2372 C   0  0  0  0  0  0  0  0  0  0  0  0
    2.2740   -0.1876   -0.5974 C   0  0  0  0  0  0  0  0  0  0  0  0
    3.0262   -0.5614   -1.7279 O   0  0  0  0  0  0  0  0  0  0  0  0
    2.6700   -1.6582   -2.5162 C   0  0  0  0  0  0  0  0  0  0  0  0
    4.7379    2.4765    1.4690 H   0  0  0  0  0  0  0  0  0  0  0  0
    4.9665    3.2678   -0.1002 H   0  0  0  0  0  0  0  0  0  0  0  0
    3.3294    3.4078    0.7235 H   0  0  0  0  0  0  0  0  0  0  0  0
    2.2273    2.1390    1.8669 H   0  0  0  0  0  0  0  0  0  0  0  0
    0.2614    0.8431    2.4605 H   0  0  0  0  0  0  0  0  0  0  0  0
   -0.7233   -2.3922    0.8717 H   0  0  0  0  0  0  0  0  0  0  0  0
   -0.8012   -1.3838    2.3641 H   0  0  0  0  0  0  0  0  0  0  0  0
   -2.5029    0.0288    2.7470 H   0  0  0  0  0  0  0  0  0  0  0  0
   -6.1539    0.7014   -1.2360 H   0  0  0  0  0  0  0  0  0  0  0  0
   -6.1475    1.7667    0.1796 H   0  0  0  0  0  0  0  0  0  0  0  0
   -1.6570   -2.5825   -1.5056 H   0  0  0  0  0  0  0  0  0  0  0  0
   -1.2861   -0.9949   -2.2073 H   0  0  0  0  0  0  0  0  0  0  0  0
    0.9130   -1.7628   -0.8750 H   0  0  0  0  0  0  0  0  0  0  0  0
    2.4459   -2.5760   -1.9398 H   0  0  0  0  0  0  0  0  0  0  0  0
    1.7866   -1.4351   -3.1519 H   0  0  0  0  0  0  0  0  0  0  0  0
    3.5189   -1.8423   -3.2394 H   0  0  0  0  0  0  0  0  0  0  0  0
  1  2  1  0
  2  3  1  0
  3  4  2  0
  4  5  1  0
  5  6  2  0
  6  7  1  0
  7  8  1  0
  8  9  2  0
  9 10  1  0
 10 11  2  0
 11 12  1  0
 11 13  1  0
 13 14  2  0
 14 15  1  0
  6 16  1  0
 16 17  2  0
 17 18  1  0
 18 19  1  0
 17  3  1  0
 14  8  1  0
  1 20  1  0
  1 21  1  0
  1 22  1  0
  4 23  1  0
  5 24  1  0
  7 25  1  0
  7 26  1  0
  9 27  1  0
 12 28  1  0
 12 29  1  0
 15 30  1  0
 15 31  1  0
 16 32  1  0
 19 33  1  0
 19 34  1  0
 19 35  1  0
M  END
$$$$
