@<TRIPOS>MOLECULE
*****
 137 137 0 0 0
SMALL
GASTEIGER

@<TRIPOS>ATOM
      1 C          -2.6411    0.9884   -0.3758 C.2     1  UNL1       -0.0879
      2 C          -1.2846    1.4483   -0.8357 C.3     1  UNL1       -0.0348
      3 C          -1.1086    2.9113   -0.5926 C.3     1  UNL1       -0.0496
      4 C           0.2624    3.3518   -1.0666 C.3     1  UNL1       -0.0528
      5 C           0.3787    4.8613   -0.7968 C.3     1  UNL1       -0.0530
      6 C           1.7015    5.4288   -1.2114 C.3     1  UNL1       -0.0531
      7 C           1.7273    6.9113   -0.9336 C.3     1  UNL1       -0.0533
      8 C           1.5283    7.2660    0.5032 C.3     1  UNL1       -0.0559
      9 C           2.5764    6.6956    1.4154 C.3     1  UNL1       -0.0653
     10 C          -3.5145    1.8291    0.2004 C.2     1  UNL1       -0.0879
     11 C          -4.8520    1.7462    0.7387 C.3     1  UNL1       -0.0348
     12 C          -5.1515    1.9972    2.1593 C.3     1  UNL1       -0.0496
     13 C          -4.7579    3.2439    2.8196 C.3     1  UNL1       -0.0528
     14 C          -3.3146    3.5106    3.0848 C.3     1  UNL1       -0.0530
     15 C          -2.7750    2.4630    4.0490 C.3     1  UNL1       -0.0526
     16 C          -1.3399    2.6008    4.4099 C.3     1  UNL1       -0.0430
     17 C          -0.3785    2.4458    3.2696 C.3     1  UNL1        0.0450
     18 C           1.0535    2.5827    3.6821 C.2     1  UNL1        0.3075
     19 O           1.1286    3.0912    4.8417 O.2     1  UNL1       -0.2508
     20 O           1.9212    2.1127    2.6847 O.3     1  UNL1       -0.4555
     21 C           3.3409    2.1640    2.8804 C.3     1  UNL1        0.1604
     22 C           3.9766    2.7271    1.6650 C.3     1  UNL1        0.1315
     23 O           3.7606    1.8756    0.5348 O.3     1  UNL1       -0.4608
     24 C           4.2870    2.3132   -0.6519 C.2     1  UNL1        0.3072
     25 O           4.8235    3.4297   -0.3345 O.2     1  UNL1       -0.2509
     26 C           4.3590    1.8338   -2.0331 C.3     1  UNL1        0.0449
     27 C           3.1239    2.1302   -2.8625 C.3     1  UNL1       -0.0430
     28 C           3.3363    1.6236   -4.2689 C.3     1  UNL1       -0.0526
     29 C           2.1877    1.8370   -5.1915 C.3     1  UNL1       -0.0530
     30 C           0.9103    1.1538   -4.8019 C.3     1  UNL1       -0.0531
     31 C           1.0630   -0.3406   -4.7207 C.3     1  UNL1       -0.0531
     32 C          -0.2112   -1.0283   -4.3589 C.3     1  UNL1       -0.0531
     33 C          -1.3069   -0.7502   -5.3927 C.3     1  UNL1       -0.0531
     34 C          -2.5274   -1.4973   -5.0082 C.3     1  UNL1       -0.0531
     35 C          -2.5289   -2.9711   -4.9918 C.3     1  UNL1       -0.0531
     36 C          -2.4014   -3.6861   -6.2632 C.3     1  UNL1       -0.0531
     37 C          -1.2266   -3.6363   -7.1347 C.3     1  UNL1       -0.0531
     38 C           0.0039   -4.2063   -6.4991 C.3     1  UNL1       -0.0533
     39 C           1.1925   -4.1016   -7.4389 C.3     1  UNL1       -0.0559
     40 C           2.4636   -4.6527   -6.8522 C.3     1  UNL1       -0.0653
     41 C           3.8255    0.6924    3.0702 C.3     1  UNL1        0.0951
     42 O           3.4775    0.0231    1.9209 O.3     1  UNL1       -0.3236
     43 P           3.6350   -1.6538    2.0784 P.3     1  UNL1        0.2131
     44 O           5.1566   -2.0818    2.6972 O.co2   1  UNL1       -0.4373
     45 O           3.5212   -2.2532    0.6982 O.2     1  UNL1       -0.5172
     46 O           2.3984   -2.2903    3.0391 O.3     1  UNL1       -0.3188
     47 C           1.5765   -3.1734    2.3850 C.3     1  UNL1        0.1224
     48 C           1.5003   -4.5031    3.0497 C.3     1  UNL1        0.1125
     49 O           1.0116   -5.4256    2.1500 O.3     1  UNL1       -0.3865
     50 C           0.7713   -4.4988    4.3585 C.3     1  UNL1        0.1118
     51 O           1.6366   -4.4165    5.4720 O.3     1  UNL1       -0.3865
     52 C          -0.3393   -3.5305    4.4985 C.3     1  UNL1        0.1118
     53 O          -1.6058   -4.0680    4.2217 O.3     1  UNL1       -0.3865
     54 C          -0.2092   -2.2501    3.7331 C.3     1  UNL1        0.1118
     55 O           0.7304   -1.4461    4.3581 O.3     1  UNL1       -0.3865
     56 C           0.1765   -2.5983    2.3120 C.3     1  UNL1        0.1125
     57 O           0.0567   -1.5299    1.4498 O.3     1  UNL1       -0.3865
     58 H          -3.0899    0.0102   -0.4289 H       1  UNL1        0.0569
     59 H          -1.0987    1.1538   -1.8684 H       1  UNL1        0.0307
     60 H          -0.5335    0.9075   -0.2149 H       1  UNL1        0.0307
     61 H          -1.2675    3.1386    0.4621 H       1  UNL1        0.0268
     62 H          -1.8707    3.4815   -1.1840 H       1  UNL1        0.0268
     63 H           1.0756    2.8625   -0.5091 H       1  UNL1        0.0265
     64 H           0.4069    3.1504   -2.1392 H       1  UNL1        0.0265
     65 H           0.2716    5.0414    0.3000 H       1  UNL1        0.0265
     66 H          -0.4794    5.3894   -1.2592 H       1  UNL1        0.0265
     67 H           2.5479    4.9877   -0.6542 H       1  UNL1        0.0265
     68 H           1.8710    5.2836   -2.2975 H       1  UNL1        0.0265
     69 H           2.7435    7.2775   -1.2225 H       1  UNL1        0.0265
     70 H           0.9577    7.4633   -1.5285 H       1  UNL1        0.0265
     71 H           1.6227    8.3825    0.5732 H       1  UNL1        0.0263
     72 H           0.4913    6.9832    0.8267 H       1  UNL1        0.0263
     73 H           2.6939    7.3541    2.3127 H       1  UNL1        0.0230
     74 H           2.2832    5.7013    1.8045 H       1  UNL1        0.0230
     75 H           3.5511    6.6693    0.9154 H       1  UNL1        0.0230
     76 H          -3.2085    2.8605    0.2867 H       1  UNL1        0.0569
     77 H          -5.5151    2.4079    0.0671 H       1  UNL1        0.0307
     78 H          -5.2883    0.7047    0.4808 H       1  UNL1        0.0307
     79 H          -6.2756    1.8419    2.3284 H       1  UNL1        0.0268
     80 H          -4.7219    1.1198    2.7381 H       1  UNL1        0.0268
     81 H          -5.2702    3.3239    3.8299 H       1  UNL1        0.0265
     82 H          -5.1402    4.1553    2.2692 H       1  UNL1        0.0265
     83 H          -3.3244    4.4710    3.7276 H       1  UNL1        0.0265
     84 H          -2.6670    3.7546    2.2603 H       1  UNL1        0.0265
     85 H          -2.9902    1.4681    3.5963 H       1  UNL1        0.0265
     86 H          -3.3826    2.5277    4.9781 H       1  UNL1        0.0265
     87 H          -1.1347    1.8818    5.2423 H       1  UNL1        0.0270
     88 H          -1.2270    3.6093    4.9058 H       1  UNL1        0.0270
     89 H          -0.5575    1.5903    2.6284 H       1  UNL1        0.0377
     90 H          -0.5497    3.3747    2.6314 H       1  UNL1        0.0377
     91 H           3.6505    2.6783    3.7846 H       1  UNL1        0.0792
     92 H           5.0701    2.8090    1.8166 H       1  UNL1        0.0736
     93 H           3.5308    3.7126    1.4413 H       1  UNL1        0.0736
     94 H           4.6272    0.7552   -2.1026 H       1  UNL1        0.0377
     95 H           5.1914    2.3898   -2.5550 H       1  UNL1        0.0377
     96 H           2.2203    1.6336   -2.4317 H       1  UNL1        0.0270
     97 H           2.9291    3.2138   -2.8495 H       1  UNL1        0.0270
     98 H           4.1987    2.2297   -4.6788 H       1  UNL1        0.0265
     99 H           3.7049    0.6007   -4.2272 H       1  UNL1        0.0265
    100 H           1.9395    2.9132   -5.3397 H       1  UNL1        0.0265
    101 H           2.4262    1.4644   -6.2255 H       1  UNL1        0.0265
    102 H           0.1935    1.3439   -5.6419 H       1  UNL1        0.0265
    103 H           0.4230    1.5286   -3.9071 H       1  UNL1        0.0265
    104 H           1.8809   -0.5335   -4.0016 H       1  UNL1        0.0265
    105 H           1.4239   -0.7510   -5.7054 H       1  UNL1        0.0265
    106 H          -0.0942   -2.0956   -4.2558 H       1  UNL1        0.0265
    107 H          -0.6493   -0.5966   -3.4075 H       1  UNL1        0.0265
    108 H          -0.9691   -0.8042   -6.4181 H       1  UNL1        0.0265
    109 H          -1.5470    0.3637   -5.2371 H       1  UNL1        0.0265
    110 H          -2.7669   -1.1595   -3.9371 H       1  UNL1        0.0265
    111 H          -3.4103   -1.1211   -5.6428 H       1  UNL1        0.0265
    112 H          -1.7831   -3.3264   -4.2133 H       1  UNL1        0.0265
    113 H          -3.5106   -3.3183   -4.5117 H       1  UNL1        0.0265
    114 H          -3.3361   -3.4090   -6.8908 H       1  UNL1        0.0265
    115 H          -2.6098   -4.8132   -6.0907 H       1  UNL1        0.0265
    116 H          -1.4983   -4.2875   -8.0453 H       1  UNL1        0.0265
    117 H          -0.9683   -2.6848   -7.6150 H       1  UNL1        0.0265
    118 H          -0.1881   -5.3296   -6.4302 H       1  UNL1        0.0265
    119 H           0.2186   -3.8962   -5.4990 H       1  UNL1        0.0265
    120 H           1.3274   -3.0052   -7.6476 H       1  UNL1        0.0263
    121 H           0.9751   -4.5994   -8.4004 H       1  UNL1        0.0263
    122 H           3.1548   -4.9592   -7.6471 H       1  UNL1        0.0230
    123 H           2.2111   -5.5307   -6.2196 H       1  UNL1        0.0230
    124 H           2.9649   -3.8526   -6.2400 H       1  UNL1        0.0230
    125 H           3.3687    0.2737    3.9826 H       1  UNL1        0.0602
    126 H           4.9346    0.7397    3.1180 H       1  UNL1        0.0602
    127 H           1.9128   -3.3017    1.3408 H       1  UNL1        0.0654
    128 H           2.5576   -4.8083    3.2583 H       1  UNL1        0.0647
    129 H           0.2105   -5.8951    2.4488 H       1  UNL1        0.2100
    130 H           0.3045   -5.5226    4.4419 H       1  UNL1        0.0647
    131 H           1.0393   -4.2053    6.2335 H       1  UNL1        0.2100
    132 H          -0.4045   -3.2268    5.5856 H       1  UNL1        0.0647
    133 H          -1.5856   -4.6753    3.4612 H       1  UNL1        0.2100
    134 H          -1.2212   -1.7722    3.7510 H       1  UNL1        0.0647
    135 H           0.7234   -1.5372    5.3455 H       1  UNL1        0.2100
    136 H          -0.5551   -3.3821    1.9811 H       1  UNL1        0.0647
    137 H           0.0043   -1.8970    0.5403 H       1  UNL1        0.2100
@<TRIPOS>UNITY_ATOM_ATTR
44 1
charge -1
@<TRIPOS>BOND
     1     1     2    1
     2     2     3    1
     3     3     4    1
     4     4     5    1
     5     5     6    1
     6     6     7    1
     7     7     8    1
     8     8     9    1
     9     1    10    2
    10    10    11    1
    11    11    12    1
    12    12    13    1
    13    13    14    1
    14    14    15    1
    15    15    16    1
    16    16    17    1
    17    17    18    1
    18    18    19    2
    19    18    20    1
    20    20    21    1
    21    21    22    1
    22    22    23    1
    23    23    24    1
    24    24    25    2
    25    24    26    1
    26    26    27    1
    27    27    28    1
    28    28    29    1
    29    29    30    1
    30    30    31    1
    31    31    32    1
    32    32    33    1
    33    33    34    1
    34    34    35    1
    35    35    36    1
    36    36    37    1
    37    37    38    1
    38    38    39    1
    39    39    40    1
    40    21    41    1
    41    41    42    1
    42    42    43    1
    43    43    44    1
    44    43    45    2
    45    43    46    1
    46    46    47    1
    47    47    48    1
    48    48    49    1
    49    48    50    1
    50    50    51    1
    51    50    52    1
    52    52    53    1
    53    52    54    1
    54    54    55    1
    55    54    56    1
    56    56    57    1
    57    56    47    1
    58     1    58    1
    59     2    59    1
    60     2    60    1
    61     3    61    1
    62     3    62    1
    63     4    63    1
    64     4    64    1
    65     5    65    1
    66     5    66    1
    67     6    67    1
    68     6    68    1
    69     7    69    1
    70     7    70    1
    71     8    71    1
    72     8    72    1
    73     9    73    1
    74     9    74    1
    75     9    75    1
    76    10    76    1
    77    11    77    1
    78    11    78    1
    79    12    79    1
    80    12    80    1
    81    13    81    1
    82    13    82    1
    83    14    83    1
    84    14    84    1
    85    15    85    1
    86    15    86    1
    87    16    87    1
    88    16    88    1
    89    17    89    1
    90    17    90    1
    91    21    91    1
    92    22    92    1
    93    22    93    1
    94    26    94    1
    95    26    95    1
    96    27    96    1
    97    27    97    1
    98    28    98    1
    99    28    99    1
   100    29   100    1
   101    29   101    1
   102    30   102    1
   103    30   103    1
   104    31   104    1
   105    31   105    1
   106    32   106    1
   107    32   107    1
   108    33   108    1
   109    33   109    1
   110    34   110    1
   111    34   111    1
   112    35   112    1
   113    35   113    1
   114    36   114    1
   115    36   115    1
   116    37   116    1
   117    37   117    1
   118    38   118    1
   119    38   119    1
   120    39   120    1
   121    39   121    1
   122    40   122    1
   123    40   123    1
   124    40   124    1
   125    41   125    1
   126    41   126    1
   127    47   127    1
   128    48   128    1
   129    49   129    1
   130    50   130    1
   131    51   131    1
   132    52   132    1
   133    53   133    1
   134    54   134    1
   135    55   135    1
   136    56   136    1
   137    57   137    1
