@<TRIPOS>MOLECULE
*****
 60 62 0 0 0
SMALL
GASTEIGER

@<TRIPOS>ATOM
      1 CB         -2.3186   -0.8216   -1.8674 C.3     1  ILE1       -0.0171
      2 CG2        -1.2439   -0.8799   -2.9933 C.3     1  ILE1       -0.0603
      3 CG1        -2.2527   -2.0830   -1.0652 C.3     1  ILE1       -0.0512
      4 CD1        -3.2506   -2.1974    0.0511 C.3     1  ILE1       -0.0650
      5 CA         -2.0955    0.4437   -1.0997 C.3     1  ILE1        0.1022
      6 N          -0.7643    0.4318   -0.5227 N.am    1  ILE1       -0.3015
      7 C           0.2079    1.3577   -0.9855 C.2     0  UNK0        0.2456
      8 O           0.2065    2.2741   -1.8530 O.2     0  UNK0       -0.2728
      9 C           1.5945    1.4084   -0.4446 C.3     0  UNK0        0.1698
     10 O           1.8595    0.9534    0.8367 O.3     0  UNK0       -0.3487
     11 C           2.2453    0.0592   -0.1325 C.3     0  UNK0        0.1698
     12 C           3.6892   -0.0918   -0.4771 C.2     0  UNK0        0.2453
     13 O           4.0496   -1.2370   -0.8956 O.2     0  UNK0       -0.2729
     14 N           4.6367    0.9372   -0.3648 N.am    0  UNK0       -0.3090
     15 C           6.0332    0.8865   -0.6701 C.3     0  UNK0        0.0369
     16 C           6.7998    0.1825    0.3647 C.ar    0  UNK0       -0.0303
     17 C           7.0760   -1.1799    0.3878 C.ar    0  UNK0       -0.0571
     18 C           7.8029   -1.7866    1.3889 C.ar    0  UNK0       -0.0615
     19 C           8.2837   -0.9952    2.4277 C.ar    0  UNK0       -0.0617
     20 C           8.0473    0.3632    2.4687 C.ar    0  UNK0       -0.0615
     21 C           7.3057    0.9136    1.4256 C.ar    0  UNK0       -0.0571
     22 C          -3.0724    0.7599   -0.0668 C.2     1  ILE1        0.2368
     23 O          -1.9870    0.8251    0.5565 O.2     1  ILE1       -0.2735
     24 N          -4.4626    0.9015    0.0879 N.am    2  PRO2       -0.2865
     25 CD         -5.5927    0.7743   -0.8155 C.3     2  PRO2        0.0157
     26 CG         -6.6435    0.0015   -0.0274 C.3     2  PRO2       -0.0349
     27 CB         -6.2276    0.1417    1.4218 C.3     2  PRO2       -0.0225
     28 CA         -5.1580    1.2372    1.2964 C.3     2  PRO2        0.1228
     29 C          -4.3680    1.1595    2.5303 C.2     2  PRO2        0.3255
     30 O          -5.1509    1.5147    3.6349 O.3     2  PRO2       -0.4793
     31 OXT        -3.1945    0.8663    2.8751 O.2     2  PRO2       -0.2489
     32 HB         -3.2754   -0.7768   -2.3838 H       1  ILE1        0.0321
     33 HG21       -0.3213   -1.3343   -2.5960 H       1  ILE1        0.0233
     34 HG22       -1.6886   -1.4187   -3.8454 H       1  ILE1        0.0233
     35 HG23       -1.0576    0.1656   -3.3005 H       1  ILE1        0.0233
     36 HG11       -2.3150   -2.9720   -1.7563 H       1  ILE1        0.0266
     37 HG12       -1.2497   -2.1224   -0.5885 H       1  ILE1        0.0266
     38 HD11       -3.3701   -3.2750    0.3413 H       1  ILE1        0.0230
     39 HD12       -4.2267   -1.8087   -0.3499 H       1  ILE1        0.0230
     40 HD13       -3.0159   -1.6218    0.9574 H       1  ILE1        0.0230
     41 HA         -2.0669    1.2632   -1.8842 H       1  ILE1        0.0597
     42 H          -0.4046   -0.1978    0.2237 H       1  ILE1        0.1495
     43 H           2.2840    2.1482   -0.8506 H       0  UNK0        0.0725
     44 H           1.6744   -0.8643   -0.2897 H       0  UNK0        0.0725
     45 H           4.2181    1.8280   -0.0105 H       0  UNK0        0.1491
     46 H           6.2496    0.3938   -1.6413 H       0  UNK0        0.0512
     47 H           6.4381    1.9082   -0.7562 H       0  UNK0        0.0512
     48 H           6.7007   -1.7679   -0.4146 H       0  UNK0        0.0621
     49 H           7.9783   -2.8621    1.3375 H       0  UNK0        0.0618
     50 H           8.8626   -1.4656    3.2285 H       0  UNK0        0.0618
     51 H           8.4320    0.9423    3.2837 H       0  UNK0        0.0618
     52 H           7.1287    1.9620    1.4662 H       0  UNK0        0.0621
     53 HD1        -5.3696    0.1657   -1.6967 H       2  PRO2        0.0465
     54 HD2        -6.0490    1.7587   -1.0605 H       2  PRO2        0.0465
     55 HG1        -6.7536   -1.0383   -0.3492 H       2  PRO2        0.0281
     56 HG2        -7.6375    0.4873   -0.0988 H       2  PRO2        0.0281
     57 HB1        -7.0295    0.4451    2.0952 H       2  PRO2        0.0289
     58 HB2        -5.7182   -0.8001    1.6835 H       2  PRO2        0.0289
     59 HA         -5.6475    2.2293    1.1712 H       2  PRO2        0.0616
     60 H          -4.8252    1.5078    4.5932 H       2  PRO2        0.2951
@<TRIPOS>BOND
     1     1     2    1
     2     1     3    1
     3     3     4    1
     4     1     5    1
     5     5     6    1
     6     6     7   am
     7     7     8    2
     8     7     9    1
     9     9    10    1
    10    10    11    1
    11    11    12    1
    12    12    13    2
    13    12    14   am
    14    14    15    1
    15    15    16    1
    16    16    17   ar
    17    17    18   ar
    18    18    19   ar
    19    19    20   ar
    20    20    21   ar
    21     5    22    1
    22    22    23    2
    23    22    24   am
    24    24    25    1
    25    25    26    1
    26    26    27    1
    27    27    28    1
    28    28    29    1
    29    29    30    1
    30    29    31    2
    31    11     9    1
    32    21    16   ar
    33    28    24    1
    34     1    32    1
    35     2    33    1
    36     2    34    1
    37     2    35    1
    38     3    36    1
    39     3    37    1
    40     4    38    1
    41     4    39    1
    42     4    40    1
    43     5    41    1
    44     6    42    1
    45     9    43    1
    46    11    44    1
    47    14    45    1
    48    15    46    1
    49    15    47    1
    50    17    48    1
    51    18    49    1
    52    19    50    1
    53    20    51    1
    54    21    52    1
    55    25    53    1
    56    25    54    1
    57    26    55    1
    58    26    56    1
    59    27    57    1
    60    27    58    1
    61    28    59    1
    62    30    60    1
