
     RDKit          3D

 49 50  0  0  0  0  0  0  0  0999 V2000
    7.4532   -0.3079    1.9916 C   0  0  0  0  0  0  0  0  0  0  0  0
    6.6259   -1.1157    1.2107 O   0  0  0  0  0  0  0  0  0  0  0  0
    5.5659   -0.6092    0.4999 C   0  0  0  0  0  0  0  0  0  0  0  0
    5.1124    0.6740    0.3959 C   0  0  0  0  0  0  0  0  0  0  0  0
    4.0232    1.0149   -0.3678 C   0  0  0  0  0  0  0  0  0  0  0  0
    3.3291    0.0393   -1.0783 C   0  0  0  0  0  0  0  0  0  0  0  0
    2.1801    0.5820   -1.8484 C   0  0  0  0  0  0  0  0  0  0  0  0
    0.9019    0.5665   -1.0364 C   0  0  0  0  0  0  0  0  0  0  0  0
    1.0415    1.3893    0.2017 C   0  0  0  0  0  0  0  0  0  0  0  0
   -0.1653    0.8852   -1.8913 N   0  0  0  0  0  0  0  0  0  0  0  0
   -1.4745    0.9542   -1.4026 C   0  0  0  0  0  0  0  0  0  0  0  0
   -1.9418   -0.4278   -1.0103 C   0  0  0  0  0  0  0  0  0  0  0  0
   -1.8909   -1.2238   -2.1498 O   0  0  0  0  0  0  0  0  0  0  0  0
   -3.3553   -0.4194   -0.5438 C   0  0  0  0  0  0  0  0  0  0  0  0
   -3.5616   -0.5842    0.8147 C   0  0  0  0  0  0  0  0  0  0  0  0
   -4.8704   -0.5824    1.2945 C   0  0  0  0  0  0  0  0  0  0  0  0
   -5.0520   -0.7522    2.6914 N   0  0  0  0  0  0  0  0  0  0  0  0
   -5.1250    0.1884    3.7508 C   0  0  0  0  0  0  0  0  0  0  0  0
   -4.9981    1.3633    3.2967 O   0  0  0  0  0  0  0  0  0  0  0  0
   -5.9077   -0.4171    0.4009 C   0  0  0  0  0  0  0  0  0  0  0  0
   -7.2046   -0.4201    0.9119 O   0  0  0  0  0  0  0  0  0  0  0  0
   -5.6657   -0.2544   -0.9548 C   0  0  0  0  0  0  0  0  0  0  0  0
   -4.3798   -0.2511   -1.4657 C   0  0  0  0  0  0  0  0  0  0  0  0
    3.7720   -1.2513   -0.9839 C   0  0  0  0  0  0  0  0  0  0  0  0
    4.8706   -1.5668   -0.2083 C   0  0  0  0  0  0  0  0  0  0  0  0
    8.2972    0.0374    1.3698 H   0  0  0  0  0  0  0  0  0  0  0  0
    6.8828    0.5649    2.3769 H   0  0  0  0  0  0  0  0  0  0  0  0
    7.8033   -0.8865    2.8788 H   0  0  0  0  0  0  0  0  0  0  0  0
    5.6859    1.4057    0.9690 H   0  0  0  0  0  0  0  0  0  0  0  0
    3.7743    2.0776   -0.3578 H   0  0  0  0  0  0  0  0  0  0  0  0
    2.4113    1.5748   -2.2749 H   0  0  0  0  0  0  0  0  0  0  0  0
    2.0569   -0.1161   -2.7086 H   0  0  0  0  0  0  0  0  0  0  0  0
    0.7740   -0.4905   -0.6980 H   0  0  0  0  0  0  0  0  0  0  0  0
    0.1666    1.4076    0.8497 H   0  0  0  0  0  0  0  0  0  0  0  0
    1.8826    1.0486    0.8383 H   0  0  0  0  0  0  0  0  0  0  0  0
    1.2504    2.4445   -0.0712 H   0  0  0  0  0  0  0  0  0  0  0  0
   -0.0275    0.5751   -2.8531 H   0  0  0  0  0  0  0  0  0  0  0  0
   -1.6937    1.7396   -0.6697 H   0  0  0  0  0  0  0  0  0  0  0  0
   -2.1397    1.2167   -2.2797 H   0  0  0  0  0  0  0  0  0  0  0  0
   -1.2774   -0.9121   -0.2719 H   0  0  0  0  0  0  0  0  0  0  0  0
   -1.6657   -0.7526   -2.9774 H   0  0  0  0  0  0  0  0  0  0  0  0
   -2.7275   -0.7121    1.4948 H   0  0  0  0  0  0  0  0  0  0  0  0
   -5.1250   -1.7866    2.7771 H   0  0  0  0  0  0  0  0  0  0  0  0
   -5.2706   -0.2078    4.7403 H   0  0  0  0  0  0  0  0  0  0  0  0
   -8.0044   -0.3857    0.2928 H   0  0  0  0  0  0  0  0  0  0  0  0
   -6.4843   -0.1262   -1.6441 H   0  0  0  0  0  0  0  0  0  0  0  0
   -4.1556   -0.1260   -2.5193 H   0  0  0  0  0  0  0  0  0  0  0  0
    3.1841   -1.9573   -1.5632 H   0  0  0  0  0  0  0  0  0  0  0  0
    5.1189   -2.6269   -0.2182 H   0  0  0  0  0  0  0  0  0  0  0  0
  1  2  1  0
  2  3  1  0
  3  4  2  0
  4  5  1  0
  5  6  2  0
  6  7  1  0
  7  8  1  0
  8  9  1  0
  8 10  1  0
 10 11  1  0
 11 12  1  0
 12 13  1  0
 12 14  1  0
 14 15  2  0
 15 16  1  0
 16 17  1  0
 17 18  1  0
 18 19  2  0
 16 20  2  0
 20 21  1  0
 20 22  1  0
 22 23  2  0
  6 24  1  0
 24 25  2  0
 25  3  1  0
 23 14  1  0
  1 26  1  0
  1 27  1  0
  1 28  1  0
  4 29  1  0
  5 30  1  0
  7 31  1  0
  7 32  1  0
  8 33  1  0
  9 34  1  0
  9 35  1  0
  9 36  1  0
 10 37  1  0
 11 38  1  0
 11 39  1  0
 12 40  1  0
 13 41  1  0
 15 42  1  0
 17 43  1  0
 18 44  1  0
 21 45  1  0
 22 46  1  0
 23 47  1  0
 24 48  1  0
 25 49  1  0
M  END
$$$$
