@<TRIPOS>MOLECULE
*****
 49 50 0 0 0
SMALL
GASTEIGER

@<TRIPOS>ATOM
      1 C           7.4532   -0.3079    1.9916 C.3     1  UNL1        0.0788
      2 O           6.6259   -1.1157    1.2107 O.3     1  UNL1       -0.4951
      3 C           5.5659   -0.6092    0.4999 C.ar    1  UNL1        0.1201
      4 C           5.1124    0.6740    0.3959 C.ar    1  UNL1       -0.0197
      5 C           4.0232    1.0149   -0.3678 C.ar    1  UNL1       -0.0551
      6 C           3.3291    0.0393   -1.0783 C.ar    1  UNL1       -0.0457
      7 C           2.1801    0.5820   -1.8484 C.3     1  UNL1       -0.0125
      8 C           0.9019    0.5665   -1.0364 C.3     1  UNL1        0.0089
      9 C           1.0415    1.3893    0.2017 C.3     1  UNL1       -0.0494
     10 N          -0.1653    0.8852   -1.8913 N.3     1  UNL1       -0.3104
     11 C          -1.4745    0.9542   -1.4026 C.3     1  UNL1        0.0264
     12 C          -1.9418   -0.4278   -1.0103 C.3     1  UNL1        0.0927
     13 O          -1.8909   -1.2238   -2.1498 O.3     1  UNL1       -0.3859
     14 C          -3.3553   -0.4194   -0.5438 C.ar    1  UNL1       -0.0160
     15 C          -3.5616   -0.5842    0.8147 C.ar    1  UNL1       -0.0312
     16 C          -4.8704   -0.5824    1.2945 C.ar    1  UNL1        0.0755
     17 N          -5.0520   -0.7522    2.6914 N.am    1  UNL1       -0.2852
     18 C          -5.1250    0.1884    3.7508 C.2     1  UNL1        0.2042
     19 O          -4.9981    1.3633    3.2967 O.2     1  UNL1       -0.2792
     20 C          -5.9077   -0.4171    0.4009 C.ar    1  UNL1        0.1380
     21 O          -7.2046   -0.4201    0.9119 O.3     1  UNL1       -0.5049
     22 C          -5.6657   -0.2544   -0.9548 C.ar    1  UNL1       -0.0180
     23 C          -4.3798   -0.2511   -1.4657 C.ar    1  UNL1       -0.0525
     24 C           3.7720   -1.2513   -0.9839 C.ar    1  UNL1       -0.0551
     25 C           4.8706   -1.5668   -0.2083 C.ar    1  UNL1       -0.0197
     26 H           8.2972    0.0374    1.3698 H       1  UNL1        0.0660
     27 H           6.8828    0.5649    2.3769 H       1  UNL1        0.0660
     28 H           7.8033   -0.8865    2.8788 H       1  UNL1        0.0660
     29 H           5.6859    1.4057    0.9690 H       1  UNL1        0.0654
     30 H           3.7743    2.0776   -0.3578 H       1  UNL1        0.0621
     31 H           2.4113    1.5748   -2.2749 H       1  UNL1        0.0328
     32 H           2.0569   -0.1161   -2.7086 H       1  UNL1        0.0328
     33 H           0.7740   -0.4905   -0.6980 H       1  UNL1        0.0461
     34 H           0.1666    1.4076    0.8497 H       1  UNL1        0.0245
     35 H           1.8826    1.0486    0.8383 H       1  UNL1        0.0245
     36 H           1.2504    2.4445   -0.0712 H       1  UNL1        0.0245
     37 H          -0.0275    0.5751   -2.8531 H       1  UNL1        0.1223
     38 H          -1.6937    1.7396   -0.6697 H       1  UNL1        0.0453
     39 H          -2.1397    1.2167   -2.2797 H       1  UNL1        0.0453
     40 H          -1.2774   -0.9121   -0.2719 H       1  UNL1        0.0656
     41 H          -1.6657   -0.7526   -2.9774 H       1  UNL1        0.2103
     42 H          -2.7275   -0.7121    1.4948 H       1  UNL1        0.0641
     43 H          -5.1250   -1.7866    2.7771 H       1  UNL1        0.1546
     44 H          -5.2706   -0.2078    4.7403 H       1  UNL1        0.1255
     45 H          -8.0044   -0.3857    0.2928 H       1  UNL1        0.2922
     46 H          -6.4843   -0.1262   -1.6441 H       1  UNL1        0.0655
     47 H          -4.1556   -0.1260   -2.5193 H       1  UNL1        0.0622
     48 H           3.1841   -1.9573   -1.5632 H       1  UNL1        0.0621
     49 H           5.1189   -2.6269   -0.2182 H       1  UNL1        0.0654
@<TRIPOS>BOND
     1     1     2    1
     2     2     3    1
     3     3     4   ar
     4     4     5   ar
     5     5     6   ar
     6     6     7    1
     7     7     8    1
     8     8     9    1
     9     8    10    1
    10    10    11    1
    11    11    12    1
    12    12    13    1
    13    12    14    1
    14    14    15   ar
    15    15    16   ar
    16    16    17    1
    17    17    18   am
    18    18    19    2
    19    16    20   ar
    20    20    21    1
    21    20    22   ar
    22    22    23   ar
    23     6    24   ar
    24    24    25   ar
    25    25     3   ar
    26    23    14   ar
    27     1    26    1
    28     1    27    1
    29     1    28    1
    30     4    29    1
    31     5    30    1
    32     7    31    1
    33     7    32    1
    34     8    33    1
    35     9    34    1
    36     9    35    1
    37     9    36    1
    38    10    37    1
    39    11    38    1
    40    11    39    1
    41    12    40    1
    42    13    41    1
    43    15    42    1
    44    17    43    1
    45    18    44    1
    46    21    45    1
    47    22    46    1
    48    23    47    1
    49    24    48    1
    50    25    49    1
