@<TRIPOS>MOLECULE
*****
 48 51 0 0 0
SMALL
GASTEIGER

@<TRIPOS>ATOM
      1 C          -2.8111    2.9151    0.5921 C.3     1  UNL1       -0.0391
      2 C          -1.5684    2.1572    0.4440 C.ar    1  UNL1       -0.0427
      3 C          -0.3890    2.8783    0.5259 C.ar    1  UNL1       -0.0575
      4 C           0.8145    2.2629    0.4023 C.ar    1  UNL1       -0.0493
      5 C           0.8983    0.9022    0.1917 C.ar    1  UNL1        0.0376
      6 C          -0.2867    0.2028    0.1133 C.ar    1  UNL1       -0.0416
      7 C          -1.5468    0.7951    0.2346 C.ar    1  UNL1       -0.0142
      8 C          -2.7607    0.0305    0.1455 C.ar    1  UNL1       -0.0169
      9 C          -2.6756   -1.1394    0.9075 C.ar    1  UNL1       -0.0520
     10 C          -3.7284   -2.0493    0.9814 C.ar    1  UNL1       -0.0350
     11 C          -4.8891   -1.7830    0.2789 C.ar    1  UNL1        0.0761
     12 N          -5.9800   -2.5658    0.2567 N.ar    1  UNL1       -0.2147
     13 C          -7.0820   -2.2543   -0.4466 C.ar    1  UNL1        0.2131
     14 N          -8.2168   -3.0862   -0.4587 N.pl3   1  UNL1       -0.3275
     15 N          -7.1561   -1.1239   -1.1791 N.ar    1  UNL1       -0.2225
     16 C          -6.0979   -0.2927   -1.2020 C.ar    1  UNL1        0.0404
     17 C          -4.9774   -0.6342   -0.4717 C.ar    1  UNL1        0.0192
     18 C          -3.9325    0.2604   -0.5398 C.ar    1  UNL1       -0.0434
     19 C           2.1020    0.0910    0.0383 C.2     1  UNL1        0.2483
     20 O           2.1655   -1.1516   -0.1547 O.2     1  UNL1       -0.2699
     21 N           3.3599    0.7409    0.1089 N.am    1  UNL1       -0.2815
     22 C           4.7116    0.3179    0.0118 C.ar    1  UNL1        0.0342
     23 C           5.2294    0.3398   -1.2815 C.ar    1  UNL1       -0.0404
     24 C           6.5482   -0.0506   -1.5280 C.ar    1  UNL1       -0.0595
     25 C           7.3263   -0.4586   -0.4598 C.ar    1  UNL1       -0.0500
     26 C           6.8255   -0.4857    0.8315 C.ar    1  UNL1        0.0566
     27 C           5.5275   -0.0969    1.0429 C.ar    1  UNL1       -0.0288
     28 C           7.6758   -0.9273    1.9707 C.3     1  UNL1        0.4175
     29 F           6.8576   -1.5544    2.8838 F       1  UNL1       -0.1659
     30 F           8.7289   -1.7135    1.5533 F       1  UNL1       -0.1659
     31 F           8.1518    0.2424    2.5761 F       1  UNL1       -0.1659
     32 H          -2.6539    3.7760    1.3072 H       1  UNL1        0.0278
     33 H          -3.6743    2.3665    0.9744 H       1  UNL1        0.0278
     34 H          -3.1153    3.3396   -0.4066 H       1  UNL1        0.0278
     35 H          -0.3676    3.9604    0.6912 H       1  UNL1        0.0621
     36 H           1.7666    2.7719    0.4572 H       1  UNL1        0.0625
     37 H          -0.3208   -0.8668   -0.0498 H       1  UNL1        0.0631
     38 H          -1.8287   -1.4674    1.5027 H       1  UNL1        0.0624
     39 H          -3.7155   -2.9514    1.5445 H       1  UNL1        0.0639
     40 H          -8.7537   -3.5394   -1.2193 H       1  UNL1        0.1452
     41 H          -8.7898   -3.4437    0.3298 H       1  UNL1        0.1452
     42 H          -6.1507    0.6292   -1.7959 H       1  UNL1        0.0837
     43 H          -3.9026    1.1844   -1.0979 H       1  UNL1        0.0631
     44 H           3.5223    1.7605    0.2623 H       1  UNL1        0.1551
     45 H           4.7090    0.6413   -2.1915 H       1  UNL1        0.0636
     46 H           7.0149   -0.0598   -2.4957 H       1  UNL1        0.0618
     47 H           8.3655   -0.7766   -0.5825 H       1  UNL1        0.0623
     48 H           5.0705   -0.0935    2.0291 H       1  UNL1        0.0642
@<TRIPOS>BOND
     1     1     2    1
     2     2     3   ar
     3     3     4   ar
     4     4     5   ar
     5     5     6   ar
     6     6     7   ar
     7     7     8    1
     8     8     9   ar
     9     9    10   ar
    10    10    11   ar
    11    11    12   ar
    12    12    13   ar
    13    13    14    1
    14    13    15   ar
    15    15    16   ar
    16    16    17   ar
    17    17    18   ar
    18     5    19    1
    19    19    20    2
    20    19    21   am
    21    21    22    1
    22    22    23   ar
    23    23    24   ar
    24    24    25   ar
    25    25    26   ar
    26    26    27   ar
    27    26    28    1
    28    28    29    1
    29    28    30    1
    30    28    31    1
    31     7     2   ar
    32    18     8   ar
    33    27    22   ar
    34    17    11   ar
    35     1    32    1
    36     1    33    1
    37     1    34    1
    38     3    35    1
    39     4    36    1
    40     6    37    1
    41     9    38    1
    42    10    39    1
    43    14    40    1
    44    14    41    1
    45    16    42    1
    46    18    43    1
    47    21    44    1
    48    23    45    1
    49    24    46    1
    50    25    47    1
    51    27    48    1
