
     RDKit          3D

 48 51  0  0  0  0  0  0  0  0999 V2000
   -2.8111    2.9151    0.5921 C   0  0  0  0  0  0  0  0  0  0  0  0
   -1.5684    2.1572    0.4440 C   0  0  0  0  0  0  0  0  0  0  0  0
   -0.3890    2.8783    0.5259 C   0  0  0  0  0  0  0  0  0  0  0  0
    0.8145    2.2629    0.4023 C   0  0  0  0  0  0  0  0  0  0  0  0
    0.8983    0.9022    0.1917 C   0  0  0  0  0  0  0  0  0  0  0  0
   -0.2867    0.2028    0.1133 C   0  0  0  0  0  0  0  0  0  0  0  0
   -1.5468    0.7951    0.2346 C   0  0  0  0  0  0  0  0  0  0  0  0
   -2.7607    0.0305    0.1455 C   0  0  0  0  0  0  0  0  0  0  0  0
   -2.6756   -1.1394    0.9075 C   0  0  0  0  0  0  0  0  0  0  0  0
   -3.7284   -2.0493    0.9814 C   0  0  0  0  0  0  0  0  0  0  0  0
   -4.8891   -1.7830    0.2789 C   0  0  0  0  0  0  0  0  0  0  0  0
   -5.9800   -2.5658    0.2567 N   0  0  0  0  0  0  0  0  0  0  0  0
   -7.0820   -2.2543   -0.4466 C   0  0  0  0  0  0  0  0  0  0  0  0
   -8.2168   -3.0862   -0.4587 N   0  0  0  0  0  0  0  0  0  0  0  0
   -7.1561   -1.1239   -1.1791 N   0  0  0  0  0  0  0  0  0  0  0  0
   -6.0979   -0.2927   -1.2020 C   0  0  0  0  0  0  0  0  0  0  0  0
   -4.9774   -0.6342   -0.4717 C   0  0  0  0  0  0  0  0  0  0  0  0
   -3.9325    0.2604   -0.5398 C   0  0  0  0  0  0  0  0  0  0  0  0
    2.1020    0.0910    0.0383 C   0  0  0  0  0  0  0  0  0  0  0  0
    2.1655   -1.1516   -0.1547 O   0  0  0  0  0  0  0  0  0  0  0  0
    3.3599    0.7409    0.1089 N   0  0  0  0  0  0  0  0  0  0  0  0
    4.7116    0.3179    0.0118 C   0  0  0  0  0  0  0  0  0  0  0  0
    5.2294    0.3398   -1.2815 C   0  0  0  0  0  0  0  0  0  0  0  0
    6.5482   -0.0506   -1.5280 C   0  0  0  0  0  0  0  0  0  0  0  0
    7.3263   -0.4586   -0.4598 C   0  0  0  0  0  0  0  0  0  0  0  0
    6.8255   -0.4857    0.8315 C   0  0  0  0  0  0  0  0  0  0  0  0
    5.5275   -0.0969    1.0429 C   0  0  0  0  0  0  0  0  0  0  0  0
    7.6758   -0.9273    1.9707 C   0  0  0  0  0  0  0  0  0  0  0  0
    6.8576   -1.5544    2.8838 F   0  0  0  0  0  0  0  0  0  0  0  0
    8.7289   -1.7135    1.5533 F   0  0  0  0  0  0  0  0  0  0  0  0
    8.1518    0.2424    2.5761 F   0  0  0  0  0  0  0  0  0  0  0  0
   -2.6539    3.7760    1.3072 H   0  0  0  0  0  0  0  0  0  0  0  0
   -3.6743    2.3665    0.9744 H   0  0  0  0  0  0  0  0  0  0  0  0
   -3.1153    3.3396   -0.4066 H   0  0  0  0  0  0  0  0  0  0  0  0
   -0.3676    3.9604    0.6912 H   0  0  0  0  0  0  0  0  0  0  0  0
    1.7666    2.7719    0.4572 H   0  0  0  0  0  0  0  0  0  0  0  0
   -0.3208   -0.8668   -0.0498 H   0  0  0  0  0  0  0  0  0  0  0  0
   -1.8287   -1.4674    1.5027 H   0  0  0  0  0  0  0  0  0  0  0  0
   -3.7155   -2.9514    1.5445 H   0  0  0  0  0  0  0  0  0  0  0  0
   -8.7537   -3.5394   -1.2193 H   0  0  0  0  0  0  0  0  0  0  0  0
   -8.7898   -3.4437    0.3298 H   0  0  0  0  0  0  0  0  0  0  0  0
   -6.1507    0.6292   -1.7959 H   0  0  0  0  0  0  0  0  0  0  0  0
   -3.9026    1.1844   -1.0979 H   0  0  0  0  0  0  0  0  0  0  0  0
    3.5223    1.7605    0.2623 H   0  0  0  0  0  0  0  0  0  0  0  0
    4.7090    0.6413   -2.1915 H   0  0  0  0  0  0  0  0  0  0  0  0
    7.0149   -0.0598   -2.4957 H   0  0  0  0  0  0  0  0  0  0  0  0
    8.3655   -0.7766   -0.5825 H   0  0  0  0  0  0  0  0  0  0  0  0
    5.0705   -0.0935    2.0291 H   0  0  0  0  0  0  0  0  0  0  0  0
  1  2  1  0
  2  3  2  0
  3  4  1  0
  4  5  2  0
  5  6  1  0
  6  7  2  0
  7  8  1  0
  8  9  2  0
  9 10  1  0
 10 11  2  0
 11 12  1  0
 12 13  2  0
 13 14  1  0
 13 15  1  0
 15 16  2  0
 16 17  1  0
 17 18  2  0
  5 19  1  0
 19 20  2  0
 19 21  1  0
 21 22  1  0
 22 23  2  0
 23 24  1  0
 24 25  2  0
 25 26  1  0
 26 27  2  0
 26 28  1  0
 28 29  1  0
 28 30  1  0
 28 31  1  0
  7  2  1  0
 18  8  1  0
 27 22  1  0
 17 11  1  0
  1 32  1  0
  1 33  1  0
  1 34  1  0
  3 35  1  0
  4 36  1  0
  6 37  1  0
  9 38  1  0
 10 39  1  0
 14 40  1  0
 14 41  1  0
 16 42  1  0
 18 43  1  0
 21 44  1  0
 23 45  1  0
 24 46  1  0
 25 47  1  0
 27 48  1  0
M  END
$$$$
