@<TRIPOS>MOLECULE
*****
 66 68 0 0 0
SMALL
GASTEIGER

@<TRIPOS>ATOM
      1 C           3.1640    4.3241   -1.7840 C.3     1  UNL1       -0.0345
      2 C           2.2154    3.2384   -1.2977 C.3     1  UNL1        0.0808
      3 O           1.4004    3.6544   -0.2923 O.3     1  UNL1       -0.3722
      4 C           0.0669    3.7278   -0.5179 C.3     1  UNL1        0.0484
      5 C          -0.5264    2.3734   -0.7843 C.3     1  UNL1       -0.0294
      6 C          -0.3484    1.5186    0.4368 C.3     1  UNL1       -0.0498
      7 C          -0.9028    0.1156    0.2683 C.3     1  UNL1       -0.0401
      8 C          -2.3661    0.1570   -0.0255 C.3     1  UNL1       -0.0006
      9 N          -2.9796   -1.1209   -0.1954 N.3     1  UNL1       -0.2923
     10 C          -3.0544   -1.9222    0.9895 C.3     1  UNL1        0.0279
     11 C          -4.0193   -1.3779    2.0152 C.3     1  UNL1        0.0962
     12 O          -4.0661   -2.2779    3.0755 O.3     1  UNL1       -0.3879
     13 C          -5.3830   -1.3250    1.3747 C.3     1  UNL1        0.1095
     14 O          -6.2540   -0.7871    2.3248 O.3     1  UNL1       -0.3866
     15 C          -5.2869   -0.4410    0.1651 C.3     1  UNL1        0.1011
     16 O          -6.5117   -0.2625   -0.4651 O.3     1  UNL1       -0.3875
     17 C          -4.2754   -0.9927   -0.7937 C.3     1  UNL1        0.0621
     18 C          -4.7453   -2.2544   -1.4716 C.3     1  UNL1        0.0622
     19 O          -3.8154   -2.5636   -2.4761 O.3     1  UNL1       -0.3934
     20 C           2.9800    2.0388   -0.8705 C.ar    1  UNL1       -0.0191
     21 C           3.5645    1.9828    0.3843 C.ar    1  UNL1       -0.0556
     22 C           4.2795    0.8953    0.8254 C.ar    1  UNL1       -0.0537
     23 C           4.4195   -0.1817   -0.0158 C.ar    1  UNL1       -0.0179
     24 C           5.1745   -1.3655    0.4147 C.ar    1  UNL1       -0.0179
     25 C           6.2434   -1.2381    1.2747 C.ar    1  UNL1       -0.0540
     26 C           6.9180   -2.4064    1.6452 C.ar    1  UNL1       -0.0612
     27 C           6.5032   -3.6336    1.1492 C.ar    1  UNL1       -0.0617
     28 C           5.4339   -3.7458    0.2909 C.ar    1  UNL1       -0.0612
     29 C           4.7611   -2.5858   -0.0794 C.ar    1  UNL1       -0.0540
     30 C           3.8384   -0.1289   -1.2667 C.ar    1  UNL1       -0.0537
     31 C           3.1215    0.9538   -1.7171 C.ar    1  UNL1       -0.0556
     32 H           2.6188    4.9802   -2.4610 H       1  UNL1        0.0258
     33 H           3.6743    4.8452   -0.9553 H       1  UNL1        0.0258
     34 H           3.9499    3.8059   -2.3711 H       1  UNL1        0.0258
     35 H           1.5864    3.0048   -2.1943 H       1  UNL1        0.0643
     36 H          -0.2364    4.4806   -1.2775 H       1  UNL1        0.0560
     37 H          -0.4356    4.0947    0.4286 H       1  UNL1        0.0560
     38 H          -1.6063    2.5254   -1.0346 H       1  UNL1        0.0287
     39 H           0.0046    1.9186   -1.6376 H       1  UNL1        0.0287
     40 H          -0.8484    2.0373    1.2908 H       1  UNL1        0.0266
     41 H           0.7181    1.4778    0.6997 H       1  UNL1        0.0266
     42 H          -0.2953   -0.3806   -0.4908 H       1  UNL1        0.0278
     43 H          -0.7909   -0.3632    1.2857 H       1  UNL1        0.0278
     44 H          -2.8954    0.7102    0.7505 H       1  UNL1        0.0427
     45 H          -2.5021    0.7041   -0.9899 H       1  UNL1        0.0427
     46 H          -3.4492   -2.9208    0.6883 H       1  UNL1        0.0453
     47 H          -2.0949   -2.0940    1.4808 H       1  UNL1        0.0453
     48 H          -3.7110   -0.3915    2.4083 H       1  UNL1        0.0633
     49 H          -4.8842   -2.8318    3.0267 H       1  UNL1        0.2099
     50 H          -5.6555   -2.3598    1.0927 H       1  UNL1        0.0646
     51 H          -7.1380   -1.2205    2.2504 H       1  UNL1        0.2100
     52 H          -4.9273    0.5533    0.4943 H       1  UNL1        0.0636
     53 H          -6.9596    0.5020   -0.0291 H       1  UNL1        0.2100
     54 H          -4.1745   -0.2255   -1.6165 H       1  UNL1        0.0511
     55 H          -5.6903   -2.0207   -1.9976 H       1  UNL1        0.0573
     56 H          -4.8245   -3.1186   -0.8081 H       1  UNL1        0.0573
     57 H          -4.0876   -2.2322   -3.3492 H       1  UNL1        0.2095
     58 H           3.4212    2.8622    1.0068 H       1  UNL1        0.0621
     59 H           4.7128    0.9043    1.8104 H       1  UNL1        0.0624
     60 H           6.5548   -0.2731    1.6529 H       1  UNL1        0.0624
     61 H           7.7614   -2.3393    2.3190 H       1  UNL1        0.0618
     62 H           7.0342   -4.5393    1.4425 H       1  UNL1        0.0618
     63 H           5.0925   -4.6979   -0.1089 H       1  UNL1        0.0618
     64 H           3.9161   -2.6428   -0.7531 H       1  UNL1        0.0624
     65 H           3.9474   -0.9895   -1.9454 H       1  UNL1        0.0624
     66 H           2.6657    1.0036   -2.6896 H       1  UNL1        0.0621
@<TRIPOS>BOND
     1     1     2    1
     2     2     3    1
     3     3     4    1
     4     4     5    1
     5     5     6    1
     6     6     7    1
     7     7     8    1
     8     8     9    1
     9     9    10    1
    10    10    11    1
    11    11    12    1
    12    11    13    1
    13    13    14    1
    14    13    15    1
    15    15    16    1
    16    15    17    1
    17    17    18    1
    18    18    19    1
    19     2    20    1
    20    20    21   ar
    21    21    22   ar
    22    22    23   ar
    23    23    24    1
    24    24    25   ar
    25    25    26   ar
    26    26    27   ar
    27    27    28   ar
    28    28    29   ar
    29    23    30   ar
    30    30    31   ar
    31    17     9    1
    32    31    20   ar
    33    29    24   ar
    34     1    32    1
    35     1    33    1
    36     1    34    1
    37     2    35    1
    38     4    36    1
    39     4    37    1
    40     5    38    1
    41     5    39    1
    42     6    40    1
    43     6    41    1
    44     7    42    1
    45     7    43    1
    46     8    44    1
    47     8    45    1
    48    10    46    1
    49    10    47    1
    50    11    48    1
    51    12    49    1
    52    13    50    1
    53    14    51    1
    54    15    52    1
    55    16    53    1
    56    17    54    1
    57    18    55    1
    58    18    56    1
    59    19    57    1
    60    21    58    1
    61    22    59    1
    62    25    60    1
    63    26    61    1
    64    27    62    1
    65    28    63    1
    66    29    64    1
    67    30    65    1
    68    31    66    1
