
     RDKit          3D

 66 68  0  0  0  0  0  0  0  0999 V2000
    3.1640    4.3241   -1.7840 C   0  0  0  0  0  0  0  0  0  0  0  0
    2.2154    3.2384   -1.2977 C   0  0  2  0  0  0  0  0  0  0  0  0
    1.4004    3.6544   -0.2923 O   0  0  0  0  0  0  0  0  0  0  0  0
    0.0669    3.7278   -0.5179 C   0  0  0  0  0  0  0  0  0  0  0  0
   -0.5264    2.3734   -0.7843 C   0  0  0  0  0  0  0  0  0  0  0  0
   -0.3484    1.5186    0.4368 C   0  0  0  0  0  0  0  0  0  0  0  0
   -0.9028    0.1156    0.2683 C   0  0  0  0  0  0  0  0  0  0  0  0
   -2.3661    0.1570   -0.0255 C   0  0  0  0  0  0  0  0  0  0  0  0
   -2.9796   -1.1209   -0.1954 N   0  0  0  0  0  0  0  0  0  0  0  0
   -3.0544   -1.9222    0.9895 C   0  0  0  0  0  0  0  0  0  0  0  0
   -4.0193   -1.3779    2.0152 C   0  0  2  0  0  0  0  0  0  0  0  0
   -4.0661   -2.2779    3.0755 O   0  0  0  0  0  0  0  0  0  0  0  0
   -5.3830   -1.3250    1.3747 C   0  0  1  0  0  0  0  0  0  0  0  0
   -6.2540   -0.7871    2.3248 O   0  0  0  0  0  0  0  0  0  0  0  0
   -5.2869   -0.4410    0.1651 C   0  0  2  0  0  0  0  0  0  0  0  0
   -6.5117   -0.2625   -0.4651 O   0  0  0  0  0  0  0  0  0  0  0  0
   -4.2754   -0.9927   -0.7937 C   0  0  2  0  0  0  0  0  0  0  0  0
   -4.7453   -2.2544   -1.4716 C   0  0  0  0  0  0  0  0  0  0  0  0
   -3.8154   -2.5636   -2.4761 O   0  0  0  0  0  0  0  0  0  0  0  0
    2.9800    2.0388   -0.8705 C   0  0  0  0  0  0  0  0  0  0  0  0
    3.5645    1.9828    0.3843 C   0  0  0  0  0  0  0  0  0  0  0  0
    4.2795    0.8953    0.8254 C   0  0  0  0  0  0  0  0  0  0  0  0
    4.4195   -0.1817   -0.0158 C   0  0  0  0  0  0  0  0  0  0  0  0
    5.1745   -1.3655    0.4147 C   0  0  0  0  0  0  0  0  0  0  0  0
    6.2434   -1.2381    1.2747 C   0  0  0  0  0  0  0  0  0  0  0  0
    6.9180   -2.4064    1.6452 C   0  0  0  0  0  0  0  0  0  0  0  0
    6.5032   -3.6336    1.1492 C   0  0  0  0  0  0  0  0  0  0  0  0
    5.4339   -3.7458    0.2909 C   0  0  0  0  0  0  0  0  0  0  0  0
    4.7611   -2.5858   -0.0794 C   0  0  0  0  0  0  0  0  0  0  0  0
    3.8384   -0.1289   -1.2667 C   0  0  0  0  0  0  0  0  0  0  0  0
    3.1215    0.9538   -1.7171 C   0  0  0  0  0  0  0  0  0  0  0  0
    2.6188    4.9802   -2.4610 H   0  0  0  0  0  0  0  0  0  0  0  0
    3.6743    4.8452   -0.9553 H   0  0  0  0  0  0  0  0  0  0  0  0
    3.9499    3.8059   -2.3711 H   0  0  0  0  0  0  0  0  0  0  0  0
    1.5864    3.0048   -2.1943 H   0  0  0  0  0  0  0  0  0  0  0  0
   -0.2364    4.4806   -1.2775 H   0  0  0  0  0  0  0  0  0  0  0  0
   -0.4356    4.0947    0.4286 H   0  0  0  0  0  0  0  0  0  0  0  0
   -1.6063    2.5254   -1.0346 H   0  0  0  0  0  0  0  0  0  0  0  0
    0.0046    1.9186   -1.6376 H   0  0  0  0  0  0  0  0  0  0  0  0
   -0.8484    2.0373    1.2908 H   0  0  0  0  0  0  0  0  0  0  0  0
    0.7181    1.4778    0.6997 H   0  0  0  0  0  0  0  0  0  0  0  0
   -0.2953   -0.3806   -0.4908 H   0  0  0  0  0  0  0  0  0  0  0  0
   -0.7909   -0.3632    1.2857 H   0  0  0  0  0  0  0  0  0  0  0  0
   -2.8954    0.7102    0.7505 H   0  0  0  0  0  0  0  0  0  0  0  0
   -2.5021    0.7041   -0.9899 H   0  0  0  0  0  0  0  0  0  0  0  0
   -3.4492   -2.9208    0.6883 H   0  0  0  0  0  0  0  0  0  0  0  0
   -2.0949   -2.0940    1.4808 H   0  0  0  0  0  0  0  0  0  0  0  0
   -3.7110   -0.3915    2.4083 H   0  0  0  0  0  0  0  0  0  0  0  0
   -4.8842   -2.8318    3.0267 H   0  0  0  0  0  0  0  0  0  0  0  0
   -5.6555   -2.3598    1.0927 H   0  0  0  0  0  0  0  0  0  0  0  0
   -7.1380   -1.2205    2.2504 H   0  0  0  0  0  0  0  0  0  0  0  0
   -4.9273    0.5533    0.4943 H   0  0  0  0  0  0  0  0  0  0  0  0
   -6.9596    0.5020   -0.0291 H   0  0  0  0  0  0  0  0  0  0  0  0
   -4.1745   -0.2255   -1.6165 H   0  0  0  0  0  0  0  0  0  0  0  0
   -5.6903   -2.0207   -1.9976 H   0  0  0  0  0  0  0  0  0  0  0  0
   -4.8245   -3.1186   -0.8081 H   0  0  0  0  0  0  0  0  0  0  0  0
   -4.0876   -2.2322   -3.3492 H   0  0  0  0  0  0  0  0  0  0  0  0
    3.4212    2.8622    1.0068 H   0  0  0  0  0  0  0  0  0  0  0  0
    4.7128    0.9043    1.8104 H   0  0  0  0  0  0  0  0  0  0  0  0
    6.5548   -0.2731    1.6529 H   0  0  0  0  0  0  0  0  0  0  0  0
    7.7614   -2.3393    2.3190 H   0  0  0  0  0  0  0  0  0  0  0  0
    7.0342   -4.5393    1.4425 H   0  0  0  0  0  0  0  0  0  0  0  0
    5.0925   -4.6979   -0.1089 H   0  0  0  0  0  0  0  0  0  0  0  0
    3.9161   -2.6428   -0.7531 H   0  0  0  0  0  0  0  0  0  0  0  0
    3.9474   -0.9895   -1.9454 H   0  0  0  0  0  0  0  0  0  0  0  0
    2.6657    1.0036   -2.6896 H   0  0  0  0  0  0  0  0  0  0  0  0
  1  2  1  0
  2  3  1  0
  3  4  1  0
  4  5  1  0
  5  6  1  0
  6  7  1  0
  7  8  1  0
  8  9  1  0
  9 10  1  0
 10 11  1  0
 11 12  1  0
 11 13  1  0
 13 14  1  0
 13 15  1  0
 15 16  1  0
 15 17  1  0
 17 18  1  0
 18 19  1  0
  2 20  1  0
 20 21  2  0
 21 22  1  0
 22 23  2  0
 23 24  1  0
 24 25  2  0
 25 26  1  0
 26 27  2  0
 27 28  1  0
 28 29  2  0
 23 30  1  0
 30 31  2  0
 17  9  1  0
 31 20  1  0
 29 24  1  0
  1 32  1  0
  1 33  1  0
  1 34  1  0
  2 35  1  6
  4 36  1  0
  4 37  1  0
  5 38  1  0
  5 39  1  0
  6 40  1  0
  6 41  1  0
  7 42  1  0
  7 43  1  0
  8 44  1  0
  8 45  1  0
 10 46  1  0
 10 47  1  0
 11 48  1  1
 12 49  1  0
 13 50  1  6
 14 51  1  0
 15 52  1  1
 16 53  1  0
 17 54  1  6
 18 55  1  0
 18 56  1  0
 19 57  1  0
 21 58  1  0
 22 59  1  0
 25 60  1  0
 26 61  1  0
 27 62  1  0
 28 63  1  0
 29 64  1  0
 30 65  1  0
 31 66  1  0
M  END
$$$$
