@<TRIPOS>MOLECULE
*****
 70 72 0 0 0
SMALL
GASTEIGER

@<TRIPOS>ATOM
      1 C           5.6480   -0.9958   -0.2057 C.3     1  UNL1       -0.0400
      2 C           5.1472    0.3481    0.0770 C.2     1  UNL1       -0.0539
      3 C           6.0926    1.3439    0.6646 C.2     1  UNL1       -0.0542
      4 C           7.3350    1.0981    0.9427 C.2     1  UNL1        0.0024
      5 C           8.1495    2.1636    1.5161 C.2     1  UNL1        0.2593
      6 O           7.6702    3.3043    1.7421 O.2     1  UNL1       -0.2687
      7 N           9.5080    1.9614    1.8415 N.am    1  UNL1       -0.1940
      8 O          10.2611    2.9671    2.3782 O.3     1  UNL1       -0.2949
      9 C           3.9224    0.6902   -0.1743 C.2     1  UNL1       -0.0780
     10 C           2.8719   -0.1341   -0.7539 C.3     1  UNL1       -0.0219
     11 C           3.2097   -1.2529   -1.6373 C.3     1  UNL1       -0.0587
     12 C           1.7140   -0.3434    0.2147 C.3     1  UNL1       -0.0290
     13 C           1.1433    1.0259    0.6065 C.3     1  UNL1       -0.0486
     14 C          -0.3284    0.8463    0.8231 C.3     1  UNL1       -0.0457
     15 C          -0.5223   -0.6520    0.7524 C.3     1  UNL1       -0.0139
     16 C          -1.8408   -1.0085    0.1934 C.2     1  UNL1       -0.0659
     17 C          -2.9106   -0.2208    0.2030 C.2     1  UNL1       -0.0623
     18 C          -4.1709   -0.6598   -0.3736 C.2     1  UNL1       -0.0624
     19 C          -5.2301    0.0973   -0.3755 C.2     1  UNL1       -0.0647
     20 C          -6.5299   -0.3765   -0.9779 C.3     1  UNL1       -0.0051
     21 C          -7.6286    0.1126   -0.0383 C.3     1  UNL1        0.0613
     22 O          -8.2007    1.2984   -0.4844 O.3     1  UNL1       -0.3914
     23 C          -7.0988    0.2418    1.3786 C.3     1  UNL1       -0.0001
     24 C          -6.0774    1.3586    1.4790 C.3     1  UNL1        0.0613
     25 O          -6.6603    2.5884    1.7617 O.3     1  UNL1       -0.3914
     26 C          -5.2564    1.4528    0.1974 C.3     1  UNL1       -0.0051
     27 C          -1.9680   -2.3452   -0.4188 C.3     1  UNL1       -0.0312
     28 C          -0.7456   -3.1939   -0.1517 C.3     1  UNL1       -0.0488
     29 C           0.5433   -2.4761   -0.4829 C.3     1  UNL1       -0.0465
     30 C           0.5095   -0.9979   -0.3492 C.3     1  UNL1       -0.0222
     31 C           0.0143   -0.2806   -1.5790 C.3     1  UNL1       -0.0587
     32 H           6.2771   -1.0834   -1.1156 H       1  UNL1        0.0277
     33 H           6.4260   -1.1926    0.6234 H       1  UNL1        0.0277
     34 H           4.9533   -1.8279   -0.0307 H       1  UNL1        0.0277
     35 H           5.6984    2.3164    0.8607 H       1  UNL1        0.0622
     36 H           7.7886    0.1641    0.7680 H       1  UNL1        0.0670
     37 H           9.9823    1.0389    1.6836 H       1  UNL1        0.1825
     38 H          10.1253    3.7619    1.7949 H       1  UNL1        0.2414
     39 H           3.6803    1.7601    0.1044 H       1  UNL1        0.0577
     40 H           2.3638    0.6313   -1.4939 H       1  UNL1        0.0343
     41 H           2.5035   -1.3272   -2.5421 H       1  UNL1        0.0235
     42 H           3.0902   -2.2533   -1.1853 H       1  UNL1        0.0235
     43 H           4.1956   -1.1300   -2.1700 H       1  UNL1        0.0235
     44 H           2.0268   -0.8922    1.1208 H       1  UNL1        0.0312
     45 H           1.5885    1.3216    1.5844 H       1  UNL1        0.0268
     46 H           1.3429    1.8040   -0.1250 H       1  UNL1        0.0268
     47 H          -0.6978    1.2903    1.7585 H       1  UNL1        0.0271
     48 H          -0.9331    1.2748   -0.0235 H       1  UNL1        0.0271
     49 H          -0.2691   -1.1147    1.7016 H       1  UNL1        0.0351
     50 H          -2.7740    0.7366    0.6611 H       1  UNL1        0.0617
     51 H          -4.2395   -1.6707   -0.8282 H       1  UNL1        0.0617
     52 H          -6.6518    0.1752   -1.9312 H       1  UNL1        0.0335
     53 H          -6.5460   -1.4566   -1.1250 H       1  UNL1        0.0335
     54 H          -8.4533   -0.6441    0.0128 H       1  UNL1        0.0597
     55 H          -8.0464    1.4552   -1.4505 H       1  UNL1        0.2098
     56 H          -6.5788   -0.6976    1.6284 H       1  UNL1        0.0315
     57 H          -7.9418    0.4880    2.0283 H       1  UNL1        0.0315
     58 H          -5.3684    1.1158    2.2965 H       1  UNL1        0.0597
     59 H          -6.9273    2.6886    2.6939 H       1  UNL1        0.2098
     60 H          -4.2840    1.9167    0.3352 H       1  UNL1        0.0335
     61 H          -5.8991    2.0727   -0.4960 H       1  UNL1        0.0335
     62 H          -2.2130   -2.3232   -1.4878 H       1  UNL1        0.0310
     63 H          -2.8208   -2.8551    0.0950 H       1  UNL1        0.0310
     64 H          -0.8117   -4.0758   -0.8217 H       1  UNL1        0.0268
     65 H          -0.7714   -3.5874    0.8809 H       1  UNL1        0.0268
     66 H           0.8338   -2.7172   -1.5481 H       1  UNL1        0.0271
     67 H           1.3141   -2.9366    0.1559 H       1  UNL1        0.0271
     68 H           0.3661    0.7696   -1.5725 H       1  UNL1        0.0235
     69 H           0.2160   -0.7919   -2.5266 H       1  UNL1        0.0235
     70 H          -1.1166   -0.1655   -1.5154 H       1  UNL1        0.0235
@<TRIPOS>BOND
     1     1     2    1
     2     2     3    1
     3     3     4    2
     4     4     5    1
     5     5     6    2
     6     5     7   am
     7     7     8    1
     8     2     9    2
     9     9    10    1
    10    10    11    1
    11    10    12    1
    12    12    13    1
    13    13    14    1
    14    14    15    1
    15    15    16    1
    16    16    17    2
    17    17    18    1
    18    18    19    2
    19    19    20    1
    20    20    21    1
    21    21    22    1
    22    21    23    1
    23    23    24    1
    24    24    25    1
    25    24    26    1
    26    16    27    1
    27    27    28    1
    28    28    29    1
    29    29    30    1
    30    30    31    1
    31    30    12    1
    32    30    15    1
    33    26    19    1
    34     1    32    1
    35     1    33    1
    36     1    34    1
    37     3    35    1
    38     4    36    1
    39     7    37    1
    40     8    38    1
    41     9    39    1
    42    10    40    1
    43    11    41    1
    44    11    42    1
    45    11    43    1
    46    12    44    1
    47    13    45    1
    48    13    46    1
    49    14    47    1
    50    14    48    1
    51    15    49    1
    52    17    50    1
    53    18    51    1
    54    20    52    1
    55    20    53    1
    56    21    54    1
    57    22    55    1
    58    23    56    1
    59    23    57    1
    60    24    58    1
    61    25    59    1
    62    26    60    1
    63    26    61    1
    64    27    62    1
    65    27    63    1
    66    28    64    1
    67    28    65    1
    68    29    66    1
    69    29    67    1
    70    31    68    1
    71    31    69    1
    72    31    70    1
