@<TRIPOS>MOLECULE
*****
 41 44 0 0 0
SMALL
GASTEIGER

@<TRIPOS>ATOM
      1 C          -7.2790    1.2134   -0.8196 C.3     1  UNL1        0.0596
      2 S          -6.6729    0.0690    0.4273 S.O2    1  UNL1       -0.0059
      3 O          -7.2056   -1.2964    0.0674 O.2     1  UNL1       -0.1696
      4 O          -7.2209    0.5035    1.7391 O.2     1  UNL1       -0.1696
      5 C          -4.9257    0.0337    0.3781 C.ar    1  UNL1        0.0879
      6 C          -4.1835    0.9358    1.1061 C.ar    1  UNL1       -0.0363
      7 C          -2.7910    0.9087    1.0587 C.ar    1  UNL1       -0.0521
      8 C          -2.1343   -0.0176    0.2855 C.ar    1  UNL1       -0.0128
      9 C          -0.6883   -0.0001    0.2463 C.ar    1  UNL1        0.0449
     10 C           0.0495    0.1806    1.3977 C.ar    1  UNL1        0.0424
     11 N           1.3768    0.2110    1.3401 N.ar    1  UNL1       -0.2233
     12 C           2.0443    0.0706    0.1902 C.ar    1  UNL1        0.2028
     13 N           3.4595    0.1308    0.1654 N.pl3   1  UNL1       -0.3074
     14 C           4.3471   -0.9491    0.5263 C.3     1  UNL1        0.0699
     15 C           5.7507   -0.5105    0.3231 C.ar    1  UNL1        0.1218
     16 C           6.4528   -0.7166   -0.8354 C.ar    1  UNL1       -0.0192
     17 C           7.7066   -0.1499   -0.5892 C.ar    1  UNL1       -0.0236
     18 C           7.6834    0.3584    0.6912 C.ar    1  UNL1        0.0921
     19 O           6.4778    0.1151    1.2025 O.2     1  UNL1       -0.4662
     20 N           1.3702   -0.1096   -0.9642 N.ar    1  UNL1       -0.2530
     21 C           1.7957   -0.2726   -2.2392 C.ar    1  UNL1        0.1267
     22 N           0.6707   -0.4058   -2.9717 N.ar    1  UNL1       -0.1371
     23 N          -0.3854   -0.3277   -2.1851 N.ar    1  UNL1       -0.1289
     24 C           0.0315   -0.1423   -0.9218 C.ar    1  UNL1        0.1726
     25 C          -2.8538   -0.9257   -0.4472 C.ar    1  UNL1       -0.0521
     26 C          -4.2329   -0.8888   -0.3918 C.ar    1  UNL1       -0.0363
     27 H          -8.3664    1.1772   -0.9196 H       1  UNL1        0.0468
     28 H          -6.7412    0.9866   -1.7628 H       1  UNL1        0.0468
     29 H          -6.9723    2.2446   -0.4816 H       1  UNL1        0.0468
     30 H          -4.7088    1.6697    1.7176 H       1  UNL1        0.0637
     31 H          -2.2232    1.6320    1.6421 H       1  UNL1        0.0624
     32 H          -0.5231    0.2891    2.3105 H       1  UNL1        0.0838
     33 H           3.8764    1.0348   -0.1401 H       1  UNL1        0.1493
     34 H           4.1522   -1.1759    1.6146 H       1  UNL1        0.0543
     35 H           4.1262   -1.8760   -0.0455 H       1  UNL1        0.0543
     36 H           6.1422   -1.1998   -1.7448 H       1  UNL1        0.0652
     37 H           8.5494   -0.1112   -1.2689 H       1  UNL1        0.0649
     38 H           8.4557    0.8693    1.2432 H       1  UNL1        0.1029
     39 H           2.8230   -0.2950   -2.6169 H       1  UNL1        0.1052
     40 H          -2.3881   -1.6778   -1.0709 H       1  UNL1        0.0624
     41 H          -4.8453   -1.5855   -0.9513 H       1  UNL1        0.0637
@<TRIPOS>BOND
     1     1     2    1
     2     2     3    2
     3     2     4    2
     4     2     5    1
     5     5     6   ar
     6     6     7   ar
     7     7     8   ar
     8     8     9    1
     9     9    10   ar
    10    10    11   ar
    11    11    12   ar
    12    12    13    1
    13    13    14    1
    14    14    15    1
    15    15    16   ar
    16    16    17   ar
    17    17    18   ar
    18    18    19   ar
    19    12    20   ar
    20    20    21   ar
    21    21    22   ar
    22    22    23   ar
    23    23    24   ar
    24     8    25   ar
    25    25    26   ar
    26    26     5   ar
    27    24     9   ar
    28    19    15   ar
    29    24    20   ar
    30     1    27    1
    31     1    28    1
    32     1    29    1
    33     6    30    1
    34     7    31    1
    35    10    32    1
    36    13    33    1
    37    14    34    1
    38    14    35    1
    39    16    36    1
    40    17    37    1
    41    18    38    1
    42    21    39    1
    43    25    40    1
    44    26    41    1
