
     RDKit          3D

 48 52  0  0  0  0  0  0  0  0999 V2000
   -3.5817   -3.5931   -1.6789 C   0  0  0  0  0  0  0  0  0  0  0  0
   -3.1643   -3.0444   -0.3663 C   0  0  0  0  0  0  0  0  0  0  0  0
   -3.8113   -3.5032    0.7624 C   0  0  0  0  0  0  0  0  0  0  0  0
   -3.3902   -2.9830    1.9746 C   0  0  0  0  0  0  0  0  0  0  0  0
   -2.3631   -2.0496    1.9932 C   0  0  0  0  0  0  0  0  0  0  0  0
   -1.7487   -1.6218    0.8422 C   0  0  0  0  0  0  0  0  0  0  0  0
   -0.6700   -0.6648    0.8576 C   0  0  0  0  0  0  0  0  0  0  0  0
    0.6448   -0.9795    1.0860 N   0  0  0  0  0  0  0  0  0  0  0  0
    1.3542    0.1294    1.0281 C   0  0  0  0  0  0  0  0  0  0  0  0
    2.8301    0.3288    1.2107 C   0  0  0  0  0  0  0  0  0  0  0  0
    3.5668    0.1166    0.0059 N   0  0  0  0  0  0  0  0  0  0  0  0
    4.9634    0.2675   -0.0092 C   0  0  0  0  0  0  0  0  0  0  0  0
    5.6368    0.6355    1.1356 C   0  0  0  0  0  0  0  0  0  0  0  0
    7.0246    0.7880    1.1171 C   0  0  0  0  0  0  0  0  0  0  0  0
    7.7457    0.5771   -0.0326 C   0  0  0  0  0  0  0  0  0  0  0  0
    7.0800    0.2111   -1.1729 C   0  0  0  0  0  0  0  0  0  0  0  0
    5.6993    0.0600   -1.1560 C   0  0  0  0  0  0  0  0  0  0  0  0
    5.0618   -0.3085   -2.3030 F   0  0  0  0  0  0  0  0  0  0  0  0
    0.5214    1.1241    0.7715 N   0  0  0  0  0  0  0  0  0  0  0  0
   -0.7672    0.6949    0.6527 C   0  0  0  0  0  0  0  0  0  0  0  0
   -1.9193    1.5369    0.3513 C   0  0  0  0  0  0  0  0  0  0  0  0
   -1.6560    2.8542   -0.0550 C   0  0  0  0  0  0  0  0  0  0  0  0
   -2.6662    3.7383   -0.3691 C   0  0  0  0  0  0  0  0  0  0  0  0
   -3.9840    3.2698   -0.2677 C   0  0  0  0  0  0  0  0  0  0  0  0
   -5.1528    3.9090   -0.5093 N   0  0  0  0  0  0  0  0  0  0  0  0
   -6.1303    3.0177   -0.2625 C   0  0  0  0  0  0  0  0  0  0  0  0
   -5.5513    1.8598    0.1219 N   0  0  0  0  0  0  0  0  0  0  0  0
   -4.2218    2.0061    0.1217 N   0  0  0  0  0  0  0  0  0  0  0  0
   -3.2082    1.1737    0.4198 C   0  0  0  0  0  0  0  0  0  0  0  0
   -2.1689   -2.1347   -0.3226 N   0  0  0  0  0  0  0  0  0  0  0  0
   -4.2724   -2.8608   -2.1396 H   0  0  0  0  0  0  0  0  0  0  0  0
   -2.7339   -3.7491   -2.3749 H   0  0  0  0  0  0  0  0  0  0  0  0
   -4.1532   -4.5382   -1.5325 H   0  0  0  0  0  0  0  0  0  0  0  0
   -4.6138   -4.2386    0.7077 H   0  0  0  0  0  0  0  0  0  0  0  0
   -3.8960   -3.3390    2.8600 H   0  0  0  0  0  0  0  0  0  0  0  0
   -2.0798   -1.6804    2.9613 H   0  0  0  0  0  0  0  0  0  0  0  0
    0.9903   -1.9313    1.2665 H   0  0  0  0  0  0  0  0  0  0  0  0
    3.2524   -0.3203    2.0033 H   0  0  0  0  0  0  0  0  0  0  0  0
    3.0275    1.3898    1.5334 H   0  0  0  0  0  0  0  0  0  0  0  0
    3.0797   -0.1480   -0.8679 H   0  0  0  0  0  0  0  0  0  0  0  0
    5.1429    0.8216    2.0791 H   0  0  0  0  0  0  0  0  0  0  0  0
    7.5624    1.0755    1.9979 H   0  0  0  0  0  0  0  0  0  0  0  0
    8.8312    0.7110   -0.0108 H   0  0  0  0  0  0  0  0  0  0  0  0
    7.6254    0.0375   -2.0831 H   0  0  0  0  0  0  0  0  0  0  0  0
   -0.6191    3.1801   -0.1187 H   0  0  0  0  0  0  0  0  0  0  0  0
   -2.4380    4.7544   -0.6801 H   0  0  0  0  0  0  0  0  0  0  0  0
   -7.2033    3.2375   -0.3663 H   0  0  0  0  0  0  0  0  0  0  0  0
   -3.4760    0.1823    0.7180 H   0  0  0  0  0  0  0  0  0  0  0  0
  1  2  1  0
  2  3  2  0
  3  4  1  0
  4  5  2  0
  5  6  1  0
  6  7  1  0
  7  8  1  0
  8  9  1  0
  9 10  1  0
 10 11  1  0
 11 12  1  0
 12 13  2  0
 13 14  1  0
 14 15  2  0
 15 16  1  0
 16 17  2  0
 17 18  1  0
  9 19  2  0
 19 20  1  0
 20 21  1  0
 21 22  1  0
 22 23  2  0
 23 24  1  0
 24 25  2  0
 25 26  1  0
 26 27  2  0
 27 28  1  0
 28 29  1  0
  6 30  2  0
 30  2  1  0
 20  7  2  0
 29 21  2  0
 17 12  1  0
 28 24  1  0
  1 31  1  0
  1 32  1  0
  1 33  1  0
  3 34  1  0
  4 35  1  0
  5 36  1  0
  8 37  1  0
 10 38  1  0
 10 39  1  0
 11 40  1  0
 13 41  1  0
 14 42  1  0
 15 43  1  0
 16 44  1  0
 22 45  1  0
 23 46  1  0
 26 47  1  0
 29 48  1  0
M  END
$$$$
