@<TRIPOS>MOLECULE
*****
 48 52 0 0 0
SMALL
GASTEIGER

@<TRIPOS>ATOM
      1 C          -3.5817   -3.5931   -1.6789 C.3     1  UNL1       -0.0223
      2 C          -3.1643   -3.0444   -0.3663 C.ar    1  UNL1        0.0390
      3 C          -3.8113   -3.5032    0.7624 C.ar    1  UNL1       -0.0406
      4 C          -3.3902   -2.9830    1.9746 C.ar    1  UNL1       -0.0580
      5 C          -2.3631   -2.0496    1.9932 C.ar    1  UNL1       -0.0342
      6 C          -1.7487   -1.6218    0.8422 C.ar    1  UNL1        0.0895
      7 C          -0.6700   -0.6648    0.8576 C.ar    1  UNL1        0.0926
      8 N           0.6448   -0.9795    1.0860 N.ar    1  UNL1       -0.3389
      9 C           1.3542    0.1294    1.0281 C.ar    1  UNL1        0.1254
     10 C           2.8301    0.3288    1.2107 C.3     1  UNL1        0.0673
     11 N           3.5668    0.1166    0.0059 N.pl3   1  UNL1       -0.3345
     12 C           4.9634    0.2675   -0.0092 C.ar    1  UNL1        0.0631
     13 C           5.6368    0.6355    1.1356 C.ar    1  UNL1       -0.0380
     14 C           7.0246    0.7880    1.1171 C.ar    1  UNL1       -0.0598
     15 C           7.7457    0.5771   -0.0326 C.ar    1  UNL1       -0.0589
     16 C           7.0800    0.2111   -1.1729 C.ar    1  UNL1       -0.0246
     17 C           5.6993    0.0600   -1.1560 C.ar    1  UNL1        0.1441
     18 F           5.0618   -0.3085   -2.3030 F       1  UNL1       -0.2036
     19 N           0.5214    1.1241    0.7715 N.ar    1  UNL1       -0.2302
     20 C          -0.7672    0.6949    0.6527 C.ar    1  UNL1        0.0998
     21 C          -1.9193    1.5369    0.3513 C.ar    1  UNL1        0.0208
     22 C          -1.6560    2.8542   -0.0550 C.ar    1  UNL1       -0.0475
     23 C          -2.6662    3.7383   -0.3691 C.ar    1  UNL1       -0.0167
     24 C          -3.9840    3.2698   -0.2677 C.ar    1  UNL1        0.1557
     25 N          -5.1528    3.9090   -0.5093 N.ar    1  UNL1       -0.2149
     26 C          -6.1303    3.0177   -0.2625 C.ar    1  UNL1        0.1390
     27 N          -5.5513    1.8598    0.1219 N.ar    1  UNL1       -0.1535
     28 N          -4.2218    2.0061    0.1217 N.ar    1  UNL1       -0.2198
     29 C          -3.2082    1.1737    0.4198 C.ar    1  UNL1        0.0407
     30 N          -2.1689   -2.1347   -0.3226 N.ar    1  UNL1       -0.2503
     31 H          -4.2724   -2.8608   -2.1396 H       1  UNL1        0.0292
     32 H          -2.7339   -3.7491   -2.3749 H       1  UNL1        0.0292
     33 H          -4.1532   -4.5382   -1.5325 H       1  UNL1        0.0292
     34 H          -4.6138   -4.2386    0.7077 H       1  UNL1        0.0635
     35 H          -3.8960   -3.3390    2.8600 H       1  UNL1        0.0619
     36 H          -2.0798   -1.6804    2.9613 H       1  UNL1        0.0639
     37 H           0.9903   -1.9313    1.2665 H       1  UNL1        0.1672
     38 H           3.2524   -0.3203    2.0033 H       1  UNL1        0.0541
     39 H           3.0275    1.3898    1.5334 H       1  UNL1        0.0541
     40 H           3.0797   -0.1480   -0.8679 H       1  UNL1        0.1466
     41 H           5.1429    0.8216    2.0791 H       1  UNL1        0.0637
     42 H           7.5624    1.0755    1.9979 H       1  UNL1        0.0618
     43 H           8.8312    0.7110   -0.0108 H       1  UNL1        0.0618
     44 H           7.6254    0.0375   -2.0831 H       1  UNL1        0.0647
     45 H          -0.6191    3.1801   -0.1187 H       1  UNL1        0.0626
     46 H          -2.4380    4.7544   -0.6801 H       1  UNL1        0.0655
     47 H          -7.2033    3.2375   -0.3663 H       1  UNL1        0.1066
     48 H          -3.4760    0.1823    0.7180 H       1  UNL1        0.0837
@<TRIPOS>BOND
     1     1     2    1
     2     2     3   ar
     3     3     4   ar
     4     4     5   ar
     5     5     6   ar
     6     6     7    1
     7     7     8   ar
     8     8     9   ar
     9     9    10    1
    10    10    11    1
    11    11    12    1
    12    12    13   ar
    13    13    14   ar
    14    14    15   ar
    15    15    16   ar
    16    16    17   ar
    17    17    18    1
    18     9    19   ar
    19    19    20   ar
    20    20    21    1
    21    21    22   ar
    22    22    23   ar
    23    23    24   ar
    24    24    25   ar
    25    25    26   ar
    26    26    27   ar
    27    27    28   ar
    28    28    29   ar
    29     6    30   ar
    30    30     2   ar
    31    20     7   ar
    32    29    21   ar
    33    17    12   ar
    34    28    24   ar
    35     1    31    1
    36     1    32    1
    37     1    33    1
    38     3    34    1
    39     4    35    1
    40     5    36    1
    41     8    37    1
    42    10    38    1
    43    10    39    1
    44    11    40    1
    45    13    41    1
    46    14    42    1
    47    15    43    1
    48    16    44    1
    49    22    45    1
    50    23    46    1
    51    26    47    1
    52    29    48    1
