@<TRIPOS>MOLECULE
*****
 33 33 0 0 0
SMALL
GASTEIGER

@<TRIPOS>ATOM
      1 C          -1.7824   -0.4003   -1.0341 C.3     1  UNL1        0.1130
      2 C          -2.8971    0.2595   -0.2687 C.3     1  UNL1        0.0730
      3 O          -3.8284   -0.7453    0.0278 O.3     1  UNL1       -0.3924
      4 O          -0.7996    0.4826   -1.3861 O.3     1  UNL1       -0.3412
      5 C          -0.0749    1.0319   -0.3555 C.3     1  UNL1        0.1799
      6 O          -0.7330    2.0681    0.2878 O.3     1  UNL1       -0.3526
      7 C          -0.0752    3.2993    0.0698 C.3     1  UNL1        0.0395
      8 C           0.5091    0.0254    0.5900 C.3     1  UNL1        0.1023
      9 N           1.7235   -0.5069    0.0007 N.am    1  UNL1       -0.3053
     10 C           3.0163   -0.3382    0.5675 C.2     1  UNL1        0.2104
     11 C           4.1903   -0.9307   -0.1289 C.3     1  UNL1        0.0122
     12 O           3.1132    0.3038    1.6322 O.2     1  UNL1       -0.2761
     13 C          -0.3952   -1.1269    0.9092 C.3     1  UNL1        0.1065
     14 O          -1.2048   -0.9062    2.0345 O.3     1  UNL1       -0.3871
     15 C          -1.2064   -1.5668   -0.2709 C.3     1  UNL1        0.1112
     16 O          -0.3639   -2.2429   -1.1657 O.3     1  UNL1       -0.3865
     17 H          -2.2064   -0.8057   -1.9740 H       1  UNL1        0.0647
     18 H          -3.3645    1.0424   -0.8653 H       1  UNL1        0.0584
     19 H          -2.5642    0.6716    0.6879 H       1  UNL1        0.0584
     20 H          -4.5411   -0.7607   -0.6429 H       1  UNL1        0.2095
     21 H           0.8074    1.5233   -0.8655 H       1  UNL1        0.0930
     22 H           0.9621    3.2433    0.4600 H       1  UNL1        0.0525
     23 H           0.0261    3.4726   -1.0380 H       1  UNL1        0.0525
     24 H          -0.6166    4.1175    0.5372 H       1  UNL1        0.0525
     25 H           0.7526    0.5766    1.5402 H       1  UNL1        0.0575
     26 H           1.6171   -1.0333   -0.8782 H       1  UNL1        0.1492
     27 H           4.5728   -0.2327   -0.8837 H       1  UNL1        0.0322
     28 H           3.8394   -1.8569   -0.6176 H       1  UNL1        0.0322
     29 H           4.9573   -1.1136    0.6453 H       1  UNL1        0.0322
     30 H           0.2494   -1.9944    1.1988 H       1  UNL1        0.0640
     31 H          -0.7777   -0.3343    2.6970 H       1  UNL1        0.2100
     32 H          -2.0026   -2.2468    0.0617 H       1  UNL1        0.0646
     33 H          -0.9024   -2.9754   -1.5727 H       1  UNL1        0.2100
@<TRIPOS>BOND
     1     1     2    1
     2     2     3    1
     3     1     4    1
     4     4     5    1
     5     5     6    1
     6     6     7    1
     7     5     8    1
     8     8     9    1
     9     9    10   am
    10    10    11    1
    11    10    12    2
    12     8    13    1
    13    13    14    1
    14    13    15    1
    15    15    16    1
    16    15     1    1
    17     1    17    1
    18     2    18    1
    19     2    19    1
    20     3    20    1
    21     5    21    1
    22     7    22    1
    23     7    23    1
    24     7    24    1
    25     8    25    1
    26     9    26    1
    27    11    27    1
    28    11    28    1
    29    11    29    1
    30    13    30    1
    31    14    31    1
    32    15    32    1
    33    16    33    1
