@<TRIPOS>MOLECULE
*****
 48 53 0 0 0
SMALL
GASTEIGER

@<TRIPOS>ATOM
      1 C          -2.7206   -4.7704    0.7529 C.3     1  UNL1        0.0037
      2 N          -1.9858   -3.5560    0.5372 N.am    1  UNL1       -0.2942
      3 C          -0.7109   -3.2690    1.1765 C.3     1  UNL1        0.0910
      4 C           0.1642   -2.5365    0.2292 C.2     1  UNL1        0.2344
      5 O           1.3519   -2.8429   -0.0133 O.2     1  UNL1       -0.2738
      6 N          -0.3850   -1.4078   -0.4505 N.am    1  UNL1       -0.2758
      7 C          -1.8105   -1.3303   -0.7095 C.3     1  UNL1        0.1074
      8 C          -2.4185   -0.1741    0.0174 C.3     1  UNL1        0.0019
      9 C          -1.6069    1.0418   -0.2936 C.ar    1  UNL1       -0.0147
     10 C          -0.3094    0.9868   -0.7138 C.ar    1  UNL1        0.0456
     11 N           0.0987    2.2540   -0.8954 N.ar    1  UNL1       -0.3560
     12 C          -0.8864    3.1228   -0.6081 C.ar    1  UNL1        0.0470
     13 C          -0.9625    4.5024   -0.6363 C.ar    1  UNL1       -0.0378
     14 C          -2.1384    5.1019   -0.2766 C.ar    1  UNL1       -0.0598
     15 C          -3.2457    4.3508    0.1128 C.ar    1  UNL1       -0.0611
     16 C          -3.1559    2.9758    0.1364 C.ar    1  UNL1       -0.0523
     17 C          -1.9759    2.3601   -0.2241 C.ar    1  UNL1        0.0032
     18 C           0.4346   -0.3063   -0.9064 C.3     1  UNL1        0.0925
     19 C           1.7360   -0.2240   -0.2400 C.ar    1  UNL1       -0.0175
     20 C           1.8198   -0.3707    1.1271 C.ar    1  UNL1       -0.0527
     21 C           3.0346   -0.2961    1.7691 C.ar    1  UNL1       -0.0158
     22 C           4.1899   -0.0705    1.0324 C.ar    1  UNL1        0.1662
     23 C           4.1385    0.0805   -0.3374 C.ar    1  UNL1        0.1666
     24 C           2.8968   -0.0015   -0.9436 C.ar    1  UNL1       -0.0108
     25 O           5.4348    0.2906   -0.7895 O.3     1  UNL1       -0.4526
     26 C           6.1597    0.7348    0.3424 C.3     1  UNL1        0.2332
     27 O           5.5209    0.0498    1.4000 O.3     1  UNL1       -0.4526
     28 C          -2.5169   -2.5667   -0.3468 C.2     1  UNL1        0.2366
     29 O          -3.6556   -2.7689   -0.8416 O.2     1  UNL1       -0.2735
     30 H          -2.4642   -5.4610   -0.0892 H       1  UNL1        0.0429
     31 H          -3.8160   -4.5474    0.6362 H       1  UNL1        0.0429
     32 H          -2.5408   -5.2369    1.7217 H       1  UNL1        0.0429
     33 H          -0.2239   -4.1709    1.5721 H       1  UNL1        0.0560
     34 H          -0.8881   -2.5688    2.0406 H       1  UNL1        0.0560
     35 H          -1.9088   -1.1211   -1.8072 H       1  UNL1        0.0600
     36 H          -3.4465   -0.0176   -0.4039 H       1  UNL1        0.0337
     37 H          -2.5058   -0.3371    1.1060 H       1  UNL1        0.0337
     38 H           1.0701    2.5188   -1.2218 H       1  UNL1        0.1657
     39 H          -0.1023    5.0930   -0.9391 H       1  UNL1        0.0638
     40 H          -2.2352    6.1831   -0.2866 H       1  UNL1        0.0618
     41 H          -4.1737    4.8393    0.3961 H       1  UNL1        0.0618
     42 H          -4.0207    2.3755    0.4410 H       1  UNL1        0.0624
     43 H           0.5572   -0.4149   -2.0020 H       1  UNL1        0.0616
     44 H           0.9247   -0.5475    1.7155 H       1  UNL1        0.0622
     45 H           3.1269   -0.4082    2.8445 H       1  UNL1        0.0655
     46 H           2.8852    0.1218   -2.0308 H       1  UNL1        0.0659
     47 H           6.0259    1.8412    0.4717 H       1  UNL1        0.1166
     48 H           7.2406    0.4981    0.2663 H       1  UNL1        0.1166
@<TRIPOS>BOND
     1     1     2    1
     2     2     3    1
     3     3     4    1
     4     4     5    2
     5     4     6   am
     6     6     7    1
     7     7     8    1
     8     8     9    1
     9     9    10   ar
    10    10    11   ar
    11    11    12   ar
    12    12    13   ar
    13    13    14   ar
    14    14    15   ar
    15    15    16   ar
    16    16    17   ar
    17    10    18    1
    18    18    19    1
    19    19    20   ar
    20    20    21   ar
    21    21    22   ar
    22    22    23   ar
    23    23    24   ar
    24    23    25    1
    25    25    26    1
    26    26    27    1
    27     7    28    1
    28    28    29    2
    29    28     2   am
    30    18     6    1
    31    24    19   ar
    32    17     9   ar
    33    27    22    1
    34    17    12   ar
    35     1    30    1
    36     1    31    1
    37     1    32    1
    38     3    33    1
    39     3    34    1
    40     7    35    1
    41     8    36    1
    42     8    37    1
    43    11    38    1
    44    13    39    1
    45    14    40    1
    46    15    41    1
    47    16    42    1
    48    18    43    1
    49    20    44    1
    50    21    45    1
    51    24    46    1
    52    26    47    1
    53    26    48    1
