
     RDKit          3D

 17 16  0  0  0  0  0  0  0  0999 V2000
   -1.3800    0.9384    0.3122 C   0  0  0  0  0  0  0  0  0  0  0  0
   -0.9982   -0.3113   -0.4621 C   0  0  1  0  0  0  0  0  0  0  0  0
   -1.0689   -0.0069   -1.8028 O   0  0  0  0  0  0  0  0  0  0  0  0
    0.3781   -0.8020   -0.0553 C   0  0  2  0  0  0  0  0  0  0  0  0
    0.3594   -1.0966    1.3635 N   0  0  0  0  0  0  0  0  0  0  0  0
    1.3520    0.2374   -0.4212 C   0  0  0  0  0  0  0  0  0  0  0  0
    2.1744    0.8757    0.5014 O   0  0  0  0  0  0  0  0  0  0  0  0
    1.4432    0.5637   -1.6328 O   0  0  0  0  0  0  0  0  0  0  0  0
   -0.4854    1.3785    0.8032 H   0  0  0  0  0  0  0  0  0  0  0  0
   -1.8553    1.7121   -0.3295 H   0  0  0  0  0  0  0  0  0  0  0  0
   -2.1211    0.7039    1.1134 H   0  0  0  0  0  0  0  0  0  0  0  0
   -1.7138   -1.1272   -0.1728 H   0  0  0  0  0  0  0  0  0  0  0  0
   -0.9256   -0.8254   -2.3378 H   0  0  0  0  0  0  0  0  0  0  0  0
    0.5902   -1.7264   -0.5920 H   0  0  0  0  0  0  0  0  0  0  0  0
    0.8471   -0.3478    1.9132 H   0  0  0  0  0  0  0  0  0  0  0  0
    0.9089   -1.9835    1.5685 H   0  0  0  0  0  0  0  0  0  0  0  0
    2.4949    1.8174    0.2308 H   0  0  0  0  0  0  0  0  0  0  0  0
  1  2  1  0
  2  3  1  0
  2  4  1  0
  4  5  1  0
  4  6  1  0
  6  7  1  0
  6  8  2  0
  1  9  1  0
  1 10  1  0
  1 11  1  0
  2 12  1  6
  3 13  1  0
  4 14  1  6
  5 15  1  0
  5 16  1  0
  7 17  1  0
M  END
$$$$
