@<TRIPOS>MOLECULE
*****
 17 16 0 0 0
SMALL
GASTEIGER

@<TRIPOS>ATOM
      1 CG2        -1.3800    0.9384    0.3122 C.3     1  THR1       -0.0369
      2 CB         -0.9982   -0.3113   -0.4621 C.3     1  THR1        0.0779
      3 OG1        -1.0689   -0.0069   -1.8028 O.3     1  THR1       -0.3900
      4 CA          0.3781   -0.8020   -0.0553 C.3     1  THR1        0.1291
      5 N           0.3594   -1.0966    1.3635 N.3     1  THR1       -0.3164
      6 C           1.3520    0.2374   -0.4212 C.2     1  THR1        0.3243
      7 O           2.1744    0.8757    0.5014 O.3     1  THR1       -0.4795
      8 OXT         1.4432    0.5637   -1.6328 O.2     1  THR1       -0.2492
      9 HG21       -0.4854    1.3785    0.8032 H       1  THR1        0.0255
     10 HG22       -1.8553    1.7121   -0.3295 H       1  THR1        0.0255
     11 HG23       -2.1211    0.7039    1.1134 H       1  THR1        0.0255
     12 HB         -1.7138   -1.1272   -0.1728 H       1  THR1        0.0611
     13 HG1        -0.9256   -0.8254   -2.3378 H       1  THR1        0.2098
     14 HA          0.5902   -1.7264   -0.5920 H       1  THR1        0.0600
     15 H1          0.8471   -0.3478    1.9132 H       1  THR1        0.1190
     16 H2          0.9089   -1.9835    1.5685 H       1  THR1        0.1190
     17 H           2.4949    1.8174    0.2308 H       1  THR1        0.2951
@<TRIPOS>BOND
     1     1     2    1
     2     2     3    1
     3     2     4    1
     4     4     5    1
     5     4     6    1
     6     6     7    1
     7     6     8    2
     8     1     9    1
     9     1    10    1
    10     1    11    1
    11     2    12    1
    12     3    13    1
    13     4    14    1
    14     5    15    1
    15     5    16    1
    16     7    17    1
