@<TRIPOS>MOLECULE
*****
 64 67 0 0 0
SMALL
GASTEIGER

@<TRIPOS>ATOM
      1 C           5.4639    3.0916   -0.7229 C.3     1  UNL1        0.0332
      2 C           4.5468    2.0129   -1.2076 C.2     1  UNL1        0.3042
      3 O           4.5873    1.5876   -2.3700 O.2     1  UNL1       -0.2512
      4 O           3.6440    1.4955   -0.3221 O.3     1  UNL1       -0.4609
      5 C           2.7094    0.4651   -0.6433 C.3     1  UNL1        0.1105
      6 C           1.3341    1.0561   -0.4169 C.3     1  UNL1       -0.0112
      7 C           0.2647    0.0259   -0.2294 C.3     1  UNL1       -0.0257
      8 C          -1.1015    0.5847   -0.1492 C.3     1  UNL1       -0.0251
      9 C          -1.2185    1.8116    0.7087 C.3     1  UNL1       -0.0590
     10 C          -1.4838    1.0253   -1.5730 C.3     1  UNL1       -0.0447
     11 C          -2.8892    1.5209   -1.6622 C.3     1  UNL1       -0.0258
     12 C          -3.9278    0.6552   -1.0655 C.3     1  UNL1        0.0606
     13 O          -5.0189    1.4848   -0.7105 O.3     1  UNL1       -0.3912
     14 C          -3.5261   -0.0820    0.1743 C.3     1  UNL1       -0.0056
     15 C          -3.9866    0.6493    1.3930 C.3     1  UNL1       -0.0572
     16 C          -4.3158   -1.4079    0.1429 C.3     1  UNL1       -0.0572
     17 C          -2.0871   -0.4904    0.1872 C.3     1  UNL1       -0.0278
     18 C          -1.7775   -1.2320    1.4556 C.3     1  UNL1       -0.0486
     19 C          -0.4393   -1.9205    1.2070 C.3     1  UNL1       -0.0461
     20 C           0.6340   -0.9398    0.8877 C.3     1  UNL1       -0.0156
     21 C           0.9915   -0.2363    2.1727 C.3     1  UNL1       -0.0584
     22 C           1.8289   -1.6460    0.3769 C.3     1  UNL1        0.0454
     23 C           1.6268   -2.2968   -0.9735 C.3     1  UNL1       -0.0513
     24 C           2.4842   -2.6294    1.2452 C.2     1  UNL1        0.1628
     25 O           2.1192   -3.3020    2.2296 O.2     1  UNL1       -0.2921
     26 C           3.8378   -2.6739    0.6485 C.2     1  UNL1       -0.0221
     27 C           4.1073   -1.4934    0.1072 C.2     1  UNL1       -0.0732
     28 C           2.9582   -0.6365    0.3260 C.3     1  UNL1        0.0275
     29 H           5.9839    3.6002   -1.5500 H       1  UNL1        0.0342
     30 H           4.8271    3.8110   -0.1302 H       1  UNL1        0.0342
     31 H           6.2218    2.7051   -0.0289 H       1  UNL1        0.0342
     32 H           2.8740    0.2051   -1.6919 H       1  UNL1        0.0740
     33 H           1.3876    1.8285    0.3483 H       1  UNL1        0.0304
     34 H           1.1022    1.6004   -1.3807 H       1  UNL1        0.0304
     35 H           0.2965   -0.6049   -1.1712 H       1  UNL1        0.0313
     36 H          -0.5060    2.5683    0.2639 H       1  UNL1        0.0235
     37 H          -2.2216    2.2727    0.5480 H       1  UNL1        0.0235
     38 H          -0.9770    1.6640    1.7607 H       1  UNL1        0.0235
     39 H          -1.4185    0.0922   -2.1827 H       1  UNL1        0.0271
     40 H          -0.8277    1.7978   -1.9672 H       1  UNL1        0.0271
     41 H          -3.1112    1.5941   -2.7701 H       1  UNL1        0.0290
     42 H          -2.9406    2.5992   -1.3280 H       1  UNL1        0.0290
     43 H          -4.3617   -0.0363   -1.8475 H       1  UNL1        0.0599
     44 H          -5.2804    2.0520   -1.4784 H       1  UNL1        0.2098
     45 H          -4.8183    0.1167    1.9444 H       1  UNL1        0.0236
     46 H          -4.4603    1.6402    1.1244 H       1  UNL1        0.0236
     47 H          -3.2048    0.8031    2.1632 H       1  UNL1        0.0236
     48 H          -3.7983   -2.1700   -0.4393 H       1  UNL1        0.0236
     49 H          -5.2991   -1.2052   -0.3464 H       1  UNL1        0.0236
     50 H          -4.5215   -1.7107    1.1969 H       1  UNL1        0.0236
     51 H          -1.9837   -1.2605   -0.6396 H       1  UNL1        0.0312
     52 H          -1.7776   -0.6349    2.3619 H       1  UNL1        0.0268
     53 H          -2.5367   -2.0290    1.5659 H       1  UNL1        0.0268
     54 H          -0.5901   -2.7321    0.4992 H       1  UNL1        0.0271
     55 H          -0.1678   -2.3712    2.2078 H       1  UNL1        0.0271
     56 H           1.4278    0.7473    2.0702 H       1  UNL1        0.0235
     57 H           1.7248   -0.8884    2.7189 H       1  UNL1        0.0235
     58 H           0.1308   -0.1476    2.8744 H       1  UNL1        0.0235
     59 H           1.9905   -1.6282   -1.8002 H       1  UNL1        0.0240
     60 H           2.2507   -3.2219   -1.0735 H       1  UNL1        0.0240
     61 H           0.5858   -2.6220   -1.1524 H       1  UNL1        0.0240
     62 H           4.5440   -3.5120    0.6297 H       1  UNL1        0.0649
     63 H           5.0156   -1.1912   -0.4130 H       1  UNL1        0.0577
     64 H           3.0733   -0.2114    1.3563 H       1  UNL1        0.0389
@<TRIPOS>BOND
     1     1     2    1
     2     2     3    2
     3     2     4    1
     4     4     5    1
     5     5     6    1
     6     6     7    1
     7     7     8    1
     8     8     9    1
     9     8    10    1
    10    10    11    1
    11    11    12    1
    12    12    13    1
    13    12    14    1
    14    14    15    1
    15    14    16    1
    16    14    17    1
    17    17    18    1
    18    18    19    1
    19    19    20    1
    20    20    21    1
    21    20    22    1
    22    22    23    1
    23    22    24    1
    24    24    25    2
    25    24    26    1
    26    26    27    2
    27    27    28    1
    28    28     5    1
    29    20     7    1
    30    28    22    1
    31    17     8    1
    32     1    29    1
    33     1    30    1
    34     1    31    1
    35     5    32    1
    36     6    33    1
    37     6    34    1
    38     7    35    1
    39     9    36    1
    40     9    37    1
    41     9    38    1
    42    10    39    1
    43    10    40    1
    44    11    41    1
    45    11    42    1
    46    12    43    1
    47    13    44    1
    48    15    45    1
    49    15    46    1
    50    15    47    1
    51    16    48    1
    52    16    49    1
    53    16    50    1
    54    17    51    1
    55    18    52    1
    56    18    53    1
    57    19    54    1
    58    19    55    1
    59    21    56    1
    60    21    57    1
    61    21    58    1
    62    23    59    1
    63    23    60    1
    64    23    61    1
    65    26    62    1
    66    27    63    1
    67    28    64    1
