@<TRIPOS>MOLECULE
*****
 56 60 0 0 0
SMALL
GASTEIGER

@<TRIPOS>ATOM
      1 C          -4.9527   -0.3670   -1.2674 C.3     1  UNL1       -0.0464
      2 C          -4.8993    0.5264   -0.0847 C.3     1  UNL1        0.0226
      3 N          -4.0123    0.0096    0.9127 N.pl3   1  UNL1       -0.3206
      4 C          -2.6246   -0.2775    0.6636 C.ar    1  UNL1        0.1594
      5 N          -1.8639   -1.1602    0.4740 N.ar    1  UNL1       -0.2249
      6 C          -0.5711   -1.0865    0.2767 C.ar    1  UNL1        0.0803
      7 C           0.3196   -2.1551    0.0690 C.ar    1  UNL1       -0.0346
      8 C           1.6466   -1.9091   -0.1047 C.ar    1  UNL1       -0.0520
      9 C           2.2183   -0.6544   -0.0955 C.ar    1  UNL1       -0.0165
     10 C           3.6536   -0.4898   -0.2630 C.ar    1  UNL1       -0.0114
     11 C           4.1902    0.6131   -0.8898 C.ar    1  UNL1       -0.0376
     12 C           5.5736    0.6983   -0.9917 C.ar    1  UNL1        0.0085
     13 N           6.4077   -0.2222   -0.5196 N.ar    1  UNL1       -0.3149
     14 C           7.8303   -0.0658   -0.6570 C.3     1  UNL1        0.0289
     15 C           8.3199    0.7204    0.5582 C.3     1  UNL1       -0.0229
     16 C           9.8062    1.0135    0.6424 C.3     1  UNL1       -0.0483
     17 C           9.1615    0.0657    1.5931 C.3     1  UNL1       -0.0483
     18 C           5.9006   -1.2932    0.0899 C.ar    1  UNL1        0.2519
     19 O           6.6307   -2.2178    0.5698 O.2     1  UNL1       -0.2677
     20 C           4.5427   -1.4514    0.2308 C.ar    1  UNL1        0.0107
     21 C           1.3438    0.3961    0.1080 C.ar    1  UNL1       -0.0381
     22 C          -0.0193    0.1435    0.2880 C.ar    1  UNL1        0.0413
     23 S          -1.3975    1.1724    0.5853 S.2     1  UNL1       -0.0524
     24 C          -6.2640    0.8027    0.5164 C.3     1  UNL1       -0.0187
     25 C          -6.9657   -0.4279    0.9618 C.3     1  UNL1       -0.0249
     26 C          -8.4481   -0.1463    1.0036 C.3     1  UNL1        0.0480
     27 O          -8.9742    0.1599   -0.2233 O.3     1  UNL1       -0.3797
     28 C          -8.2774    1.0446   -0.9943 C.3     1  UNL1        0.0480
     29 C          -7.1449    1.6895   -0.2744 C.3     1  UNL1       -0.0249
     30 H          -5.6683   -0.0439   -2.0485 H       1  UNL1        0.0248
     31 H          -5.1205   -1.4125   -0.9418 H       1  UNL1        0.0248
     32 H          -3.9429   -0.3098   -1.7728 H       1  UNL1        0.0248
     33 H          -4.4915    1.5181   -0.4126 H       1  UNL1        0.0498
     34 H          -4.3615   -0.1750    1.8655 H       1  UNL1        0.1482
     35 H           0.0044   -3.1849    0.0404 H       1  UNL1        0.0639
     36 H           2.3428   -2.7473   -0.2674 H       1  UNL1        0.0624
     37 H           3.5299    1.3707   -1.2806 H       1  UNL1        0.0638
     38 H           5.9819    1.5878   -1.4960 H       1  UNL1        0.0810
     39 H           7.9883    0.5697   -1.5625 H       1  UNL1        0.0495
     40 H           8.3645   -1.0244   -0.7429 H       1  UNL1        0.0495
     41 H           7.6183    1.5212    0.9344 H       1  UNL1        0.0318
     42 H          10.4121    0.6125   -0.1870 H       1  UNL1        0.0269
     43 H          10.1102    2.0352    1.0069 H       1  UNL1        0.0269
     44 H           9.0414    0.4156    2.6614 H       1  UNL1        0.0269
     45 H           9.4003   -1.0106    1.5029 H       1  UNL1        0.0269
     46 H           4.0926   -2.3030    0.7146 H       1  UNL1        0.0678
     47 H           1.6865    1.3939    0.1329 H       1  UNL1        0.0635
     48 H          -6.0177    1.3719    1.4750 H       1  UNL1        0.0320
     49 H          -6.7451   -1.3203    0.3413 H       1  UNL1        0.0291
     50 H          -6.6537   -0.7085    1.9938 H       1  UNL1        0.0291
     51 H          -8.6626    0.6318    1.7401 H       1  UNL1        0.0560
     52 H          -8.9558   -1.1071    1.3271 H       1  UNL1        0.0560
     53 H          -7.9876    0.5315   -1.9294 H       1  UNL1        0.0560
     54 H          -8.9558    1.8789   -1.3288 H       1  UNL1        0.0560
     55 H          -6.5212    2.2964   -0.9691 H       1  UNL1        0.0291
     56 H          -7.6192    2.4804    0.3925 H       1  UNL1        0.0291
@<TRIPOS>BOND
     1     1     2    1
     2     2     3    1
     3     3     4    1
     4     4     5   ar
     5     5     6   ar
     6     6     7   ar
     7     7     8   ar
     8     8     9   ar
     9     9    10    1
    10    10    11   ar
    11    11    12   ar
    12    12    13   ar
    13    13    14    1
    14    14    15    1
    15    15    16    1
    16    16    17    1
    17    13    18   ar
    18    18    19    2
    19    18    20   ar
    20     9    21   ar
    21    21    22   ar
    22    22    23   ar
    23     2    24    1
    24    24    25    1
    25    25    26    1
    26    26    27    1
    27    27    28    1
    28    28    29    1
    29    23     4   ar
    30    29    24    1
    31    22     6   ar
    32    20    10   ar
    33    17    15    1
    34     1    30    1
    35     1    31    1
    36     1    32    1
    37     2    33    1
    38     3    34    1
    39     7    35    1
    40     8    36    1
    41    11    37    1
    42    12    38    1
    43    14    39    1
    44    14    40    1
    45    15    41    1
    46    16    42    1
    47    16    43    1
    48    17    44    1
    49    17    45    1
    50    20    46    1
    51    21    47    1
    52    24    48    1
    53    25    49    1
    54    25    50    1
    55    26    51    1
    56    26    52    1
    57    28    53    1
    58    28    54    1
    59    29    55    1
    60    29    56    1
