
     RDKit          3D

 56 60  0  0  0  0  0  0  0  0999 V2000
   -4.9527   -0.3670   -1.2674 C   0  0  0  0  0  0  0  0  0  0  0  0
   -4.8993    0.5264   -0.0847 C   0  0  2  0  0  0  0  0  0  0  0  0
   -4.0123    0.0096    0.9127 N   0  0  0  0  0  0  0  0  0  0  0  0
   -2.6246   -0.2775    0.6636 C   0  0  0  0  0  0  0  0  0  0  0  0
   -1.8639   -1.1602    0.4740 N   0  0  0  0  0  0  0  0  0  0  0  0
   -0.5711   -1.0865    0.2767 C   0  0  0  0  0  0  0  0  0  0  0  0
    0.3196   -2.1551    0.0690 C   0  0  0  0  0  0  0  0  0  0  0  0
    1.6466   -1.9091   -0.1047 C   0  0  0  0  0  0  0  0  0  0  0  0
    2.2183   -0.6544   -0.0955 C   0  0  0  0  0  0  0  0  0  0  0  0
    3.6536   -0.4898   -0.2630 C   0  0  0  0  0  0  0  0  0  0  0  0
    4.1902    0.6131   -0.8898 C   0  0  0  0  0  0  0  0  0  0  0  0
    5.5736    0.6983   -0.9917 C   0  0  0  0  0  0  0  0  0  0  0  0
    6.4077   -0.2222   -0.5196 N   0  0  0  0  0  0  0  0  0  0  0  0
    7.8303   -0.0658   -0.6570 C   0  0  0  0  0  0  0  0  0  0  0  0
    8.3199    0.7204    0.5582 C   0  0  0  0  0  0  0  0  0  0  0  0
    9.8062    1.0135    0.6424 C   0  0  0  0  0  0  0  0  0  0  0  0
    9.1615    0.0657    1.5931 C   0  0  0  0  0  0  0  0  0  0  0  0
    5.9006   -1.2932    0.0899 C   0  0  0  0  0  0  0  0  0  0  0  0
    6.6307   -2.2178    0.5698 O   0  0  0  0  0  0  0  0  0  0  0  0
    4.5427   -1.4514    0.2308 C   0  0  0  0  0  0  0  0  0  0  0  0
    1.3438    0.3961    0.1080 C   0  0  0  0  0  0  0  0  0  0  0  0
   -0.0193    0.1435    0.2880 C   0  0  0  0  0  0  0  0  0  0  0  0
   -1.3975    1.1724    0.5853 S   0  0  0  0  0  0  0  0  0  0  0  0
   -6.2640    0.8027    0.5164 C   0  0  0  0  0  0  0  0  0  0  0  0
   -6.9657   -0.4279    0.9618 C   0  0  0  0  0  0  0  0  0  0  0  0
   -8.4481   -0.1463    1.0036 C   0  0  0  0  0  0  0  0  0  0  0  0
   -8.9742    0.1599   -0.2233 O   0  0  0  0  0  0  0  0  0  0  0  0
   -8.2774    1.0446   -0.9943 C   0  0  0  0  0  0  0  0  0  0  0  0
   -7.1449    1.6895   -0.2744 C   0  0  0  0  0  0  0  0  0  0  0  0
   -5.6683   -0.0439   -2.0485 H   0  0  0  0  0  0  0  0  0  0  0  0
   -5.1205   -1.4125   -0.9418 H   0  0  0  0  0  0  0  0  0  0  0  0
   -3.9429   -0.3098   -1.7728 H   0  0  0  0  0  0  0  0  0  0  0  0
   -4.4915    1.5181   -0.4126 H   0  0  0  0  0  0  0  0  0  0  0  0
   -4.3615   -0.1750    1.8655 H   0  0  0  0  0  0  0  0  0  0  0  0
    0.0044   -3.1849    0.0404 H   0  0  0  0  0  0  0  0  0  0  0  0
    2.3428   -2.7473   -0.2674 H   0  0  0  0  0  0  0  0  0  0  0  0
    3.5299    1.3707   -1.2806 H   0  0  0  0  0  0  0  0  0  0  0  0
    5.9819    1.5878   -1.4960 H   0  0  0  0  0  0  0  0  0  0  0  0
    7.9883    0.5697   -1.5625 H   0  0  0  0  0  0  0  0  0  0  0  0
    8.3645   -1.0244   -0.7429 H   0  0  0  0  0  0  0  0  0  0  0  0
    7.6183    1.5212    0.9344 H   0  0  0  0  0  0  0  0  0  0  0  0
   10.4121    0.6125   -0.1870 H   0  0  0  0  0  0  0  0  0  0  0  0
   10.1102    2.0352    1.0069 H   0  0  0  0  0  0  0  0  0  0  0  0
    9.0414    0.4156    2.6614 H   0  0  0  0  0  0  0  0  0  0  0  0
    9.4003   -1.0106    1.5029 H   0  0  0  0  0  0  0  0  0  0  0  0
    4.0926   -2.3030    0.7146 H   0  0  0  0  0  0  0  0  0  0  0  0
    1.6865    1.3939    0.1329 H   0  0  0  0  0  0  0  0  0  0  0  0
   -6.0177    1.3719    1.4750 H   0  0  0  0  0  0  0  0  0  0  0  0
   -6.7451   -1.3203    0.3413 H   0  0  0  0  0  0  0  0  0  0  0  0
   -6.6537   -0.7085    1.9938 H   0  0  0  0  0  0  0  0  0  0  0  0
   -8.6626    0.6318    1.7401 H   0  0  0  0  0  0  0  0  0  0  0  0
   -8.9558   -1.1071    1.3271 H   0  0  0  0  0  0  0  0  0  0  0  0
   -7.9876    0.5315   -1.9294 H   0  0  0  0  0  0  0  0  0  0  0  0
   -8.9558    1.8789   -1.3288 H   0  0  0  0  0  0  0  0  0  0  0  0
   -6.5212    2.2964   -0.9691 H   0  0  0  0  0  0  0  0  0  0  0  0
   -7.6192    2.4804    0.3925 H   0  0  0  0  0  0  0  0  0  0  0  0
  1  2  1  0
  2  3  1  0
  3  4  1  0
  4  5  2  0
  5  6  1  0
  6  7  2  0
  7  8  1  0
  8  9  2  0
  9 10  1  0
 10 11  1  0
 11 12  2  0
 12 13  1  0
 13 14  1  0
 14 15  1  0
 15 16  1  0
 16 17  1  0
 13 18  1  0
 18 19  2  0
 18 20  1  0
  9 21  1  0
 21 22  2  0
 22 23  1  0
  2 24  1  0
 24 25  1  0
 25 26  1  0
 26 27  1  0
 27 28  1  0
 28 29  1  0
 23  4  1  0
 29 24  1  0
 22  6  1  0
 20 10  2  0
 17 15  1  0
  1 30  1  0
  1 31  1  0
  1 32  1  0
  2 33  1  6
  3 34  1  0
  7 35  1  0
  8 36  1  0
 11 37  1  0
 12 38  1  0
 14 39  1  0
 14 40  1  0
 15 41  1  0
 16 42  1  0
 16 43  1  0
 17 44  1  0
 17 45  1  0
 20 46  1  0
 21 47  1  0
 24 48  1  0
 25 49  1  0
 25 50  1  0
 26 51  1  0
 26 52  1  0
 28 53  1  0
 28 54  1  0
 29 55  1  0
 29 56  1  0
M  END
$$$$
