
     RDKit          3D

 77 79  0  0  0  0  0  0  0  0999 V2000
    1.7179    2.0707   -2.5336 C   0  0  1  0  0  0  0  0  0  0  0  0
    2.5086    1.7234   -1.3278 C   0  0  0  0  0  0  0  0  0  0  0  0
    2.8891    0.2679   -1.3018 C   0  0  2  0  0  0  0  0  0  0  0  0
    1.8216   -0.6867   -1.3896 N   0  0  0  0  0  0  0  0  0  0  0  0
    0.7725   -1.6474   -1.4847 C   0  0  0  0  0  0  0  0  0  0  0  0
    1.8028   -2.2668   -1.8477 O   0  0  0  0  0  0  0  0  0  0  0  0
   -0.7073   -1.5177   -1.1677 C   0  0  0  0  0  0  0  0  0  0  0  0
   -1.2376   -2.7608   -0.5827 C   0  0  2  0  0  0  0  0  0  0  0  0
   -0.9937   -3.7675   -1.5594 O   0  0  0  0  0  0  0  0  0  0  0  0
   -2.6761   -2.7642   -0.1795 C   0  0  0  0  0  0  0  0  0  0  0  0
   -2.8603   -4.1971    0.3885 C   0  0  0  0  0  0  0  0  0  0  0  0
   -3.5846   -2.8364   -1.4229 C   0  0  0  0  0  0  0  0  0  0  0  0
   -3.1649   -1.7880    0.7824 C   0  0  0  0  0  0  0  0  0  0  0  0
   -2.8481   -2.1698    1.9353 O   0  0  0  0  0  0  0  0  0  0  0  0
   -3.9079   -0.5520    0.6438 C   0  0  2  0  0  0  0  0  0  0  0  0
   -5.2463   -0.6968   -0.0591 C   0  0  0  0  0  0  0  0  0  0  0  0
   -3.2404    0.6921    0.1476 C   0  0  1  0  0  0  0  0  0  0  0  0
   -4.3702    1.6050   -0.0675 O   0  0  0  0  0  0  0  0  0  0  0  0
   -2.4459    1.4622    1.1537 C   0  0  1  0  0  0  0  0  0  0  0  0
   -1.3353    0.7964    1.8650 C   0  0  0  0  0  0  0  0  0  0  0  0
   -1.8358    2.6859    0.4511 C   0  0  0  0  0  0  0  0  0  0  0  0
   -0.9462    2.2293   -0.6456 C   0  0  0  0  0  0  0  0  0  0  0  0
   -0.1830    3.3284   -1.3781 C   0  0  0  0  0  0  0  0  0  0  0  0
    0.4996    2.7128   -2.5383 C   0  0  2  0  0  0  0  0  0  0  0  0
   -0.4970    2.3526   -3.6748 C   0  0  0  0  0  0  0  0  0  0  0  0
    1.6591    3.3905   -2.9768 O   0  0  0  0  0  0  0  0  0  0  0  0
    3.6665    0.0544   -0.0123 C   0  0  0  0  0  0  0  0  0  0  0  0
    4.8981    0.8703    0.1928 C   0  0  0  0  0  0  0  0  0  0  0  0
    3.3502   -0.8005    0.9319 C   0  0  0  0  0  0  0  0  0  0  0  0
    4.1104   -0.9898    2.1684 C   0  0  0  0  0  0  0  0  0  0  0  0
    4.3229   -2.2746    2.7664 C   0  0  0  0  0  0  0  0  0  0  0  0
    5.3252   -1.8191    4.2731 S   0  0  0  0  0  0  0  0  0  0  0  0
    5.2572    0.0179    3.7939 C   0  0  0  0  0  0  0  0  0  0  0  0
    5.9004    1.1182    4.6147 C   0  0  0  0  0  0  0  0  0  0  0  0
    4.6395    0.0366    2.8050 N   0  0  0  0  0  0  0  0  0  0  0  0
    1.9487    1.3582   -3.3916 H   0  0  0  0  0  0  0  0  0  0  0  0
    2.1289    2.0901   -0.3642 H   0  0  0  0  0  0  0  0  0  0  0  0
    3.4883    2.3037   -1.4446 H   0  0  0  0  0  0  0  0  0  0  0  0
    3.6390    0.0073   -2.0786 H   0  0  0  0  0  0  0  0  0  0  0  0
    1.2099   -0.0434   -0.8716 H   0  0  0  0  0  0  0  0  0  0  0  0
   -1.1567   -1.4158   -2.2134 H   0  0  0  0  0  0  0  0  0  0  0  0
   -0.8463   -0.6233   -0.6107 H   0  0  0  0  0  0  0  0  0  0  0  0
   -0.6296   -3.1331    0.2899 H   0  0  0  0  0  0  0  0  0  0  0  0
   -0.0319   -3.9920   -1.5831 H   0  0  0  0  0  0  0  0  0  0  0  0
   -2.3683   -4.1549    1.3758 H   0  0  0  0  0  0  0  0  0  0  0  0
   -2.4192   -4.9477   -0.2830 H   0  0  0  0  0  0  0  0  0  0  0  0
   -3.9408   -4.3326    0.5832 H   0  0  0  0  0  0  0  0  0  0  0  0
   -3.3265   -3.7258   -2.0410 H   0  0  0  0  0  0  0  0  0  0  0  0
   -4.6196   -3.0100   -1.0766 H   0  0  0  0  0  0  0  0  0  0  0  0
   -3.4407   -1.9909   -2.1001 H   0  0  0  0  0  0  0  0  0  0  0  0
   -4.2655   -0.2321    1.6831 H   0  0  0  0  0  0  0  0  0  0  0  0
   -5.8193    0.2405    0.1952 H   0  0  0  0  0  0  0  0  0  0  0  0
   -5.8542   -1.5167    0.3591 H   0  0  0  0  0  0  0  0  0  0  0  0
   -5.1836   -0.6711   -1.1542 H   0  0  0  0  0  0  0  0  0  0  0  0
   -2.8581    0.6087   -0.8558 H   0  0  0  0  0  0  0  0  0  0  0  0
   -4.6129    2.0258    0.7707 H   0  0  0  0  0  0  0  0  0  0  0  0
   -3.2192    1.8453    1.8988 H   0  0  0  0  0  0  0  0  0  0  0  0
   -0.3567    1.3687    1.8073 H   0  0  0  0  0  0  0  0  0  0  0  0
   -1.0678   -0.2211    1.5787 H   0  0  0  0  0  0  0  0  0  0  0  0
   -1.5267    0.8412    2.9972 H   0  0  0  0  0  0  0  0  0  0  0  0
   -2.6138    3.3996    0.1479 H   0  0  0  0  0  0  0  0  0  0  0  0
   -1.2272    3.1771    1.2683 H   0  0  0  0  0  0  0  0  0  0  0  0
   -1.4477    1.5900   -1.3756 H   0  0  0  0  0  0  0  0  0  0  0  0
   -0.1416    1.5938   -0.1946 H   0  0  0  0  0  0  0  0  0  0  0  0
    0.4673    3.8949   -0.6916 H   0  0  0  0  0  0  0  0  0  0  0  0
   -0.9588    4.0369   -1.7447 H   0  0  0  0  0  0  0  0  0  0  0  0
   -1.3248    3.0661   -3.6676 H   0  0  0  0  0  0  0  0  0  0  0  0
    0.0400    2.4445   -4.6402 H   0  0  0  0  0  0  0  0  0  0  0  0
   -0.7941    1.3115   -3.4892 H   0  0  0  0  0  0  0  0  0  0  0  0
    5.2579    1.3062   -0.7801 H   0  0  0  0  0  0  0  0  0  0  0  0
    5.7428    0.2828    0.5690 H   0  0  0  0  0  0  0  0  0  0  0  0
    4.6272    1.6900    0.8801 H   0  0  0  0  0  0  0  0  0  0  0  0
    2.4463   -1.3961    0.7496 H   0  0  0  0  0  0  0  0  0  0  0  0
    3.9150   -3.1987    2.3023 H   0  0  0  0  0  0  0  0  0  0  0  0
    5.0886    1.8568    4.8734 H   0  0  0  0  0  0  0  0  0  0  0  0
    6.6295    1.6876    4.0383 H   0  0  0  0  0  0  0  0  0  0  0  0
    6.3613    0.6980    5.5205 H   0  0  0  0  0  0  0  0  0  0  0  0
  1  2  1  0
  2  3  1  0
  3  4  1  0
  4  5  1  0
  5  6  2  0
  5  7  1  0
  7  8  1  0
  8  9  1  0
  8 10  1  0
 10 11  1  0
 10 12  1  0
 10 13  1  0
 13 14  2  0
 13 15  1  0
 15 16  1  0
 15 17  1  0
 17 18  1  0
 17 19  1  0
 19 20  1  0
 19 21  1  0
 21 22  1  0
 22 23  1  0
 23 24  1  0
 24 25  1  6
 24 26  1  0
  3 27  1  0
 27 28  1  0
 27 29  2  0
 29 30  1  0
 30 31  2  0
 31 32  1  0
 32 33  1  0
 33 34  1  0
 33 35  2  0
 24  1  1  0
 35 30  1  0
 26  1  1  0
  1 36  1  6
  2 37  1  0
  2 38  1  0
  3 39  1  6
  4 40  1  0
  7 41  1  0
  7 42  1  0
  8 43  1  1
  9 44  1  0
 11 45  1  0
 11 46  1  0
 11 47  1  0
 12 48  1  0
 12 49  1  0
 12 50  1  0
 15 51  1  1
 16 52  1  0
 16 53  1  0
 16 54  1  0
 17 55  1  6
 18 56  1  0
 19 57  1  1
 20 58  1  0
 20 59  1  0
 20 60  1  0
 21 61  1  0
 21 62  1  0
 22 63  1  0
 22 64  1  0
 23 65  1  0
 23 66  1  0
 25 67  1  0
 25 68  1  0
 25 69  1  0
 28 70  1  0
 28 71  1  0
 28 72  1  0
 29 73  1  0
 31 74  1  0
 34 75  1  0
 34 76  1  0
 34 77  1  0
M  END
$$$$
