@<TRIPOS>MOLECULE
*****
 77 79 0 0 0
SMALL
GASTEIGER

@<TRIPOS>ATOM
      1 C           1.7179    2.0707   -2.5336 C.3     1  UNL1        0.0901
      2 C           2.5086    1.7234   -1.3278 C.3     1  UNL1       -0.0015
      3 C           2.8891    0.2679   -1.3018 C.3     1  UNL1        0.0469
      4 N           1.8216   -0.6867   -1.3896 N.am    1  UNL1       -0.3086
      5 C           0.7725   -1.6474   -1.4847 C.2     1  UNL1        0.2160
      6 O           1.8028   -2.2668   -1.8477 O.2     1  UNL1       -0.2757
      7 C          -0.7073   -1.5177   -1.1677 C.3     1  UNL1        0.0509
      8 C          -1.2376   -2.7608   -0.5827 C.3     1  UNL1        0.0752
      9 O          -0.9937   -3.7675   -1.5594 O.3     1  UNL1       -0.3904
     10 C          -2.6761   -2.7642   -0.1795 C.3     1  UNL1        0.0500
     11 C          -2.8603   -4.1971    0.3885 C.3     1  UNL1       -0.0507
     12 C          -3.5846   -2.8364   -1.4229 C.3     1  UNL1       -0.0507
     13 C          -3.1649   -1.7880    0.7824 C.2     1  UNL1        0.1466
     14 O          -2.8481   -2.1698    1.9353 O.2     1  UNL1       -0.2964
     15 C          -3.9079   -0.5520    0.6438 C.3     1  UNL1        0.0415
     16 C          -5.2463   -0.6968   -0.0591 C.3     1  UNL1       -0.0533
     17 C          -3.2404    0.6921    0.1476 C.3     1  UNL1        0.0670
     18 O          -4.3702    1.6050   -0.0675 O.3     1  UNL1       -0.3908
     19 C          -2.4459    1.4622    1.1537 C.3     1  UNL1       -0.0171
     20 C          -1.3353    0.7964    1.8650 C.3     1  UNL1       -0.0601
     21 C          -1.8358    2.6859    0.4511 C.3     1  UNL1       -0.0480
     22 C          -0.9462    2.2293   -0.6456 C.3     1  UNL1       -0.0501
     23 C          -0.1830    3.3284   -1.3781 C.3     1  UNL1       -0.0215
     24 C           0.4996    2.7128   -2.5383 C.3     1  UNL1        0.0933
     25 C          -0.4970    2.3526   -3.6748 C.3     1  UNL1       -0.0334
     26 O           1.6591    3.3905   -2.9768 O.3     1  UNL1       -0.3650
     27 C           3.6665    0.0544   -0.0123 C.2     1  UNL1       -0.0505
     28 C           4.8981    0.8703    0.1928 C.3     1  UNL1       -0.0417
     29 C           3.3502   -0.8005    0.9319 C.2     1  UNL1       -0.0351
     30 C           4.1104   -0.9898    2.1684 C.ar    1  UNL1        0.0713
     31 C           4.3229   -2.2746    2.7664 C.ar    1  UNL1        0.0027
     32 S           5.3252   -1.8191    4.2731 S.2     1  UNL1       -0.0802
     33 C           5.2572    0.0179    3.7939 C.ar    1  UNL1        0.0759
     34 C           5.9004    1.1182    4.6147 C.3     1  UNL1       -0.0159
     35 N           4.6395    0.0366    2.8050 N.ar    1  UNL1       -0.2449
     36 H           1.9487    1.3582   -3.3916 H       1  UNL1        0.0625
     37 H           2.1289    2.0901   -0.3642 H       1  UNL1        0.0312
     38 H           3.4883    2.3037   -1.4446 H       1  UNL1        0.0312
     39 H           3.6390    0.0073   -2.0786 H       1  UNL1        0.0546
     40 H           1.2099   -0.0434   -0.8716 H       1  UNL1        0.1493
     41 H          -1.1567   -1.4158   -2.2134 H       1  UNL1        0.0384
     42 H          -0.8463   -0.6233   -0.6107 H       1  UNL1        0.0384
     43 H          -0.6296   -3.1331    0.2899 H       1  UNL1        0.0607
     44 H          -0.0319   -3.9920   -1.5831 H       1  UNL1        0.2098
     45 H          -2.3683   -4.1549    1.3758 H       1  UNL1        0.0240
     46 H          -2.4192   -4.9477   -0.2830 H       1  UNL1        0.0240
     47 H          -3.9408   -4.3326    0.5832 H       1  UNL1        0.0240
     48 H          -3.3265   -3.7258   -2.0410 H       1  UNL1        0.0240
     49 H          -4.6196   -3.0100   -1.0766 H       1  UNL1        0.0240
     50 H          -3.4407   -1.9909   -2.1001 H       1  UNL1        0.0240
     51 H          -4.2655   -0.2321    1.6831 H       1  UNL1        0.0400
     52 H          -5.8193    0.2405    0.1952 H       1  UNL1        0.0237
     53 H          -5.8542   -1.5167    0.3591 H       1  UNL1        0.0237
     54 H          -5.1836   -0.6711   -1.1542 H       1  UNL1        0.0237
     55 H          -2.8581    0.6087   -0.8558 H       1  UNL1        0.0603
     56 H          -4.6129    2.0258    0.7707 H       1  UNL1        0.2098
     57 H          -3.2192    1.8453    1.8988 H       1  UNL1        0.0323
     58 H          -0.3567    1.3687    1.8073 H       1  UNL1        0.0233
     59 H          -1.0678   -0.2211    1.5787 H       1  UNL1        0.0233
     60 H          -1.5267    0.8412    2.9972 H       1  UNL1        0.0233
     61 H          -2.6138    3.3996    0.1479 H       1  UNL1        0.0269
     62 H          -1.2272    3.1771    1.2683 H       1  UNL1        0.0269
     63 H          -1.4477    1.5900   -1.3756 H       1  UNL1        0.0266
     64 H          -0.1416    1.5938   -0.1946 H       1  UNL1        0.0266
     65 H           0.4673    3.8949   -0.6916 H       1  UNL1        0.0294
     66 H          -0.9588    4.0369   -1.7447 H       1  UNL1        0.0294
     67 H          -1.3248    3.0661   -3.6676 H       1  UNL1        0.0258
     68 H           0.0400    2.4445   -4.6402 H       1  UNL1        0.0258
     69 H          -0.7941    1.3115   -3.4892 H       1  UNL1        0.0258
     70 H           5.2579    1.3062   -0.7801 H       1  UNL1        0.0275
     71 H           5.7428    0.2828    0.5690 H       1  UNL1        0.0275
     72 H           4.6272    1.6900    0.8801 H       1  UNL1        0.0275
     73 H           2.4463   -1.3961    0.7496 H       1  UNL1        0.0639
     74 H           3.9150   -3.1987    2.3023 H       1  UNL1        0.0715
     75 H           5.0886    1.8568    4.8734 H       1  UNL1        0.0298
     76 H           6.6295    1.6876    4.0383 H       1  UNL1        0.0298
     77 H           6.3613    0.6980    5.5205 H       1  UNL1        0.0298
@<TRIPOS>BOND
     1     1     2    1
     2     2     3    1
     3     3     4    1
     4     4     5   am
     5     5     6    2
     6     5     7    1
     7     7     8    1
     8     8     9    1
     9     8    10    1
    10    10    11    1
    11    10    12    1
    12    10    13    1
    13    13    14    2
    14    13    15    1
    15    15    16    1
    16    15    17    1
    17    17    18    1
    18    17    19    1
    19    19    20    1
    20    19    21    1
    21    21    22    1
    22    22    23    1
    23    23    24    1
    24    24    25    1
    25    24    26    1
    26     3    27    1
    27    27    28    1
    28    27    29    2
    29    29    30    1
    30    30    31   ar
    31    31    32   ar
    32    32    33   ar
    33    33    34    1
    34    33    35   ar
    35    24     1    1
    36    35    30   ar
    37    26     1    1
    38     1    36    1
    39     2    37    1
    40     2    38    1
    41     3    39    1
    42     4    40    1
    43     7    41    1
    44     7    42    1
    45     8    43    1
    46     9    44    1
    47    11    45    1
    48    11    46    1
    49    11    47    1
    50    12    48    1
    51    12    49    1
    52    12    50    1
    53    15    51    1
    54    16    52    1
    55    16    53    1
    56    16    54    1
    57    17    55    1
    58    18    56    1
    59    19    57    1
    60    20    58    1
    61    20    59    1
    62    20    60    1
    63    21    61    1
    64    21    62    1
    65    22    63    1
    66    22    64    1
    67    23    65    1
    68    23    66    1
    69    25    67    1
    70    25    68    1
    71    25    69    1
    72    28    70    1
    73    28    71    1
    74    28    72    1
    75    29    73    1
    76    31    74    1
    77    34    75    1
    78    34    76    1
    79    34    77    1
