@<TRIPOS>MOLECULE
*****
 42 45 0 0 0
SMALL
GASTEIGER

@<TRIPOS>ATOM
      1 CL          1.9993    1.7327    1.6322 Cl      1  UNL1       -0.0832
      2 C           0.6989    2.1019    0.5475 C.ar    1  UNL1        0.0470
      3 C           0.5705    3.4647    0.3025 C.ar    1  UNL1       -0.0430
      4 C          -0.3935    3.9726   -0.5414 C.ar    1  UNL1       -0.0604
      5 C          -1.2524    3.0730   -1.1552 C.ar    1  UNL1       -0.0613
      6 C          -1.1277    1.7275   -0.9148 C.ar    1  UNL1       -0.0543
      7 C          -0.1705    1.2075   -0.0746 C.ar    1  UNL1        0.0055
      8 C           0.0683   -0.2388    0.2778 C.3     1  UNL1        0.1233
      9 N          -0.1119   -0.3620    1.7147 N.ar    1  UNL1       -0.3186
     10 C          -0.5547    0.5602    2.5970 C.ar    1  UNL1        0.0256
     11 C          -0.5998    0.0773    3.8799 C.ar    1  UNL1        0.0454
     12 N          -0.1691   -1.1941    3.7919 N.ar    1  UNL1       -0.2440
     13 C           0.1138   -1.4314    2.4986 C.ar    1  UNL1        0.0971
     14 C           1.4224   -0.5372   -0.1893 C.ar    1  UNL1       -0.0127
     15 C           1.5801   -0.2605   -1.5549 C.ar    1  UNL1       -0.0557
     16 C           2.7748   -0.4638   -2.2120 C.ar    1  UNL1       -0.0614
     17 C           3.8819   -0.9528   -1.5539 C.ar    1  UNL1       -0.0617
     18 C           3.7319   -1.2260   -0.2124 C.ar    1  UNL1       -0.0614
     19 C           2.5413   -1.0240    0.4451 C.ar    1  UNL1       -0.0557
     20 C          -0.9984   -1.0341   -0.3780 C.ar    1  UNL1       -0.0127
     21 C          -2.2541   -0.7783    0.1864 C.ar    1  UNL1       -0.0557
     22 C          -3.4011   -1.3894   -0.2408 C.ar    1  UNL1       -0.0614
     23 C          -3.3321   -2.3028   -1.2753 C.ar    1  UNL1       -0.0617
     24 C          -2.0968   -2.5654   -1.8423 C.ar    1  UNL1       -0.0614
     25 C          -0.9557   -1.9471   -1.4058 C.ar    1  UNL1       -0.0557
     26 H           1.1943    4.2519    0.7339 H       1  UNL1        0.0632
     27 H          -0.5500    5.0122   -0.7763 H       1  UNL1        0.0618
     28 H          -2.0321    3.3656   -1.8259 H       1  UNL1        0.0618
     29 H          -1.7657    1.0155   -1.3721 H       1  UNL1        0.0622
     30 H          -0.8603    1.5757    2.3810 H       1  UNL1        0.0825
     31 H          -0.9083    0.5810    4.7854 H       1  UNL1        0.0845
     32 H           0.4728   -2.4087    2.2091 H       1  UNL1        0.1029
     33 H           0.7928    0.1333   -2.2163 H       1  UNL1        0.0621
     34 H           2.9146   -0.2554   -3.2666 H       1  UNL1        0.0618
     35 H           4.8638   -1.1542   -1.9505 H       1  UNL1        0.0618
     36 H           4.5247   -1.6151    0.4235 H       1  UNL1        0.0618
     37 H           2.3742   -1.2182    1.4844 H       1  UNL1        0.0621
     38 H          -2.4462   -0.0759    1.0124 H       1  UNL1        0.0621
     39 H          -4.3843   -1.2145    0.1726 H       1  UNL1        0.0618
     40 H          -4.2150   -2.8246   -1.6614 H       1  UNL1        0.0618
     41 H          -1.9687   -3.2747   -2.6625 H       1  UNL1        0.0618
     42 H           0.0284   -2.1036   -1.7937 H       1  UNL1        0.0621
@<TRIPOS>BOND
     1     1     2    1
     2     2     3   ar
     3     3     4   ar
     4     4     5   ar
     5     5     6   ar
     6     6     7   ar
     7     7     8    1
     8     8     9    1
     9     9    10   ar
    10    10    11   ar
    11    11    12   ar
    12    12    13   ar
    13     8    14    1
    14    14    15   ar
    15    15    16   ar
    16    16    17   ar
    17    17    18   ar
    18    18    19   ar
    19     8    20    1
    20    20    21   ar
    21    21    22   ar
    22    22    23   ar
    23    23    24   ar
    24    24    25   ar
    25     7     2   ar
    26    13     9   ar
    27    19    14   ar
    28    25    20   ar
    29     3    26    1
    30     4    27    1
    31     5    28    1
    32     6    29    1
    33    10    30    1
    34    11    31    1
    35    13    32    1
    36    15    33    1
    37    16    34    1
    38    17    35    1
    39    18    36    1
    40    19    37    1
    41    21    38    1
    42    22    39    1
    43    23    40    1
    44    24    41    1
    45    25    42    1
