@<TRIPOS>MOLECULE
*****
 42 43 0 0 0
SMALL
GASTEIGER

@<TRIPOS>ATOM
      1 C           2.0330   -2.5761   -1.4322 C.3     1  UNL1       -0.0611
      2 C           2.7658   -1.3049   -1.7129 C.3     1  UNL1       -0.0270
      3 C           2.8049   -0.4817   -0.4938 C.ar    1  UNL1       -0.0040
      4 C           3.9898   -0.4564    0.2101 C.ar    1  UNL1       -0.0367
      5 C           4.0914    0.3020    1.3436 C.ar    1  UNL1        0.0415
      6 CL          5.5662    0.3654    2.2653 Cl      1  UNL1       -0.0835
      7 C           3.0141    1.0407    1.7844 C.ar    1  UNL1       -0.0399
      8 C           1.8547    0.9891    1.0578 C.ar    1  UNL1       -0.0177
      9 C           1.6791    0.2443   -0.0973 C.ar    1  UNL1        0.1317
     10 O           0.5060    0.2054   -0.8175 O.3     1  UNL1       -0.4553
     11 C          -0.6207    0.9089   -0.4398 C.ar    1  UNL1        0.1360
     12 C          -1.0162    1.9774   -1.2757 C.ar    1  UNL1        0.0020
     13 C          -2.0892    2.7631   -1.0437 C.ar    1  UNL1        0.0417
     14 C          -2.4897    3.8770   -1.9331 C.3     1  UNL1       -0.0222
     15 N          -2.8340    2.5182    0.0527 N.ar    1  UNL1       -0.2596
     16 C          -2.5149    1.5171    0.8879 C.ar    1  UNL1        0.0358
     17 C          -1.3992    0.6907    0.6537 C.ar    1  UNL1        0.0269
     18 C          -1.2321   -0.4369    1.5743 C.3     1  UNL1        0.0284
     19 N          -1.8807   -1.6457    1.1525 N.3     1  UNL1       -0.3040
     20 C          -1.5087   -2.1873   -0.0925 C.3     1  UNL1       -0.0127
     21 C          -3.2161   -1.8259    1.5899 C.3     1  UNL1       -0.0127
     22 H           2.5942   -3.4233   -1.8483 H       1  UNL1        0.0233
     23 H           1.9053   -2.6989   -0.3219 H       1  UNL1        0.0233
     24 H           1.0311   -2.4893   -1.9406 H       1  UNL1        0.0233
     25 H           2.3051   -0.7323   -2.5502 H       1  UNL1        0.0312
     26 H           3.8107   -1.5536   -2.0455 H       1  UNL1        0.0312
     27 H           4.8607   -1.0389   -0.1251 H       1  UNL1        0.0636
     28 H           3.1057    1.6376    2.6846 H       1  UNL1        0.0633
     29 H           1.0004    1.5669    1.3969 H       1  UNL1        0.0655
     30 H          -0.3980    2.1450   -2.1449 H       1  UNL1        0.0672
     31 H          -3.3776    3.5755   -2.5231 H       1  UNL1        0.0293
     32 H          -1.6678    4.2293   -2.5906 H       1  UNL1        0.0293
     33 H          -2.7439    4.7459   -1.2623 H       1  UNL1        0.0293
     34 H          -3.1489    1.3682    1.7487 H       1  UNL1        0.0834
     35 H          -1.5688   -0.1571    2.6190 H       1  UNL1        0.0477
     36 H          -0.1668   -0.6991    1.7053 H       1  UNL1        0.0477
     37 H          -1.5883   -1.5083   -0.9710 H       1  UNL1        0.0391
     38 H          -2.1541   -3.1062   -0.2724 H       1  UNL1        0.0391
     39 H          -0.4798   -2.5960   -0.0889 H       1  UNL1        0.0391
     40 H          -3.9260   -2.2061    0.8358 H       1  UNL1        0.0391
     41 H          -3.2067   -2.6062    2.4058 H       1  UNL1        0.0391
     42 H          -3.6900   -0.9372    2.0548 H       1  UNL1        0.0391
@<TRIPOS>BOND
     1     1     2    1
     2     2     3    1
     3     3     4   ar
     4     4     5   ar
     5     5     6    1
     6     5     7   ar
     7     7     8   ar
     8     8     9   ar
     9     9    10    1
    10    10    11    1
    11    11    12   ar
    12    12    13   ar
    13    13    14    1
    14    13    15   ar
    15    15    16   ar
    16    16    17   ar
    17    17    18    1
    18    18    19    1
    19    19    20    1
    20    19    21    1
    21     9     3   ar
    22    17    11   ar
    23     1    22    1
    24     1    23    1
    25     1    24    1
    26     2    25    1
    27     2    26    1
    28     4    27    1
    29     7    28    1
    30     8    29    1
    31    12    30    1
    32    14    31    1
    33    14    32    1
    34    14    33    1
    35    16    34    1
    36    18    35    1
    37    18    36    1
    38    20    37    1
    39    20    38    1
    40    20    39    1
    41    21    40    1
    42    21    41    1
    43    21    42    1
