
     RDKit          3D

 49 51  0  0  0  0  0  0  0  0999 V2000
   -8.1574   -0.8833    1.1366 C   0  0  0  0  0  0  0  0  0  0  0  0
   -7.6479   -0.1132    0.0741 O   0  0  0  0  0  0  0  0  0  0  0  0
   -6.3142    0.3016    0.0984 C   0  0  0  0  0  0  0  0  0  0  0  0
   -5.5106   -0.0511    1.1689 C   0  0  0  0  0  0  0  0  0  0  0  0
   -4.1914    0.3331    1.2387 C   0  0  0  0  0  0  0  0  0  0  0  0
   -3.6721    1.0827    0.2175 C   0  0  0  0  0  0  0  0  0  0  0  0
   -2.2422    1.5496    0.2046 C   0  0  0  0  0  0  0  0  0  0  0  0
   -1.4985    0.5533   -0.4406 O   0  0  0  0  0  0  0  0  0  0  0  0
   -0.1428    0.5963   -0.6604 C   0  0  0  0  0  0  0  0  0  0  0  0
    0.5912    1.6766   -0.2367 C   0  0  0  0  0  0  0  0  0  0  0  0
    1.9579    1.7622   -0.4367 C   0  0  0  0  0  0  0  0  0  0  0  0
    2.6012    0.7239   -1.0846 C   0  0  0  0  0  0  0  0  0  0  0  0
    4.0699    0.8184   -1.3100 C   0  0  0  0  0  0  0  0  0  0  0  0
    4.8186    0.4234   -0.0944 C   0  0  0  0  0  0  0  0  0  0  0  0
    5.3710    1.4298    0.7093 C   0  0  0  0  0  0  0  0  0  0  0  0
    6.0489    1.1019    1.8200 N   0  0  0  0  0  0  0  0  0  0  0  0
    6.2389   -0.1639    2.2248 C   0  0  0  0  0  0  0  0  0  0  0  0
    6.9741   -0.4632    3.4266 N   0  0  0  0  0  0  0  0  0  0  0  0
    5.7178   -1.1410    1.4687 N   0  0  0  0  0  0  0  0  0  0  0  0
    5.0187   -0.8643    0.3280 C   0  0  0  0  0  0  0  0  0  0  0  0
    4.4794   -1.9217   -0.4632 N   0  0  0  0  0  0  0  0  0  0  0  0
    1.8597   -0.3456   -1.5016 C   0  0  0  0  0  0  0  0  0  0  0  0
    0.4751   -0.4430   -1.3045 C   0  0  0  0  0  0  0  0  0  0  0  0
   -0.2821   -1.5101   -1.7172 O   0  0  0  0  0  0  0  0  0  0  0  0
    0.1602   -2.6523   -2.3831 C   0  0  0  0  0  0  0  0  0  0  0  0
   -4.4514    1.4471   -0.8599 C   0  0  0  0  0  0  0  0  0  0  0  0
   -5.7708    1.0544   -0.9148 C   0  0  0  0  0  0  0  0  0  0  0  0
   -8.0116   -0.4438    2.1245 H   0  0  0  0  0  0  0  0  0  0  0  0
   -9.2525   -1.0128    0.9677 H   0  0  0  0  0  0  0  0  0  0  0  0
   -7.6469   -1.8861    1.1305 H   0  0  0  0  0  0  0  0  0  0  0  0
   -5.9051   -0.6530    2.0014 H   0  0  0  0  0  0  0  0  0  0  0  0
   -3.5483    0.0674    2.0679 H   0  0  0  0  0  0  0  0  0  0  0  0
   -2.2119    2.5306   -0.2832 H   0  0  0  0  0  0  0  0  0  0  0  0
   -1.9568    1.6594    1.2872 H   0  0  0  0  0  0  0  0  0  0  0  0
    0.0530    2.4727    0.2679 H   0  0  0  0  0  0  0  0  0  0  0  0
    2.5237    2.6098   -0.1026 H   0  0  0  0  0  0  0  0  0  0  0  0
    4.3096    1.8650   -1.6087 H   0  0  0  0  0  0  0  0  0  0  0  0
    4.2944    0.1863   -2.1852 H   0  0  0  0  0  0  0  0  0  0  0  0
    5.2214    2.4567    0.3882 H   0  0  0  0  0  0  0  0  0  0  0  0
    6.7434   -0.0692    4.3469 H   0  0  0  0  0  0  0  0  0  0  0  0
    7.7999   -1.1259    3.3622 H   0  0  0  0  0  0  0  0  0  0  0  0
    4.8551   -2.2125   -1.3774 H   0  0  0  0  0  0  0  0  0  0  0  0
    3.6430   -2.4201   -0.0633 H   0  0  0  0  0  0  0  0  0  0  0  0
    2.3284   -1.1734   -2.0179 H   0  0  0  0  0  0  0  0  0  0  0  0
   -0.4254   -3.5184   -1.9571 H   0  0  0  0  0  0  0  0  0  0  0  0
   -0.0920   -2.6259   -3.4627 H   0  0  0  0  0  0  0  0  0  0  0  0
    1.2078   -2.8673   -2.1760 H   0  0  0  0  0  0  0  0  0  0  0  0
   -4.0339    2.0423   -1.6680 H   0  0  0  0  0  0  0  0  0  0  0  0
   -6.3964    1.3300   -1.7508 H   0  0  0  0  0  0  0  0  0  0  0  0
  1  2  1  0
  2  3  1  0
  3  4  2  0
  4  5  1  0
  5  6  2  0
  6  7  1  0
  7  8  1  0
  8  9  1  0
  9 10  2  0
 10 11  1  0
 11 12  2  0
 12 13  1  0
 13 14  1  0
 14 15  2  0
 15 16  1  0
 16 17  2  0
 17 18  1  0
 17 19  1  0
 19 20  2  0
 20 21  1  0
 12 22  1  0
 22 23  2  0
 23 24  1  0
 24 25  1  0
  6 26  1  0
 26 27  2  0
 27  3  1  0
 23  9  1  0
 20 14  1  0
  1 28  1  0
  1 29  1  0
  1 30  1  0
  4 31  1  0
  5 32  1  0
  7 33  1  0
  7 34  1  0
 10 35  1  0
 11 36  1  0
 13 37  1  0
 13 38  1  0
 15 39  1  0
 18 40  1  0
 18 41  1  0
 21 42  1  0
 21 43  1  0
 22 44  1  0
 25 45  1  0
 25 46  1  0
 25 47  1  0
 26 48  1  0
 27 49  1  0
M  END
$$$$
