@<TRIPOS>MOLECULE
*****
 49 51 0 0 0
SMALL
GASTEIGER

@<TRIPOS>ATOM
      1 C          -8.1574   -0.8833    1.1366 C.3     1  UNL1        0.0788
      2 O          -7.6479   -0.1132    0.0741 O.3     1  UNL1       -0.4951
      3 C          -6.3142    0.3016    0.0984 C.ar    1  UNL1        0.1201
      4 C          -5.5106   -0.0511    1.1689 C.ar    1  UNL1       -0.0196
      5 C          -4.1914    0.3331    1.2387 C.ar    1  UNL1       -0.0519
      6 C          -3.6721    1.0827    0.2175 C.ar    1  UNL1       -0.0102
      7 C          -2.2422    1.5496    0.2046 C.3     1  UNL1        0.1148
      8 O          -1.4985    0.5533   -0.4406 O.3     1  UNL1       -0.4837
      9 C          -0.1428    0.5963   -0.6604 C.ar    1  UNL1        0.1624
     10 C           0.5912    1.6766   -0.2367 C.ar    1  UNL1       -0.0160
     11 C           1.9579    1.7622   -0.4367 C.ar    1  UNL1       -0.0546
     12 C           2.6012    0.7239   -1.0846 C.ar    1  UNL1       -0.0392
     13 C           4.0699    0.8184   -1.3100 C.3     1  UNL1        0.0024
     14 C           4.8186    0.4234   -0.0944 C.ar    1  UNL1        0.0146
     15 C           5.3710    1.4298    0.7093 C.ar    1  UNL1        0.0379
     16 N           6.0489    1.1019    1.8200 N.ar    1  UNL1       -0.2227
     17 C           6.2389   -0.1639    2.2248 C.ar    1  UNL1        0.2142
     18 N           6.9741   -0.4632    3.4266 N.pl3   1  UNL1       -0.3274
     19 N           5.7178   -1.1410    1.4687 N.ar    1  UNL1       -0.1999
     20 C           5.0187   -0.8643    0.3280 C.ar    1  UNL1        0.1247
     21 N           4.4794   -1.9217   -0.4632 N.pl3   1  UNL1       -0.3428
     22 C           1.8597   -0.3456   -1.5016 C.ar    1  UNL1       -0.0128
     23 C           0.4751   -0.4430   -1.3045 C.ar    1  UNL1        0.1618
     24 O          -0.2821   -1.5101   -1.7172 O.3     1  UNL1       -0.4914
     25 C           0.1602   -2.6523   -2.3831 C.3     1  UNL1        0.0790
     26 C          -4.4514    1.4471   -0.8599 C.ar    1  UNL1       -0.0519
     27 C          -5.7708    1.0544   -0.9148 C.ar    1  UNL1       -0.0196
     28 H          -8.0116   -0.4438    2.1245 H       1  UNL1        0.0660
     29 H          -9.2525   -1.0128    0.9677 H       1  UNL1        0.0660
     30 H          -7.6469   -1.8861    1.1305 H       1  UNL1        0.0660
     31 H          -5.9051   -0.6530    2.0014 H       1  UNL1        0.0654
     32 H          -3.5483    0.0674    2.0679 H       1  UNL1        0.0622
     33 H          -2.2119    2.5306   -0.2832 H       1  UNL1        0.0748
     34 H          -1.9568    1.6594    1.2872 H       1  UNL1        0.0748
     35 H           0.0530    2.4727    0.2679 H       1  UNL1        0.0655
     36 H           2.5237    2.6098   -0.1026 H       1  UNL1        0.0622
     37 H           4.3096    1.8650   -1.6087 H       1  UNL1        0.0363
     38 H           4.2944    0.1863   -2.1852 H       1  UNL1        0.0363
     39 H           5.2214    2.4567    0.3882 H       1  UNL1        0.0834
     40 H           6.7434   -0.0692    4.3469 H       1  UNL1        0.1452
     41 H           7.7999   -1.1259    3.3622 H       1  UNL1        0.1452
     42 H           4.8551   -2.2125   -1.3774 H       1  UNL1        0.1437
     43 H           3.6430   -2.4201   -0.0633 H       1  UNL1        0.1437
     44 H           2.3284   -1.1734   -2.0179 H       1  UNL1        0.0658
     45 H          -0.4254   -3.5184   -1.9571 H       1  UNL1        0.0660
     46 H          -0.0920   -2.6259   -3.4627 H       1  UNL1        0.0660
     47 H           1.2078   -2.8673   -2.1760 H       1  UNL1        0.0660
     48 H          -4.0339    2.0423   -1.6680 H       1  UNL1        0.0622
     49 H          -6.3964    1.3300   -1.7508 H       1  UNL1        0.0654
@<TRIPOS>BOND
     1     1     2    1
     2     2     3    1
     3     3     4   ar
     4     4     5   ar
     5     5     6   ar
     6     6     7    1
     7     7     8    1
     8     8     9    1
     9     9    10   ar
    10    10    11   ar
    11    11    12   ar
    12    12    13    1
    13    13    14    1
    14    14    15   ar
    15    15    16   ar
    16    16    17   ar
    17    17    18    1
    18    17    19   ar
    19    19    20   ar
    20    20    21    1
    21    12    22   ar
    22    22    23   ar
    23    23    24    1
    24    24    25    1
    25     6    26   ar
    26    26    27   ar
    27    27     3   ar
    28    23     9   ar
    29    20    14   ar
    30     1    28    1
    31     1    29    1
    32     1    30    1
    33     4    31    1
    34     5    32    1
    35     7    33    1
    36     7    34    1
    37    10    35    1
    38    11    36    1
    39    13    37    1
    40    13    38    1
    41    15    39    1
    42    18    40    1
    43    18    41    1
    44    21    42    1
    45    21    43    1
    46    22    44    1
    47    25    45    1
    48    25    46    1
    49    25    47    1
    50    26    48    1
    51    27    49    1
