
     RDKit          3D

 53 58  0  0  0  0  0  0  0  0999 V2000
    3.5360   -1.5395   -3.9691 C   0  0  0  0  0  0  0  0  0  0  0  0
    4.2634   -0.8403   -2.9293 N   0  0  0  0  0  0  0  0  0  0  0  0
    3.5404   -0.4311   -1.7764 C   0  0  0  0  0  0  0  0  0  0  0  0
    2.1982   -0.6755   -1.6246 C   0  0  0  0  0  0  0  0  0  0  0  0
    1.4823   -0.2744   -0.4913 C   0  0  0  0  0  0  0  0  0  0  0  0
    0.1024   -0.5445   -0.3724 N   0  0  0  0  0  0  0  0  0  0  0  0
   -0.4429   -1.7077    0.2050 C   0  0  0  0  0  0  0  0  0  0  0  0
    0.1416   -2.7103    0.7155 O   0  0  0  0  0  0  0  0  0  0  0  0
   -1.9130   -1.6333    0.1498 C   0  0  0  0  0  0  0  0  0  0  0  0
   -2.2001   -0.4338   -0.4559 C   0  0  0  0  0  0  0  0  0  0  0  0
   -3.5901   -0.3732   -0.5033 C   0  0  0  0  0  0  0  0  0  0  0  0
   -4.3424    0.7808   -1.0918 C   0  0  0  0  0  0  0  0  0  0  0  0
   -4.0340   -1.4910    0.0525 N   0  0  0  0  0  0  0  0  0  0  0  0
   -3.0553   -2.2675    0.4544 N   0  0  0  0  0  0  0  0  0  0  0  0
   -3.1600   -3.5800    1.1121 C   0  0  0  0  0  0  0  0  0  0  0  0
   -3.0790   -3.6048    2.6059 C   0  0  0  0  0  0  0  0  0  0  0  0
   -4.3650   -3.9014    1.8966 C   0  0  0  0  0  0  0  0  0  0  0  0
   -0.9554    0.2971   -0.8077 C   0  0  0  0  0  0  0  0  0  0  0  0
   -0.9259    1.6541   -0.2424 C   0  0  0  0  0  0  0  0  0  0  0  0
   -1.1479    2.7334   -1.0697 C   0  0  0  0  0  0  0  0  0  0  0  0
   -1.1303    4.0291   -0.5846 C   0  0  0  0  0  0  0  0  0  0  0  0
   -0.8898    4.2886    0.7458 C   0  0  0  0  0  0  0  0  0  0  0  0
   -0.8821    5.9492    1.2899 Cl  0  0  0  0  0  0  0  0  0  0  0  0
   -0.6678    3.2086    1.5724 C   0  0  0  0  0  0  0  0  0  0  0  0
   -0.6848    1.9187    1.0924 C   0  0  0  0  0  0  0  0  0  0  0  0
    2.1843    0.3735    0.4591 N   0  0  0  0  0  0  0  0  0  0  0  0
    3.4754    0.6243    0.3441 N   0  0  0  0  0  0  0  0  0  0  0  0
    4.3450    1.2452    1.1618 C   0  0  0  0  0  0  0  0  0  0  0  0
    4.0830    1.8546    2.4925 C   0  0  0  0  0  0  0  0  0  0  0  0
    5.5725    1.2474    0.5847 N   0  0  0  0  0  0  0  0  0  0  0  0
    5.4546    0.6316   -0.5788 N   0  0  0  0  0  0  0  0  0  0  0  0
    4.1853    0.2374   -0.7581 C   0  0  0  0  0  0  0  0  0  0  0  0
    2.8699   -0.8668   -4.5509 H   0  0  0  0  0  0  0  0  0  0  0  0
    2.9216   -2.3697   -3.5121 H   0  0  0  0  0  0  0  0  0  0  0  0
    4.2387   -2.0430   -4.6517 H   0  0  0  0  0  0  0  0  0  0  0  0
    5.2698   -0.6676   -3.0648 H   0  0  0  0  0  0  0  0  0  0  0  0
    1.6695   -1.1979   -2.4088 H   0  0  0  0  0  0  0  0  0  0  0  0
   -5.4080    0.7149   -0.8761 H   0  0  0  0  0  0  0  0  0  0  0  0
   -4.0806    0.8089   -2.1582 H   0  0  0  0  0  0  0  0  0  0  0  0
   -3.9626    1.7379   -0.6472 H   0  0  0  0  0  0  0  0  0  0  0  0
   -2.6666   -4.4330    0.5967 H   0  0  0  0  0  0  0  0  0  0  0  0
   -2.5111   -4.4180    3.1002 H   0  0  0  0  0  0  0  0  0  0  0  0
   -2.9901   -2.6195    3.1365 H   0  0  0  0  0  0  0  0  0  0  0  0
   -4.7328   -4.9433    1.9539 H   0  0  0  0  0  0  0  0  0  0  0  0
   -5.2101   -3.1628    1.9734 H   0  0  0  0  0  0  0  0  0  0  0  0
   -0.8459    0.3923   -1.9226 H   0  0  0  0  0  0  0  0  0  0  0  0
   -1.3460    2.6023   -2.1400 H   0  0  0  0  0  0  0  0  0  0  0  0
   -1.3110    4.8587   -1.2730 H   0  0  0  0  0  0  0  0  0  0  0  0
   -0.4735    3.3947    2.6401 H   0  0  0  0  0  0  0  0  0  0  0  0
   -0.5103    1.0775    1.7451 H   0  0  0  0  0  0  0  0  0  0  0  0
    4.2289    2.9698    2.4534 H   0  0  0  0  0  0  0  0  0  0  0  0
    3.0211    1.7009    2.7837 H   0  0  0  0  0  0  0  0  0  0  0  0
    4.7305    1.3984    3.2804 H   0  0  0  0  0  0  0  0  0  0  0  0
  1  2  1  0
  2  3  1  0
  3  4  2  0
  4  5  1  0
  5  6  1  0
  6  7  1  0
  7  8  2  0
  7  9  1  0
  9 10  2  0
 10 11  1  0
 11 12  1  0
 11 13  2  0
 13 14  1  0
 14 15  1  0
 15 16  1  0
 16 17  1  0
 10 18  1  0
 18 19  1  0
 19 20  2  0
 20 21  1  0
 21 22  2  0
 22 23  1  0
 22 24  1  0
 24 25  2  0
  5 26  2  0
 26 27  1  0
 27 28  1  0
 28 29  1  0
 28 30  2  0
 30 31  1  0
 31 32  2  0
 32  3  1  0
 18  6  1  0
 25 19  1  0
 32 27  1  0
 14  9  1  0
 17 15  1  0
  1 33  1  0
  1 34  1  0
  1 35  1  0
  2 36  1  0
  4 37  1  0
 12 38  1  0
 12 39  1  0
 12 40  1  0
 15 41  1  0
 16 42  1  0
 16 43  1  0
 17 44  1  0
 17 45  1  0
 18 46  1  0
 20 47  1  0
 21 48  1  0
 24 49  1  0
 25 50  1  0
 29 51  1  0
 29 52  1  0
 29 53  1  0
M  END
$$$$
