@<TRIPOS>MOLECULE
*****
 53 58 0 0 0
SMALL
GASTEIGER

@<TRIPOS>ATOM
      1 C           3.5360   -1.5395   -3.9691 C.3     1  UNL1       -0.0023
      2 N           4.2634   -0.8403   -2.9293 N.pl3   1  UNL1       -0.3439
      3 C           3.5404   -0.4311   -1.7764 C.ar    1  UNL1        0.0768
      4 C           2.1982   -0.6755   -1.6246 C.ar    1  UNL1        0.0050
      5 C           1.4823   -0.2744   -0.4913 C.ar    1  UNL1        0.1514
      6 N           0.1024   -0.5445   -0.3724 N.am    1  UNL1       -0.2375
      7 C          -0.4429   -1.7077    0.2050 C.2     1  UNL1        0.2711
      8 O           0.1416   -2.7103    0.7155 O.2     1  UNL1       -0.2679
      9 C          -1.9130   -1.6333    0.1498 C.ar    1  UNL1        0.1297
     10 C          -2.2001   -0.4338   -0.4559 C.ar    1  UNL1        0.0305
     11 C          -3.5901   -0.3732   -0.5033 C.ar    1  UNL1        0.0660
     12 C          -4.3424    0.7808   -1.0918 C.3     1  UNL1       -0.0203
     13 N          -4.0340   -1.4910    0.0525 N.ar    1  UNL1       -0.1752
     14 N          -3.0553   -2.2675    0.4544 N.ar    1  UNL1       -0.2556
     15 C          -3.1600   -3.5800    1.1121 C.3     1  UNL1        0.0537
     16 C          -3.0790   -3.6048    2.6059 C.3     1  UNL1       -0.0285
     17 C          -4.3650   -3.9014    1.8966 C.3     1  UNL1       -0.0285
     18 C          -0.9554    0.2971   -0.8077 C.3     1  UNL1        0.0868
     19 C          -0.9259    1.6541   -0.2424 C.ar    1  UNL1       -0.0220
     20 C          -1.1479    2.7334   -1.0697 C.ar    1  UNL1       -0.0551
     21 C          -1.1303    4.0291   -0.5846 C.ar    1  UNL1       -0.0431
     22 C          -0.8898    4.2886    0.7458 C.ar    1  UNL1        0.0410
     23 CL         -0.8821    5.9492    1.2899 Cl      1  UNL1       -0.0835
     24 C          -0.6678    3.2086    1.5724 C.ar    1  UNL1       -0.0431
     25 C          -0.6848    1.9187    1.0924 C.ar    1  UNL1       -0.0551
     26 N           2.1843    0.3735    0.4591 N.ar    1  UNL1       -0.1477
     27 N           3.4754    0.6243    0.3441 N.ar    1  UNL1       -0.1937
     28 C           4.3450    1.2452    1.1618 C.ar    1  UNL1        0.1521
     29 C           4.0830    1.8546    2.4925 C.3     1  UNL1       -0.0027
     30 N           5.5725    1.2474    0.5847 N.ar    1  UNL1       -0.1324
     31 N           5.4546    0.6316   -0.5788 N.ar    1  UNL1       -0.1260
     32 C           4.1853    0.2374   -0.7581 C.ar    1  UNL1        0.1987
     33 H           2.8699   -0.8668   -4.5509 H       1  UNL1        0.0425
     34 H           2.9216   -2.3697   -3.5121 H       1  UNL1        0.0425
     35 H           4.2387   -2.0430   -4.6517 H       1  UNL1        0.0425
     36 H           5.2698   -0.6676   -3.0648 H       1  UNL1        0.1458
     37 H           1.6695   -1.1979   -2.4088 H       1  UNL1        0.0672
     38 H          -5.4080    0.7149   -0.8761 H       1  UNL1        0.0293
     39 H          -4.0806    0.8089   -2.1582 H       1  UNL1        0.0293
     40 H          -3.9626    1.7379   -0.6472 H       1  UNL1        0.0293
     41 H          -2.6666   -4.4330    0.5967 H       1  UNL1        0.0545
     42 H          -2.5111   -4.4180    3.1002 H       1  UNL1        0.0286
     43 H          -2.9901   -2.6195    3.1365 H       1  UNL1        0.0286
     44 H          -4.7328   -4.9433    1.9539 H       1  UNL1        0.0286
     45 H          -5.2101   -3.1628    1.9734 H       1  UNL1        0.0286
     46 H          -0.8459    0.3923   -1.9226 H       1  UNL1        0.0606
     47 H          -1.3460    2.6023   -2.1400 H       1  UNL1        0.0621
     48 H          -1.3110    4.8587   -1.2730 H       1  UNL1        0.0632
     49 H          -0.4735    3.3947    2.6401 H       1  UNL1        0.0632
     50 H          -0.5103    1.0775    1.7451 H       1  UNL1        0.0621
     51 H           4.2289    2.9698    2.4534 H       1  UNL1        0.0309
     52 H           3.0211    1.7009    2.7837 H       1  UNL1        0.0309
     53 H           4.7305    1.3984    3.2804 H       1  UNL1        0.0309
@<TRIPOS>BOND
     1     1     2    1
     2     2     3    1
     3     3     4   ar
     4     4     5   ar
     5     5     6    1
     6     6     7   am
     7     7     8    2
     8     7     9    1
     9     9    10   ar
    10    10    11   ar
    11    11    12    1
    12    11    13   ar
    13    13    14   ar
    14    14    15    1
    15    15    16    1
    16    16    17    1
    17    10    18    1
    18    18    19    1
    19    19    20   ar
    20    20    21   ar
    21    21    22   ar
    22    22    23    1
    23    22    24   ar
    24    24    25   ar
    25     5    26   ar
    26    26    27   ar
    27    27    28   ar
    28    28    29    1
    29    28    30   ar
    30    30    31   ar
    31    31    32   ar
    32    32     3   ar
    33    18     6    1
    34    25    19   ar
    35    32    27   ar
    36    14     9   ar
    37    17    15    1
    38     1    33    1
    39     1    34    1
    40     1    35    1
    41     2    36    1
    42     4    37    1
    43    12    38    1
    44    12    39    1
    45    12    40    1
    46    15    41    1
    47    16    42    1
    48    16    43    1
    49    17    44    1
    50    17    45    1
    51    18    46    1
    52    20    47    1
    53    21    48    1
    54    24    49    1
    55    25    50    1
    56    29    51    1
    57    29    52    1
    58    29    53    1
