@<TRIPOS>MOLECULE
*****
 59 63 0 0 0
SMALL
GASTEIGER

@<TRIPOS>ATOM
      1 C          -1.7604   -2.6196   -3.3235 C.ar    1  UNL1        0.1204
      2 N          -1.0620   -2.2115   -2.2607 N.ar    1  UNL1       -0.2202
      3 C          -1.6252   -1.5433   -1.2248 C.ar    1  UNL1        0.1317
      4 N          -0.8448   -1.1311   -0.1258 N.pl3   1  UNL1       -0.3256
      5 C           0.6055   -1.4403   -0.1129 C.3     1  UNL1        0.0221
      6 C           1.3091   -0.8099   -1.2828 C.3     1  UNL1       -0.0331
      7 C           2.8045   -0.8570   -0.9657 C.3     1  UNL1       -0.0357
      8 C           3.0440    0.2206    0.0904 C.3     1  UNL1        0.0107
      9 N           4.4190    0.1664    0.5513 N.3     1  UNL1       -0.2951
     10 C           4.6845    1.1682    1.5385 C.3     1  UNL1        0.0227
     11 C           5.7358    2.1406    1.0826 C.3     1  UNL1        0.0604
     12 O           6.9056    1.4621    0.8438 O.3     1  UNL1       -0.3772
     13 C           6.7727    0.3468    0.0278 C.3     1  UNL1        0.0604
     14 C           5.3632    0.2740   -0.5182 C.3     1  UNL1        0.0227
     15 C           2.0574    0.1367    1.2075 C.3     1  UNL1       -0.0357
     16 C           1.2244   -1.1126    1.1999 C.3     1  UNL1       -0.0331
     17 C          -2.9722   -1.2871   -1.2945 C.ar    1  UNL1        0.0618
     18 C          -3.8974   -0.6629   -0.4918 C.ar    1  UNL1       -0.0143
     19 C          -3.6460   -0.0361    0.8267 C.3     1  UNL1       -0.0096
     20 C          -3.1240    1.3766    0.7327 C.3     1  UNL1       -0.0225
     21 C          -4.0679    2.3385    0.0601 C.3     1  UNL1        0.0482
     22 O          -5.3784    2.1386    0.3632 O.3     1  UNL1       -0.3797
     23 C          -5.6289    1.3960    1.4750 C.3     1  UNL1        0.0482
     24 C          -4.9875    0.0714    1.5930 C.3     1  UNL1       -0.0225
     25 C          -5.1468   -0.7059   -1.0899 C.ar    1  UNL1        0.0077
     26 N          -4.9887   -1.3512   -2.2496 N.ar    1  UNL1       -0.3454
     27 C          -3.7140   -1.7131   -2.4095 C.ar    1  UNL1        0.1434
     28 N          -3.0910   -2.3633   -3.3865 N.ar    1  UNL1       -0.2178
     29 H          -1.2265   -3.1468   -4.1038 H       1  UNL1        0.1048
     30 H          -1.1432   -0.6297    0.6933 H       1  UNL1        0.1478
     31 H           0.6923   -2.5563   -0.2599 H       1  UNL1        0.0498
     32 H           1.0053    0.2387   -1.4604 H       1  UNL1        0.0284
     33 H           1.1897   -1.4443   -2.1995 H       1  UNL1        0.0284
     34 H           3.3248   -0.6402   -1.8974 H       1  UNL1        0.0281
     35 H           2.9937   -1.8746   -0.5628 H       1  UNL1        0.0281
     36 H           2.9124    1.1926   -0.4283 H       1  UNL1        0.0462
     37 H           3.7920    1.7563    1.8349 H       1  UNL1        0.0449
     38 H           5.0835    0.6794    2.4723 H       1  UNL1        0.0449
     39 H           5.3497    2.7191    0.2163 H       1  UNL1        0.0572
     40 H           5.9445    2.8719    1.8940 H       1  UNL1        0.0572
     41 H           7.4609    0.5233   -0.8489 H       1  UNL1        0.0572
     42 H           7.0555   -0.5939    0.5521 H       1  UNL1        0.0572
     43 H           5.2081    1.2024   -1.1270 H       1  UNL1        0.0449
     44 H           5.2956   -0.5999   -1.2297 H       1  UNL1        0.0449
     45 H           1.4159    1.0549    1.2644 H       1  UNL1        0.0281
     46 H           2.6277    0.1217    2.1818 H       1  UNL1        0.0281
     47 H           1.8531   -1.9503    1.6091 H       1  UNL1        0.0284
     48 H           0.4237   -0.9618    1.9788 H       1  UNL1        0.0284
     49 H          -3.0273   -0.5976    1.5105 H       1  UNL1        0.0351
     50 H          -2.1817    1.3495    0.1274 H       1  UNL1        0.0293
     51 H          -2.8928    1.7140    1.7636 H       1  UNL1        0.0293
     52 H          -3.9333    2.2804   -1.0401 H       1  UNL1        0.0560
     53 H          -3.7991    3.3797    0.3878 H       1  UNL1        0.0560
     54 H          -5.4730    2.0483    2.3722 H       1  UNL1        0.0560
     55 H          -6.7457    1.2078    1.4773 H       1  UNL1        0.0560
     56 H          -5.6093   -0.7926    1.2638 H       1  UNL1        0.0293
     57 H          -4.7856   -0.1115    2.6673 H       1  UNL1        0.0293
     58 H          -6.0376   -0.2882   -0.6590 H       1  UNL1        0.0810
     59 H          -5.7635   -1.5436   -2.9353 H       1  UNL1        0.1668
@<TRIPOS>BOND
     1     1     2   ar
     2     2     3   ar
     3     3     4    1
     4     4     5    1
     5     5     6    1
     6     6     7    1
     7     7     8    1
     8     8     9    1
     9     9    10    1
    10    10    11    1
    11    11    12    1
    12    12    13    1
    13    13    14    1
    14     8    15    1
    15    15    16    1
    16     3    17   ar
    17    17    18   ar
    18    18    19    1
    19    19    20    1
    20    20    21    1
    21    21    22    1
    22    22    23    1
    23    23    24    1
    24    18    25   ar
    25    25    26   ar
    26    26    27   ar
    27    27    28   ar
    28    28     1   ar
    29    16     5    1
    30    27    17   ar
    31    14     9    1
    32    24    19    1
    33     1    29    1
    34     4    30    1
    35     5    31    1
    36     6    32    1
    37     6    33    1
    38     7    34    1
    39     7    35    1
    40     8    36    1
    41    10    37    1
    42    10    38    1
    43    11    39    1
    44    11    40    1
    45    13    41    1
    46    13    42    1
    47    14    43    1
    48    14    44    1
    49    15    45    1
    50    15    46    1
    51    16    47    1
    52    16    48    1
    53    19    49    1
    54    20    50    1
    55    20    51    1
    56    21    52    1
    57    21    53    1
    58    23    54    1
    59    23    55    1
    60    24    56    1
    61    24    57    1
    62    25    58    1
    63    26    59    1
