
     RDKit          3D

 59 63  0  0  0  0  0  0  0  0999 V2000
   -1.7604   -2.6196   -3.3235 C   0  0  0  0  0  0  0  0  0  0  0  0
   -1.0620   -2.2115   -2.2607 N   0  0  0  0  0  0  0  0  0  0  0  0
   -1.6252   -1.5433   -1.2248 C   0  0  0  0  0  0  0  0  0  0  0  0
   -0.8448   -1.1311   -0.1258 N   0  0  0  0  0  0  0  0  0  0  0  0
    0.6055   -1.4403   -0.1129 C   0  0  1  0  0  0  0  0  0  0  0  0
    1.3091   -0.8099   -1.2828 C   0  0  0  0  0  0  0  0  0  0  0  0
    2.8045   -0.8570   -0.9657 C   0  0  0  0  0  0  0  0  0  0  0  0
    3.0440    0.2206    0.0904 C   0  0  2  0  0  0  0  0  0  0  0  0
    4.4190    0.1664    0.5513 N   0  0  0  0  0  0  0  0  0  0  0  0
    4.6845    1.1682    1.5385 C   0  0  0  0  0  0  0  0  0  0  0  0
    5.7358    2.1406    1.0826 C   0  0  0  0  0  0  0  0  0  0  0  0
    6.9056    1.4621    0.8438 O   0  0  0  0  0  0  0  0  0  0  0  0
    6.7727    0.3468    0.0278 C   0  0  0  0  0  0  0  0  0  0  0  0
    5.3632    0.2740   -0.5182 C   0  0  0  0  0  0  0  0  0  0  0  0
    2.0574    0.1367    1.2075 C   0  0  0  0  0  0  0  0  0  0  0  0
    1.2244   -1.1126    1.1999 C   0  0  0  0  0  0  0  0  0  0  0  0
   -2.9722   -1.2871   -1.2945 C   0  0  0  0  0  0  0  0  0  0  0  0
   -3.8974   -0.6629   -0.4918 C   0  0  0  0  0  0  0  0  0  0  0  0
   -3.6460   -0.0361    0.8267 C   0  0  0  0  0  0  0  0  0  0  0  0
   -3.1240    1.3766    0.7327 C   0  0  0  0  0  0  0  0  0  0  0  0
   -4.0679    2.3385    0.0601 C   0  0  0  0  0  0  0  0  0  0  0  0
   -5.3784    2.1386    0.3632 O   0  0  0  0  0  0  0  0  0  0  0  0
   -5.6289    1.3960    1.4750 C   0  0  0  0  0  0  0  0  0  0  0  0
   -4.9875    0.0714    1.5930 C   0  0  0  0  0  0  0  0  0  0  0  0
   -5.1468   -0.7059   -1.0899 C   0  0  0  0  0  0  0  0  0  0  0  0
   -4.9887   -1.3512   -2.2496 N   0  0  0  0  0  0  0  0  0  0  0  0
   -3.7140   -1.7131   -2.4095 C   0  0  0  0  0  0  0  0  0  0  0  0
   -3.0910   -2.3633   -3.3865 N   0  0  0  0  0  0  0  0  0  0  0  0
   -1.2265   -3.1468   -4.1038 H   0  0  0  0  0  0  0  0  0  0  0  0
   -1.1432   -0.6297    0.6933 H   0  0  0  0  0  0  0  0  0  0  0  0
    0.6923   -2.5563   -0.2599 H   0  0  0  0  0  0  0  0  0  0  0  0
    1.0053    0.2387   -1.4604 H   0  0  0  0  0  0  0  0  0  0  0  0
    1.1897   -1.4443   -2.1995 H   0  0  0  0  0  0  0  0  0  0  0  0
    3.3248   -0.6402   -1.8974 H   0  0  0  0  0  0  0  0  0  0  0  0
    2.9937   -1.8746   -0.5628 H   0  0  0  0  0  0  0  0  0  0  0  0
    2.9124    1.1926   -0.4283 H   0  0  0  0  0  0  0  0  0  0  0  0
    3.7920    1.7563    1.8349 H   0  0  0  0  0  0  0  0  0  0  0  0
    5.0835    0.6794    2.4723 H   0  0  0  0  0  0  0  0  0  0  0  0
    5.3497    2.7191    0.2163 H   0  0  0  0  0  0  0  0  0  0  0  0
    5.9445    2.8719    1.8940 H   0  0  0  0  0  0  0  0  0  0  0  0
    7.4609    0.5233   -0.8489 H   0  0  0  0  0  0  0  0  0  0  0  0
    7.0555   -0.5939    0.5521 H   0  0  0  0  0  0  0  0  0  0  0  0
    5.2081    1.2024   -1.1270 H   0  0  0  0  0  0  0  0  0  0  0  0
    5.2956   -0.5999   -1.2297 H   0  0  0  0  0  0  0  0  0  0  0  0
    1.4159    1.0549    1.2644 H   0  0  0  0  0  0  0  0  0  0  0  0
    2.6277    0.1217    2.1818 H   0  0  0  0  0  0  0  0  0  0  0  0
    1.8531   -1.9503    1.6091 H   0  0  0  0  0  0  0  0  0  0  0  0
    0.4237   -0.9618    1.9788 H   0  0  0  0  0  0  0  0  0  0  0  0
   -3.0273   -0.5976    1.5105 H   0  0  0  0  0  0  0  0  0  0  0  0
   -2.1817    1.3495    0.1274 H   0  0  0  0  0  0  0  0  0  0  0  0
   -2.8928    1.7140    1.7636 H   0  0  0  0  0  0  0  0  0  0  0  0
   -3.9333    2.2804   -1.0401 H   0  0  0  0  0  0  0  0  0  0  0  0
   -3.7991    3.3797    0.3878 H   0  0  0  0  0  0  0  0  0  0  0  0
   -5.4730    2.0483    2.3722 H   0  0  0  0  0  0  0  0  0  0  0  0
   -6.7457    1.2078    1.4773 H   0  0  0  0  0  0  0  0  0  0  0  0
   -5.6093   -0.7926    1.2638 H   0  0  0  0  0  0  0  0  0  0  0  0
   -4.7856   -0.1115    2.6673 H   0  0  0  0  0  0  0  0  0  0  0  0
   -6.0376   -0.2882   -0.6590 H   0  0  0  0  0  0  0  0  0  0  0  0
   -5.7635   -1.5436   -2.9353 H   0  0  0  0  0  0  0  0  0  0  0  0
  1  2  2  0
  2  3  1  0
  3  4  1  0
  4  5  1  0
  5  6  1  0
  6  7  1  0
  7  8  1  0
  8  9  1  0
  9 10  1  0
 10 11  1  0
 11 12  1  0
 12 13  1  0
 13 14  1  0
  8 15  1  0
 15 16  1  0
  3 17  2  0
 17 18  1  0
 18 19  1  0
 19 20  1  0
 20 21  1  0
 21 22  1  0
 22 23  1  0
 23 24  1  0
 18 25  2  0
 25 26  1  0
 26 27  1  0
 27 28  2  0
 28  1  1  0
 16  5  1  0
 27 17  1  0
 14  9  1  0
 24 19  1  0
  1 29  1  0
  4 30  1  0
  5 31  1  6
  6 32  1  0
  6 33  1  0
  7 34  1  0
  7 35  1  0
  8 36  1  6
 10 37  1  0
 10 38  1  0
 11 39  1  0
 11 40  1  0
 13 41  1  0
 13 42  1  0
 14 43  1  0
 14 44  1  0
 15 45  1  0
 15 46  1  0
 16 47  1  0
 16 48  1  0
 19 49  1  0
 20 50  1  0
 20 51  1  0
 21 52  1  0
 21 53  1  0
 23 54  1  0
 23 55  1  0
 24 56  1  0
 24 57  1  0
 25 58  1  0
 26 59  1  0
M  END
$$$$
