
     RDKit          3D

 50 52  0  0  0  0  0  0  0  0999 V2000
    6.9699   -0.1654   -1.7609 C   0  0  0  0  0  0  0  0  0  0  0  0
    5.6603   -0.2863   -2.4739 C   0  0  0  0  0  0  0  0  0  0  0  0
    4.5027    0.2071   -1.6138 C   0  0  0  0  0  0  0  0  0  0  0  0
    4.4045   -0.5801   -0.3566 C   0  0  0  0  0  0  0  0  0  0  0  0
    3.3336   -0.1982    0.5165 N   0  0  0  0  0  0  0  0  0  0  0  0
    3.4801    0.8075    1.5492 C   0  0  0  0  0  0  0  0  0  0  0  0
    4.5482    1.4293    1.7701 O   0  0  0  0  0  0  0  0  0  0  0  0
    2.1869    0.8838    2.1850 C   0  0  0  0  0  0  0  0  0  0  0  0
    1.9019    1.6449    3.1357 O   0  0  0  0  0  0  0  0  0  0  0  0
    1.2762   -0.0758    1.5290 C   0  0  0  0  0  0  0  0  0  0  0  0
   -0.0544   -0.3777    1.7693 C   0  0  0  0  0  0  0  0  0  0  0  0
   -0.7411   -1.3183    1.0385 C   0  0  0  0  0  0  0  0  0  0  0  0
   -2.4182   -1.7094    1.3315 S   0  0  0  0  0  6  0  0  0  0  0  0
   -2.6714   -3.1849    1.1387 O   0  0  0  0  0  0  0  0  0  0  0  0
   -2.7717   -1.4481    2.7926 O   0  0  0  0  0  0  0  0  0  0  0  0
   -3.4685   -0.7504    0.4008 N   0  0  0  0  0  0  0  0  0  0  0  0
   -3.2528   -0.9524   -0.9945 C   0  0  0  0  0  0  0  0  0  0  0  0
   -3.4918    0.4215   -1.6464 C   0  0  0  0  0  0  0  0  0  0  0  0
   -2.9139    1.3376   -0.5935 C   0  0  0  0  0  0  0  0  0  0  0  0
   -3.3026    0.6315    0.6935 C   0  0  1  0  0  0  0  0  0  0  0  0
   -4.6093    1.2573    1.2094 C   0  0  0  0  0  0  0  0  0  0  0  0
   -5.5741    1.1205    0.2453 O   0  0  0  0  0  0  0  0  0  0  0  0
   -6.7966    1.6434    0.5874 C   0  0  0  0  0  0  0  0  0  0  0  0
   -0.0070   -1.9423    0.0464 C   0  0  0  0  0  0  0  0  0  0  0  0
    1.3173   -1.6538   -0.2058 C   0  0  0  0  0  0  0  0  0  0  0  0
    2.2525   -2.7123   -1.7524 I   0  0  0  0  0  0  0  0  0  0  0  0
    2.0040   -0.7090    0.5284 C   0  0  0  0  0  0  0  0  0  0  0  0
    7.4143   -1.1518   -1.5060 H   0  0  0  0  0  0  0  0  0  0  0  0
    6.9259    0.4099   -0.8223 H   0  0  0  0  0  0  0  0  0  0  0  0
    7.7556    0.3473   -2.3891 H   0  0  0  0  0  0  0  0  0  0  0  0
    5.4654   -1.3098   -2.8733 H   0  0  0  0  0  0  0  0  0  0  0  0
    5.6993    0.4321   -3.3434 H   0  0  0  0  0  0  0  0  0  0  0  0
    4.7226    1.2860   -1.4486 H   0  0  0  0  0  0  0  0  0  0  0  0
    3.5925    0.1860   -2.2327 H   0  0  0  0  0  0  0  0  0  0  0  0
    4.3465   -1.6411   -0.5875 H   0  0  0  0  0  0  0  0  0  0  0  0
    5.4019   -0.4759    0.2035 H   0  0  0  0  0  0  0  0  0  0  0  0
   -0.5608    0.1418    2.5619 H   0  0  0  0  0  0  0  0  0  0  0  0
   -2.2001   -1.1849   -1.2508 H   0  0  0  0  0  0  0  0  0  0  0  0
   -3.9123   -1.7217   -1.4464 H   0  0  0  0  0  0  0  0  0  0  0  0
   -2.9367    0.4815   -2.6049 H   0  0  0  0  0  0  0  0  0  0  0  0
   -4.5785    0.5171   -1.7709 H   0  0  0  0  0  0  0  0  0  0  0  0
   -1.8111    1.3232   -0.7081 H   0  0  0  0  0  0  0  0  0  0  0  0
   -3.3267    2.3641   -0.6518 H   0  0  0  0  0  0  0  0  0  0  0  0
   -2.5424    0.8087    1.4790 H   0  0  0  0  0  0  0  0  0  0  0  0
   -4.4521    2.3266    1.4184 H   0  0  0  0  0  0  0  0  0  0  0  0
   -4.8957    0.7814    2.1694 H   0  0  0  0  0  0  0  0  0  0  0  0
   -6.6475    2.7413    0.7815 H   0  0  0  0  0  0  0  0  0  0  0  0
   -7.4617    1.5850   -0.3019 H   0  0  0  0  0  0  0  0  0  0  0  0
   -7.2327    1.1392    1.4770 H   0  0  0  0  0  0  0  0  0  0  0  0
   -0.5301   -2.7059   -0.5506 H   0  0  0  0  0  0  0  0  0  0  0  0
  1  2  1  0
  2  3  1  0
  3  4  1  0
  4  5  1  0
  5  6  1  0
  6  7  2  0
  6  8  1  0
  8  9  2  0
  8 10  1  0
 10 11  2  0
 11 12  1  0
 12 13  1  0
 13 14  2  0
 13 15  2  0
 13 16  1  0
 16 17  1  0
 17 18  1  0
 18 19  1  0
 19 20  1  0
 20 21  1  0
 21 22  1  0
 22 23  1  0
 12 24  2  0
 24 25  1  0
 25 26  1  0
 25 27  2  0
 27  5  1  0
 27 10  1  0
 20 16  1  0
  1 28  1  0
  1 29  1  0
  1 30  1  0
  2 31  1  0
  2 32  1  0
  3 33  1  0
  3 34  1  0
  4 35  1  0
  4 36  1  0
 11 37  1  0
 17 38  1  0
 17 39  1  0
 18 40  1  0
 18 41  1  0
 19 42  1  0
 19 43  1  0
 20 44  1  1
 21 45  1  0
 21 46  1  0
 23 47  1  0
 23 48  1  0
 23 49  1  0
 24 50  1  0
M  END
$$$$
