@<TRIPOS>MOLECULE
*****
 50 52 0 0 0
SMALL
GASTEIGER

@<TRIPOS>ATOM
      1 C           6.9699   -0.1654   -1.7609 C.3     1  UNL1       -0.0652
      2 C           5.6603   -0.2863   -2.4739 C.3     1  UNL1       -0.0545
      3 C           4.5027    0.2071   -1.6138 C.3     1  UNL1       -0.0370
      4 C           4.4045   -0.5801   -0.3566 C.3     1  UNL1        0.0202
      5 N           3.3336   -0.1982    0.5165 N.am    1  UNL1       -0.2631
      6 C           3.4801    0.8075    1.5492 C.2     1  UNL1        0.2913
      7 O           4.5482    1.4293    1.7701 O.2     1  UNL1       -0.2661
      8 C           2.1869    0.8838    2.1850 C.2     1  UNL1        0.2496
      9 O           1.9019    1.6449    3.1357 O.2     1  UNL1       -0.2817
     10 C           1.2762   -0.0758    1.5290 C.ar    1  UNL1        0.0512
     11 C          -0.0544   -0.3777    1.7693 C.ar    1  UNL1       -0.0225
     12 C          -0.7411   -1.3183    1.0385 C.ar    1  UNL1        0.1073
     13 S          -2.4182   -1.7094    1.3315 S.O2    1  UNL1        0.0612
     14 O          -2.6714   -3.1849    1.1387 O.2     1  UNL1       -0.1528
     15 O          -2.7717   -1.4481    2.7926 O.2     1  UNL1       -0.1528
     16 N          -3.4685   -0.7504    0.4008 N.3     1  UNL1       -0.1713
     17 C          -3.2528   -0.9524   -0.9945 C.3     1  UNL1        0.0209
     18 C          -3.4918    0.4215   -1.6464 C.3     1  UNL1       -0.0370
     19 C          -2.9139    1.3376   -0.5935 C.3     1  UNL1       -0.0323
     20 C          -3.3026    0.6315    0.6935 C.3     1  UNL1        0.0552
     21 C          -4.6093    1.2573    1.2094 C.3     1  UNL1        0.0645
     22 O          -5.5741    1.1205    0.2453 O.3     1  UNL1       -0.3814
     23 C          -6.7966    1.6434    0.5874 C.3     1  UNL1        0.0365
     24 C          -0.0070   -1.9423    0.0464 C.ar    1  UNL1       -0.0204
     25 C           1.3173   -1.6538   -0.2058 C.ar    1  UNL1        0.0373
     26 I           2.2525   -2.7123   -1.7524 I       1  UNL1       -0.0418
     27 C           2.0040   -0.7090    0.5284 C.ar    1  UNL1        0.0608
     28 H           7.4143   -1.1518   -1.5060 H       1  UNL1        0.0230
     29 H           6.9259    0.4099   -0.8223 H       1  UNL1        0.0230
     30 H           7.7556    0.3473   -2.3891 H       1  UNL1        0.0230
     31 H           5.4654   -1.3098   -2.8733 H       1  UNL1        0.0263
     32 H           5.6993    0.4321   -3.3434 H       1  UNL1        0.0263
     33 H           4.7226    1.2860   -1.4486 H       1  UNL1        0.0280
     34 H           3.5925    0.1860   -2.2327 H       1  UNL1        0.0280
     35 H           4.3465   -1.6411   -0.5875 H       1  UNL1        0.0469
     36 H           5.4019   -0.4759    0.2035 H       1  UNL1        0.0469
     37 H          -0.5608    0.1418    2.5619 H       1  UNL1        0.0645
     38 H          -2.2001   -1.1849   -1.2508 H       1  UNL1        0.0444
     39 H          -3.9123   -1.7217   -1.4464 H       1  UNL1        0.0444
     40 H          -2.9367    0.4815   -2.6049 H       1  UNL1        0.0279
     41 H          -4.5785    0.5171   -1.7709 H       1  UNL1        0.0279
     42 H          -1.8111    1.3232   -0.7081 H       1  UNL1        0.0282
     43 H          -3.3267    2.3641   -0.6518 H       1  UNL1        0.0282
     44 H          -2.5424    0.8087    1.4790 H       1  UNL1        0.0502
     45 H          -4.4521    2.3266    1.4184 H       1  UNL1        0.0576
     46 H          -4.8957    0.7814    2.1694 H       1  UNL1        0.0576
     47 H          -6.6475    2.7413    0.7815 H       1  UNL1        0.0523
     48 H          -7.4617    1.5850   -0.3019 H       1  UNL1        0.0523
     49 H          -7.2327    1.1392    1.4770 H       1  UNL1        0.0523
     50 H          -0.5301   -2.7059   -0.5506 H       1  UNL1        0.0648
@<TRIPOS>BOND
     1     1     2    1
     2     2     3    1
     3     3     4    1
     4     4     5    1
     5     5     6   am
     6     6     7    2
     7     6     8    1
     8     8     9    2
     9     8    10    1
    10    10    11   ar
    11    11    12   ar
    12    12    13    1
    13    13    14    2
    14    13    15    2
    15    13    16    1
    16    16    17    1
    17    17    18    1
    18    18    19    1
    19    19    20    1
    20    20    21    1
    21    21    22    1
    22    22    23    1
    23    12    24   ar
    24    24    25   ar
    25    25    26    1
    26    25    27   ar
    27    27     5    1
    28    27    10   ar
    29    20    16    1
    30     1    28    1
    31     1    29    1
    32     1    30    1
    33     2    31    1
    34     2    32    1
    35     3    33    1
    36     3    34    1
    37     4    35    1
    38     4    36    1
    39    11    37    1
    40    17    38    1
    41    17    39    1
    42    18    40    1
    43    18    41    1
    44    19    42    1
    45    19    43    1
    46    20    44    1
    47    21    45    1
    48    21    46    1
    49    23    47    1
    50    23    48    1
    51    23    49    1
    52    24    50    1
