@<TRIPOS>MOLECULE
*****
 53 55 0 0 0
SMALL
GASTEIGER

@<TRIPOS>ATOM
      1 C          -8.8805   -3.1842    0.7396 C.3     1  UNL1       -0.0205
      2 C          -7.4598   -2.9733    0.2849 C.ar    1  UNL1        0.0625
      3 C          -6.6829   -3.8930   -0.4053 C.ar    1  UNL1        0.0052
      4 C          -5.4727   -3.2677   -0.6071 C.ar    1  UNL1        0.1556
      5 N          -4.3428   -3.6812   -1.2209 N.ar    1  UNL1       -0.2353
      6 C          -3.2533   -2.9017   -1.3130 C.ar    1  UNL1        0.0435
      7 C          -3.2502   -1.6221   -0.7713 C.ar    1  UNL1        0.0729
      8 C          -2.0393   -0.7939   -0.8961 C.2     1  UNL1        0.2471
      9 O          -1.0908   -1.2821   -1.5271 O.2     1  UNL1       -0.2701
     10 N          -1.9002    0.4923   -0.3515 N.am    1  UNL1       -0.3095
     11 C          -0.8272    1.3980   -0.3610 C.3     1  UNL1        0.0297
     12 C           0.4418    1.0708    0.3555 C.3     1  UNL1        0.0294
     13 C           1.1785   -0.1213   -0.0920 C.3     1  UNL1       -0.0456
     14 C          -0.0886    0.7208    1.8226 C.3     1  UNL1       -0.0456
     15 N           1.2113    2.2665    0.5907 N.3     1  UNL1       -0.3017
     16 C           2.5792    2.0420    0.8731 C.3     1  UNL1        0.0739
     17 C           3.4132    1.7678   -0.3294 C.2     1  UNL1        0.2304
     18 O           2.7554    1.8444   -1.4401 O.2     1  UNL1       -0.2742
     19 N           4.7773    1.4520   -0.3298 N.am    1  UNL1       -0.2846
     20 C           5.5348    1.1809   -1.5458 C.3     1  UNL1        0.0160
     21 C           6.9028    1.7437   -1.2469 C.3     1  UNL1       -0.0345
     22 C           6.8907    2.1364    0.2124 C.3     1  UNL1       -0.0196
     23 C           5.6946    1.3210    0.7370 C.3     1  UNL1        0.1129
     24 C           5.2620    1.8118    2.0150 C.1     1  UNL1        0.0851
     25 N           4.9067    2.2023    3.0470 N.1     1  UNL1       -0.1946
     26 C          -4.4026   -1.2243   -0.1553 C.ar    1  UNL1        0.0450
     27 N          -5.4977   -2.0378   -0.0756 N.ar    1  UNL1       -0.2208
     28 N          -6.6981   -1.8934    0.4492 N.ar    1  UNL1       -0.1702
     29 H          -9.0570   -4.1935    1.1206 H       1  UNL1        0.0293
     30 H          -9.0887   -2.4452    1.5508 H       1  UNL1        0.0293
     31 H          -9.5373   -2.8960   -0.1091 H       1  UNL1        0.0293
     32 H          -7.0239   -4.8617   -0.6854 H       1  UNL1        0.0673
     33 H          -2.3706   -3.2706   -1.8122 H       1  UNL1        0.0838
     34 H          -2.8158    0.8054    0.1656 H       1  UNL1        0.1491
     35 H          -1.1691    2.3869    0.0727 H       1  UNL1        0.0480
     36 H          -0.5111    1.7012   -1.4029 H       1  UNL1        0.0480
     37 H           0.6737   -1.0302    0.3730 H       1  UNL1        0.0248
     38 H           1.2601   -0.2487   -1.1722 H       1  UNL1        0.0248
     39 H           2.2389   -0.1627    0.2912 H       1  UNL1        0.0248
     40 H          -0.3232    1.6553    2.3392 H       1  UNL1        0.0248
     41 H           0.7369    0.2083    2.3056 H       1  UNL1        0.0248
     42 H          -0.9633    0.0884    1.7475 H       1  UNL1        0.0248
     43 H           1.0600    2.9108   -0.2133 H       1  UNL1        0.1229
     44 H           2.9813    3.0321    1.2604 H       1  UNL1        0.0520
     45 H           2.7406    1.2589    1.6545 H       1  UNL1        0.0520
     46 H           5.6455    0.0880   -1.7151 H       1  UNL1        0.0465
     47 H           5.0568    1.6367   -2.4334 H       1  UNL1        0.0465
     48 H           7.7062    0.9672   -1.3622 H       1  UNL1        0.0281
     49 H           7.1238    2.6441   -1.8845 H       1  UNL1        0.0281
     50 H           7.8117    1.9138    0.7522 H       1  UNL1        0.0294
     51 H           6.5898    3.2238    0.2709 H       1  UNL1        0.0294
     52 H           6.0431    0.2569    0.7763 H       1  UNL1        0.0659
     53 H          -4.4699   -0.2438    0.2854 H       1  UNL1        0.0839
@<TRIPOS>BOND
     1     1     2    1
     2     2     3   ar
     3     3     4   ar
     4     4     5   ar
     5     5     6   ar
     6     6     7   ar
     7     7     8    1
     8     8     9    2
     9     8    10   am
    10    10    11    1
    11    11    12    1
    12    12    13    1
    13    12    14    1
    14    12    15    1
    15    15    16    1
    16    16    17    1
    17    17    18    2
    18    17    19   am
    19    19    20    1
    20    20    21    1
    21    21    22    1
    22    22    23    1
    23    23    24    1
    24    24    25    3
    25     7    26   ar
    26    26    27   ar
    27    27    28   ar
    28    28     2   ar
    29    27     4   ar
    30    23    19    1
    31     1    29    1
    32     1    30    1
    33     1    31    1
    34     3    32    1
    35     6    33    1
    36    10    34    1
    37    11    35    1
    38    11    36    1
    39    13    37    1
    40    13    38    1
    41    13    39    1
    42    14    40    1
    43    14    41    1
    44    14    42    1
    45    15    43    1
    46    16    44    1
    47    16    45    1
    48    20    46    1
    49    20    47    1
    50    21    48    1
    51    21    49    1
    52    22    50    1
    53    22    51    1
    54    23    52    1
    55    26    53    1
