
     RDKit          3D

 37 39  0  0  0  0  0  0  0  0999 V2000
    6.0783   -3.6640   -0.5502 F   0  0  0  0  0  0  0  0  0  0  0  0
    5.2451   -2.6182   -0.5414 C   0  0  0  0  0  0  0  0  0  0  0  0
    5.1437   -1.7904    0.5576 C   0  0  0  0  0  0  0  0  0  0  0  0
    4.3211   -0.6832    0.6834 C   0  0  0  0  0  0  0  0  0  0  0  0
    3.5327   -0.4032   -0.4208 C   0  0  0  0  0  0  0  0  0  0  0  0
    2.6700    0.7331   -0.3279 N   0  0  0  0  0  0  0  0  0  0  0  0
    1.3309    0.8088    0.1377 C   0  0  0  0  0  0  0  0  0  0  0  0
    0.6791   -0.1723    0.5581 O   0  0  0  0  0  0  0  0  0  0  0  0
    0.6857    2.1183    0.1197 C   0  0  0  0  0  0  0  0  0  0  0  0
    1.1883    3.2993   -0.2852 N   0  0  0  0  0  0  0  0  0  0  0  0
    0.2771    4.2560   -0.1407 N   0  0  0  0  0  0  0  0  0  0  0  0
   -0.8569    3.7190    0.3680 C   0  0  0  0  0  0  0  0  0  0  0  0
   -0.5961    2.3616    0.5329 C   0  0  0  0  0  0  0  0  0  0  0  0
   -1.5108    1.3987    1.0440 N   0  0  0  0  0  0  0  0  0  0  0  0
   -2.2604    0.8375   -0.0016 C   0  0  0  0  0  0  0  0  0  0  0  0
   -1.9466    1.3167   -1.1340 O   0  0  0  0  0  0  0  0  0  0  0  0
   -3.3047   -0.1741    0.0189 C   0  0  0  0  0  0  0  0  0  0  0  0
   -3.8515   -0.5123   -1.2022 C   0  0  0  0  0  0  0  0  0  0  0  0
   -3.4864    0.0270   -2.4032 F   0  0  0  0  0  0  0  0  0  0  0  0
   -4.8633   -1.4791   -1.2682 C   0  0  0  0  0  0  0  0  0  0  0  0
   -5.3560   -2.1277   -0.1571 C   0  0  0  0  0  0  0  0  0  0  0  0
   -4.8053   -1.7851    1.0597 C   0  0  0  0  0  0  0  0  0  0  0  0
   -3.8117   -0.8337    1.1121 C   0  0  0  0  0  0  0  0  0  0  0  0
   -3.2966   -0.5237    2.3173 F   0  0  0  0  0  0  0  0  0  0  0  0
    3.5810   -1.1925   -1.5639 C   0  0  0  0  0  0  0  0  0  0  0  0
    4.4318   -2.2789   -1.6017 C   0  0  0  0  0  0  0  0  0  0  0  0
    5.7603   -1.9961    1.4422 H   0  0  0  0  0  0  0  0  0  0  0  0
    4.3013   -0.0921    1.5714 H   0  0  0  0  0  0  0  0  0  0  0  0
    3.1679    1.5857   -0.6686 H   0  0  0  0  0  0  0  0  0  0  0  0
    0.2810    5.2692   -0.3350 H   0  0  0  0  0  0  0  0  0  0  0  0
   -1.8047    4.1823    0.6196 H   0  0  0  0  0  0  0  0  0  0  0  0
   -1.7239    1.0443    2.0003 H   0  0  0  0  0  0  0  0  0  0  0  0
   -5.2977   -1.7518   -2.2124 H   0  0  0  0  0  0  0  0  0  0  0  0
   -6.1330   -2.8705   -0.2055 H   0  0  0  0  0  0  0  0  0  0  0  0
   -5.1433   -2.2511    1.9572 H   0  0  0  0  0  0  0  0  0  0  0  0
    2.9244   -0.8798   -2.3588 H   0  0  0  0  0  0  0  0  0  0  0  0
    4.4494   -2.8777   -2.5059 H   0  0  0  0  0  0  0  0  0  0  0  0
  1  2  1  0
  2  3  2  0
  3  4  1  0
  4  5  2  0
  5  6  1  0
  6  7  1  0
  7  8  2  0
  7  9  1  0
  9 10  2  0
 10 11  1  0
 11 12  1  0
 12 13  2  0
 13 14  1  0
 14 15  1  0
 15 16  2  0
 15 17  1  0
 17 18  2  0
 18 19  1  0
 18 20  1  0
 20 21  2  0
 21 22  1  0
 22 23  2  0
 23 24  1  0
  5 25  1  0
 25 26  2  0
 26  2  1  0
 13  9  1  0
 23 17  1  0
  3 27  1  0
  4 28  1  0
  6 29  1  0
 11 30  1  0
 12 31  1  0
 14 32  1  0
 20 33  1  0
 21 34  1  0
 22 35  1  0
 25 36  1  0
 26 37  1  0
M  END
$$$$
