@<TRIPOS>MOLECULE
*****
 37 39 0 0 0
SMALL
GASTEIGER

@<TRIPOS>ATOM
      1 F           6.0783   -3.6640   -0.5502 F       1  UNL1       -0.2055
      2 C           5.2451   -2.6182   -0.5414 C.ar    1  UNL1        0.1235
      3 C           5.1437   -1.7904    0.5576 C.ar    1  UNL1       -0.0247
      4 C           4.3211   -0.6832    0.6834 C.ar    1  UNL1       -0.0378
      5 C           3.5327   -0.4032   -0.4208 C.ar    1  UNL1        0.0339
      6 N           2.6700    0.7331   -0.3279 N.am    1  UNL1       -0.2801
      7 C           1.3309    0.8088    0.1377 C.2     1  UNL1        0.2702
      8 O           0.6791   -0.1723    0.5581 O.2     1  UNL1       -0.2680
      9 C           0.6857    2.1183    0.1197 C.ar    1  UNL1        0.1682
     10 N           1.1883    3.2993   -0.2852 N.ar    1  UNL1       -0.1673
     11 N           0.2771    4.2560   -0.1407 N.ar    1  UNL1       -0.2822
     12 C          -0.8569    3.7190    0.3680 C.ar    1  UNL1        0.0443
     13 C          -0.5961    2.3616    0.5329 C.ar    1  UNL1        0.0838
     14 N          -1.5108    1.3987    1.0440 N.am    1  UNL1       -0.2782
     15 C          -2.2604    0.8375   -0.0016 C.2     1  UNL1        0.2539
     16 O          -1.9466    1.3167   -1.1340 O.2     1  UNL1       -0.2697
     17 C          -3.3047   -0.1741    0.0189 C.ar    1  UNL1        0.1072
     18 C          -3.8515   -0.5123   -1.2022 C.ar    1  UNL1        0.1383
     19 F          -3.4864    0.0270   -2.4032 F       1  UNL1       -0.2046
     20 C          -4.8633   -1.4791   -1.2682 C.ar    1  UNL1       -0.0255
     21 C          -5.3560   -2.1277   -0.1571 C.ar    1  UNL1       -0.0563
     22 C          -4.8053   -1.7851    1.0597 C.ar    1  UNL1       -0.0255
     23 C          -3.8117   -0.8337    1.1121 C.ar    1  UNL1        0.1383
     24 F          -3.2966   -0.5237    2.3173 F       1  UNL1       -0.2046
     25 C           3.5810   -1.1925   -1.5639 C.ar    1  UNL1       -0.0378
     26 C           4.4318   -2.2789   -1.6017 C.ar    1  UNL1       -0.0247
     27 H           5.7603   -1.9961    1.4422 H       1  UNL1        0.0647
     28 H           4.3013   -0.0921    1.5714 H       1  UNL1        0.0637
     29 H           3.1679    1.5857   -0.6686 H       1  UNL1        0.1552
     30 H           0.2810    5.2692   -0.3350 H       1  UNL1        0.1883
     31 H          -1.8047    4.1823    0.6196 H       1  UNL1        0.0843
     32 H          -1.7239    1.0443    2.0003 H       1  UNL1        0.1552
     33 H          -5.2977   -1.7518   -2.2124 H       1  UNL1        0.0646
     34 H          -6.1330   -2.8705   -0.2055 H       1  UNL1        0.0619
     35 H          -5.1433   -2.2511    1.9572 H       1  UNL1        0.0646
     36 H           2.9244   -0.8798   -2.3588 H       1  UNL1        0.0637
     37 H           4.4494   -2.8777   -2.5059 H       1  UNL1        0.0647
@<TRIPOS>BOND
     1     1     2    1
     2     2     3   ar
     3     3     4   ar
     4     4     5   ar
     5     5     6    1
     6     6     7   am
     7     7     8    2
     8     7     9    1
     9     9    10   ar
    10    10    11   ar
    11    11    12   ar
    12    12    13   ar
    13    13    14    1
    14    14    15   am
    15    15    16    2
    16    15    17    1
    17    17    18   ar
    18    18    19    1
    19    18    20   ar
    20    20    21   ar
    21    21    22   ar
    22    22    23   ar
    23    23    24    1
    24     5    25   ar
    25    25    26   ar
    26    26     2   ar
    27    13     9   ar
    28    23    17   ar
    29     3    27    1
    30     4    28    1
    31     6    29    1
    32    11    30    1
    33    12    31    1
    34    14    32    1
    35    20    33    1
    36    21    34    1
    37    22    35    1
    38    25    36    1
    39    26    37    1
