@<TRIPOS>MOLECULE
*****
 61 65 0 0 0
SMALL
GASTEIGER

@<TRIPOS>ATOM
      1 C           0.9075    0.5138    0.3545 C.3     1  UNL1       -0.0277
      2 C           1.4788    1.8743    0.3119 C.3     1  UNL1       -0.0457
      3 C           2.8759    1.5838    0.8888 C.3     1  UNL1       -0.0120
      4 C           3.2552    0.2298    0.3662 C.3     1  UNL1        0.1196
      5 C           3.9976   -0.6153    1.3381 C.3     1  UNL1       -0.0022
      6 C           5.1735    0.3341    1.6245 C.3     1  UNL1        0.0486
      7 C           5.3825    0.8786    0.2438 C.2     1  UNL1        0.3077
      8 O           6.3530    1.5892   -0.1887 O.2     1  UNL1       -0.2508
      9 O           4.3173    0.4898   -0.5678 O.3     1  UNL1       -0.4575
     10 C           2.0331   -0.3261   -0.2259 C.3     1  UNL1        0.0109
     11 C           2.1099   -0.0394   -1.7252 C.3     1  UNL1       -0.0557
     12 C           1.7259   -1.7647   -0.0195 C.3     1  UNL1       -0.0434
     13 C           0.3581   -2.1590    0.3392 C.3     1  UNL1       -0.0485
     14 C          -0.7206   -1.1356    0.2453 C.3     1  UNL1       -0.0278
     15 C          -0.2836    0.1656   -0.4303 C.3     1  UNL1       -0.0214
     16 C          -1.4228    1.1002   -0.5222 C.3     1  UNL1        0.0195
     17 C          -2.5569    0.7853    0.4371 C.3     1  UNL1       -0.0182
     18 C          -3.0332   -0.5615    0.1182 C.2     1  UNL1       -0.0590
     19 C          -4.3167   -0.8270    0.1795 C.2     1  UNL1       -0.0194
     20 C          -4.7375   -2.1983   -0.1519 C.2     1  UNL1        0.1561
     21 O          -5.8497   -2.4553   -0.6625 O.2     1  UNL1       -0.2927
     22 C          -3.8120   -3.3346    0.1266 C.3     1  UNL1        0.0107
     23 C          -2.4341   -2.8368    0.5178 C.3     1  UNL1       -0.0366
     24 C          -2.0339   -1.6197   -0.2759 C.3     1  UNL1       -0.0071
     25 C          -2.0471   -1.8926   -1.7569 C.3     1  UNL1       -0.0556
     26 S          -0.9876    2.8475   -0.4130 S.3     1  UNL1       -0.0844
     27 C          -2.4263    3.8697   -0.5348 C.2     1  UNL1        0.1866
     28 C          -2.0387    5.3238   -0.4411 C.3     1  UNL1        0.0044
     29 O          -3.6381    3.6497   -0.6754 O.2     1  UNL1       -0.2855
     30 H           0.8813    0.2286    1.4379 H       1  UNL1        0.0310
     31 H           1.5405    2.3773   -0.6476 H       1  UNL1        0.0269
     32 H           1.0321    2.5182    1.1152 H       1  UNL1        0.0269
     33 H           3.5911    2.3900    0.6638 H       1  UNL1        0.0304
     34 H           2.8352    1.4881    1.9937 H       1  UNL1        0.0304
     35 H           4.4810   -1.4568    0.8169 H       1  UNL1        0.0309
     36 H           3.4629   -0.8933    2.2468 H       1  UNL1        0.0309
     37 H           6.1025   -0.2300    1.8571 H       1  UNL1        0.0379
     38 H           4.9058    1.0965    2.3562 H       1  UNL1        0.0379
     39 H           1.6181    0.8790   -2.0296 H       1  UNL1        0.0236
     40 H           3.1709    0.0397   -2.0474 H       1  UNL1        0.0236
     41 H           1.7227   -0.9296   -2.3024 H       1  UNL1        0.0236
     42 H           2.4510   -2.1345    0.7572 H       1  UNL1        0.0272
     43 H           2.0681   -2.3241   -0.9341 H       1  UNL1        0.0272
     44 H           0.0135   -3.0040   -0.3194 H       1  UNL1        0.0268
     45 H           0.3431   -2.6382    1.3549 H       1  UNL1        0.0268
     46 H          -0.9448   -0.7892    1.2993 H       1  UNL1        0.0312
     47 H          -0.0344   -0.1794   -1.4714 H       1  UNL1        0.0317
     48 H          -1.9342    1.0318   -1.5127 H       1  UNL1        0.0422
     49 H          -3.3779    1.5115    0.2322 H       1  UNL1        0.0321
     50 H          -2.2740    0.9392    1.4921 H       1  UNL1        0.0321
     51 H          -5.0890   -0.1252    0.4522 H       1  UNL1        0.0652
     52 H          -3.7653   -3.9946   -0.7606 H       1  UNL1        0.0345
     53 H          -4.2832   -3.9143    0.9466 H       1  UNL1        0.0345
     54 H          -2.5399   -2.5073    1.5890 H       1  UNL1        0.0278
     55 H          -1.7503   -3.6815    0.4551 H       1  UNL1        0.0278
     56 H          -2.6581   -1.2079   -2.3499 H       1  UNL1        0.0238
     57 H          -0.9786   -1.9507   -2.0778 H       1  UNL1        0.0238
     58 H          -2.4360   -2.9309   -1.9018 H       1  UNL1        0.0238
     59 H          -1.5916    5.4203    0.5862 H       1  UNL1        0.0315
     60 H          -2.8938    6.0005   -0.5506 H       1  UNL1        0.0315
     61 H          -1.2980    5.5018   -1.2473 H       1  UNL1        0.0315
@<TRIPOS>BOND
     1     1     2    1
     2     2     3    1
     3     3     4    1
     4     4     5    1
     5     5     6    1
     6     6     7    1
     7     7     8    2
     8     7     9    1
     9     4    10    1
    10    10    11    1
    11    10    12    1
    12    12    13    1
    13    13    14    1
    14    14    15    1
    15    15    16    1
    16    16    17    1
    17    17    18    1
    18    18    19    2
    19    19    20    1
    20    20    21    2
    21    20    22    1
    22    22    23    1
    23    23    24    1
    24    24    25    1
    25    16    26    1
    26    26    27    1
    27    27    28    1
    28    27    29    2
    29    10     1    1
    30    24    14    1
    31    15     1    1
    32    24    18    1
    33     4     9    1
    34     1    30    1
    35     2    31    1
    36     2    32    1
    37     3    33    1
    38     3    34    1
    39     5    35    1
    40     5    36    1
    41     6    37    1
    42     6    38    1
    43    11    39    1
    44    11    40    1
    45    11    41    1
    46    12    42    1
    47    12    43    1
    48    13    44    1
    49    13    45    1
    50    14    46    1
    51    15    47    1
    52    16    48    1
    53    17    49    1
    54    17    50    1
    55    19    51    1
    56    22    52    1
    57    22    53    1
    58    23    54    1
    59    23    55    1
    60    25    56    1
    61    25    57    1
    62    25    58    1
    63    28    59    1
    64    28    60    1
    65    28    61    1
