
     RDKit          3D

 61 65  0  0  0  0  0  0  0  0999 V2000
    0.9075    0.5138    0.3545 C   0  0  2  0  0  0  0  0  0  0  0  0
    1.4788    1.8743    0.3119 C   0  0  0  0  0  0  0  0  0  0  0  0
    2.8759    1.5838    0.8888 C   0  0  0  0  0  0  0  0  0  0  0  0
    3.2552    0.2298    0.3662 C   0  0  2  0  0  0  0  0  0  0  0  0
    3.9976   -0.6153    1.3381 C   0  0  0  0  0  0  0  0  0  0  0  0
    5.1735    0.3341    1.6245 C   0  0  0  0  0  0  0  0  0  0  0  0
    5.3825    0.8786    0.2438 C   0  0  0  0  0  0  0  0  0  0  0  0
    6.3530    1.5892   -0.1887 O   0  0  0  0  0  0  0  0  0  0  0  0
    4.3173    0.4898   -0.5678 O   0  0  0  0  0  0  0  0  0  0  0  0
    2.0331   -0.3261   -0.2259 C   0  0  2  0  0  0  0  0  0  0  0  0
    2.1099   -0.0394   -1.7252 C   0  0  0  0  0  0  0  0  0  0  0  0
    1.7259   -1.7647   -0.0195 C   0  0  0  0  0  0  0  0  0  0  0  0
    0.3581   -2.1590    0.3392 C   0  0  0  0  0  0  0  0  0  0  0  0
   -0.7206   -1.1356    0.2453 C   0  0  1  0  0  0  0  0  0  0  0  0
   -0.2836    0.1656   -0.4303 C   0  0  1  0  0  0  0  0  0  0  0  0
   -1.4228    1.1002   -0.5222 C   0  0  1  0  0  0  0  0  0  0  0  0
   -2.5569    0.7853    0.4371 C   0  0  0  0  0  0  0  0  0  0  0  0
   -3.0332   -0.5615    0.1182 C   0  0  0  0  0  0  0  0  0  0  0  0
   -4.3167   -0.8270    0.1795 C   0  0  0  0  0  0  0  0  0  0  0  0
   -4.7375   -2.1983   -0.1519 C   0  0  0  0  0  0  0  0  0  0  0  0
   -5.8497   -2.4553   -0.6625 O   0  0  0  0  0  0  0  0  0  0  0  0
   -3.8120   -3.3346    0.1266 C   0  0  0  0  0  0  0  0  0  0  0  0
   -2.4341   -2.8368    0.5178 C   0  0  0  0  0  0  0  0  0  0  0  0
   -2.0339   -1.6197   -0.2759 C   0  0  2  0  0  0  0  0  0  0  0  0
   -2.0471   -1.8926   -1.7569 C   0  0  0  0  0  0  0  0  0  0  0  0
   -0.9876    2.8475   -0.4130 S   0  0  0  0  0  0  0  0  0  0  0  0
   -2.4263    3.8697   -0.5348 C   0  0  0  0  0  0  0  0  0  0  0  0
   -2.0387    5.3238   -0.4411 C   0  0  0  0  0  0  0  0  0  0  0  0
   -3.6381    3.6497   -0.6754 O   0  0  0  0  0  0  0  0  0  0  0  0
    0.8813    0.2286    1.4379 H   0  0  0  0  0  0  0  0  0  0  0  0
    1.5405    2.3773   -0.6476 H   0  0  0  0  0  0  0  0  0  0  0  0
    1.0321    2.5182    1.1152 H   0  0  0  0  0  0  0  0  0  0  0  0
    3.5911    2.3900    0.6638 H   0  0  0  0  0  0  0  0  0  0  0  0
    2.8352    1.4881    1.9937 H   0  0  0  0  0  0  0  0  0  0  0  0
    4.4810   -1.4568    0.8169 H   0  0  0  0  0  0  0  0  0  0  0  0
    3.4629   -0.8933    2.2468 H   0  0  0  0  0  0  0  0  0  0  0  0
    6.1025   -0.2300    1.8571 H   0  0  0  0  0  0  0  0  0  0  0  0
    4.9058    1.0965    2.3562 H   0  0  0  0  0  0  0  0  0  0  0  0
    1.6181    0.8790   -2.0296 H   0  0  0  0  0  0  0  0  0  0  0  0
    3.1709    0.0397   -2.0474 H   0  0  0  0  0  0  0  0  0  0  0  0
    1.7227   -0.9296   -2.3024 H   0  0  0  0  0  0  0  0  0  0  0  0
    2.4510   -2.1345    0.7572 H   0  0  0  0  0  0  0  0  0  0  0  0
    2.0681   -2.3241   -0.9341 H   0  0  0  0  0  0  0  0  0  0  0  0
    0.0135   -3.0040   -0.3194 H   0  0  0  0  0  0  0  0  0  0  0  0
    0.3431   -2.6382    1.3549 H   0  0  0  0  0  0  0  0  0  0  0  0
   -0.9448   -0.7892    1.2993 H   0  0  0  0  0  0  0  0  0  0  0  0
   -0.0344   -0.1794   -1.4714 H   0  0  0  0  0  0  0  0  0  0  0  0
   -1.9342    1.0318   -1.5127 H   0  0  0  0  0  0  0  0  0  0  0  0
   -3.3779    1.5115    0.2322 H   0  0  0  0  0  0  0  0  0  0  0  0
   -2.2740    0.9392    1.4921 H   0  0  0  0  0  0  0  0  0  0  0  0
   -5.0890   -0.1252    0.4522 H   0  0  0  0  0  0  0  0  0  0  0  0
   -3.7653   -3.9946   -0.7606 H   0  0  0  0  0  0  0  0  0  0  0  0
   -4.2832   -3.9143    0.9466 H   0  0  0  0  0  0  0  0  0  0  0  0
   -2.5399   -2.5073    1.5890 H   0  0  0  0  0  0  0  0  0  0  0  0
   -1.7503   -3.6815    0.4551 H   0  0  0  0  0  0  0  0  0  0  0  0
   -2.6581   -1.2079   -2.3499 H   0  0  0  0  0  0  0  0  0  0  0  0
   -0.9786   -1.9507   -2.0778 H   0  0  0  0  0  0  0  0  0  0  0  0
   -2.4360   -2.9309   -1.9018 H   0  0  0  0  0  0  0  0  0  0  0  0
   -1.5916    5.4203    0.5862 H   0  0  0  0  0  0  0  0  0  0  0  0
   -2.8938    6.0005   -0.5506 H   0  0  0  0  0  0  0  0  0  0  0  0
   -1.2980    5.5018   -1.2473 H   0  0  0  0  0  0  0  0  0  0  0  0
  1  2  1  0
  2  3  1  0
  3  4  1  0
  4  5  1  0
  5  6  1  0
  6  7  1  0
  7  8  2  0
  7  9  1  0
  4 10  1  0
 10 11  1  6
 10 12  1  0
 12 13  1  0
 13 14  1  0
 14 15  1  0
 15 16  1  0
 16 17  1  0
 17 18  1  0
 18 19  2  0
 19 20  1  0
 20 21  2  0
 20 22  1  0
 22 23  1  0
 23 24  1  0
 24 25  1  6
 16 26  1  0
 26 27  1  0
 27 28  1  0
 27 29  2  0
 10  1  1  0
 24 14  1  0
 15  1  1  0
 24 18  1  0
  4  9  1  6
  1 30  1  1
  2 31  1  0
  2 32  1  0
  3 33  1  0
  3 34  1  0
  5 35  1  0
  5 36  1  0
  6 37  1  0
  6 38  1  0
 11 39  1  0
 11 40  1  0
 11 41  1  0
 12 42  1  0
 12 43  1  0
 13 44  1  0
 13 45  1  0
 14 46  1  1
 15 47  1  6
 16 48  1  6
 17 49  1  0
 17 50  1  0
 19 51  1  0
 22 52  1  0
 22 53  1  0
 23 54  1  0
 23 55  1  0
 25 56  1  0
 25 57  1  0
 25 58  1  0
 28 59  1  0
 28 60  1  0
 28 61  1  0
M  END
$$$$
