
     RDKit          3D

 57 61  0  0  0  0  0  0  0  0999 V2000
   -1.0504   -3.4905   -0.1740 O   0  0  0  0  0  0  0  0  0  0  0  0
   -2.1814   -3.0493    0.1570 C   0  0  0  0  0  0  0  0  0  0  0  0
   -2.9835   -3.8125    1.0437 N   0  0  0  0  0  0  0  0  0  0  0  0
   -4.2762   -3.3210    1.4298 C   0  0  0  0  0  0  0  0  0  0  0  0
   -4.9692   -4.0161    2.2174 O   0  0  0  0  0  0  0  0  0  0  0  0
   -4.7777   -2.0492    0.9246 C   0  0  0  0  0  0  0  0  0  0  0  0
   -6.0229   -1.6238    1.3257 C   0  0  0  0  0  0  0  0  0  0  0  0
   -6.5366   -0.4181    0.8672 C   0  0  0  0  0  0  0  0  0  0  0  0
   -5.8090    0.3684    0.0058 C   0  0  0  0  0  0  0  0  0  0  0  0
   -6.3303    1.6534   -0.4967 C   0  0  0  0  0  0  0  0  0  0  0  0
   -5.6259    2.7870   -0.8396 C   0  0  0  0  0  0  0  0  0  0  0  0
   -6.5429    3.7292   -1.2541 C   0  0  0  0  0  0  0  0  0  0  0  0
   -7.7195    3.1781   -1.1594 O   0  0  0  0  0  0  0  0  0  0  0  0
   -7.6441    1.9466   -0.7144 C   0  0  0  0  0  0  0  0  0  0  0  0
   -4.5584   -0.0910   -0.3775 C   0  0  0  0  0  0  0  0  0  0  0  0
   -4.0165   -1.2763    0.0538 C   0  0  0  0  0  0  0  0  0  0  0  0
   -2.7076   -1.7802   -0.3334 C   0  0  0  0  0  0  0  0  0  0  0  0
   -1.9618   -1.0736   -1.1565 C   0  0  0  0  0  0  0  0  0  0  0  0
   -0.6751   -1.5621   -1.5419 N   0  0  0  0  0  0  0  0  0  0  0  0
    0.5175   -1.1385   -0.8959 C   0  0  0  0  0  0  0  0  0  0  0  0
    1.7609   -1.6004   -1.2580 C   0  0  0  0  0  0  0  0  0  0  0  0
    2.9416   -1.2070   -0.6480 C   0  0  0  0  0  0  0  0  0  0  0  0
    2.8723   -0.3001    0.3825 C   0  0  0  0  0  0  0  0  0  0  0  0
    4.1242    0.1299    1.0409 C   0  0  0  0  0  0  0  0  0  0  0  0
    4.6434    1.2975    0.4164 N   0  0  0  0  0  0  0  0  0  0  0  0
    4.9636    1.2144   -0.9614 C   0  0  0  0  0  0  0  0  0  0  0  0
    6.2598    0.4299   -1.1199 C   0  0  0  0  0  0  0  0  0  0  0  0
    7.3431    1.2577   -0.4570 C   0  0  0  0  0  0  0  0  0  0  0  0
    7.0233    1.5213    0.9754 C   0  0  0  0  0  0  0  0  0  0  0  0
    5.6244    1.9948    1.2120 C   0  0  0  0  0  0  0  0  0  0  0  0
    1.6410    0.1809    0.7683 C   0  0  0  0  0  0  0  0  0  0  0  0
    0.4718   -0.2168    0.1548 C   0  0  0  0  0  0  0  0  0  0  0  0
   -2.6017   -4.7228    1.3932 H   0  0  0  0  0  0  0  0  0  0  0  0
   -6.5884   -2.2416    1.9991 H   0  0  0  0  0  0  0  0  0  0  0  0
   -7.5180   -0.1059    1.1973 H   0  0  0  0  0  0  0  0  0  0  0  0
   -4.5528    2.8789   -0.7798 H   0  0  0  0  0  0  0  0  0  0  0  0
   -6.2627    4.7320   -1.5871 H   0  0  0  0  0  0  0  0  0  0  0  0
   -8.5251    1.3087   -0.5632 H   0  0  0  0  0  0  0  0  0  0  0  0
   -3.9955    0.5312   -1.0522 H   0  0  0  0  0  0  0  0  0  0  0  0
   -2.2279   -0.1204   -1.5931 H   0  0  0  0  0  0  0  0  0  0  0  0
   -0.6258   -2.2454   -2.3169 H   0  0  0  0  0  0  0  0  0  0  0  0
    1.8155   -2.3180   -2.0734 H   0  0  0  0  0  0  0  0  0  0  0  0
    3.9121   -1.5794   -0.9418 H   0  0  0  0  0  0  0  0  0  0  0  0
    3.9372    0.3414    2.1357 H   0  0  0  0  0  0  0  0  0  0  0  0
    4.8559   -0.7111    0.9398 H   0  0  0  0  0  0  0  0  0  0  0  0
    4.1581    0.7284   -1.5155 H   0  0  0  0  0  0  0  0  0  0  0  0
    5.1191    2.2528   -1.3472 H   0  0  0  0  0  0  0  0  0  0  0  0
    6.1302   -0.5517   -0.6238 H   0  0  0  0  0  0  0  0  0  0  0  0
    6.5078    0.2966   -2.2003 H   0  0  0  0  0  0  0  0  0  0  0  0
    7.3930    2.2167   -1.0184 H   0  0  0  0  0  0  0  0  0  0  0  0
    8.3271    0.7341   -0.4915 H   0  0  0  0  0  0  0  0  0  0  0  0
    7.7099    2.3504    1.3158 H   0  0  0  0  0  0  0  0  0  0  0  0
    7.2658    0.6565    1.6244 H   0  0  0  0  0  0  0  0  0  0  0  0
    5.5021    3.0943    1.1361 H   0  0  0  0  0  0  0  0  0  0  0  0
    5.3793    1.7507    2.2872 H   0  0  0  0  0  0  0  0  0  0  0  0
    1.5906    0.9050    1.5917 H   0  0  0  0  0  0  0  0  0  0  0  0
   -0.5041    0.1562    0.4510 H   0  0  0  0  0  0  0  0  0  0  0  0
  1  2  2  0
  2  3  1  0
  3  4  1  0
  4  5  2  0
  4  6  1  0
  6  7  2  0
  7  8  1  0
  8  9  2  0
  9 10  1  0
 10 11  1  0
 11 12  2  0
 12 13  1  0
 13 14  1  0
  9 15  1  0
 15 16  2  0
 16 17  1  0
 17 18  2  3
 18 19  1  0
 19 20  1  0
 20 21  2  0
 21 22  1  0
 22 23  2  0
 23 24  1  0
 24 25  1  0
 25 26  1  0
 26 27  1  0
 27 28  1  0
 28 29  1  0
 29 30  1  0
 23 31  1  0
 31 32  2  0
 17  2  1  0
 32 20  1  0
 16  6  1  0
 30 25  1  0
 14 10  2  0
  3 33  1  0
  7 34  1  0
  8 35  1  0
 11 36  1  0
 12 37  1  0
 14 38  1  0
 15 39  1  0
 18 40  1  0
 19 41  1  0
 21 42  1  0
 22 43  1  0
 24 44  1  0
 24 45  1  0
 26 46  1  0
 26 47  1  0
 27 48  1  0
 27 49  1  0
 28 50  1  0
 28 51  1  0
 29 52  1  0
 29 53  1  0
 30 54  1  0
 30 55  1  0
 31 56  1  0
 32 57  1  0
M  END
$$$$
