@<TRIPOS>MOLECULE
*****
 57 61 0 0 0
SMALL
GASTEIGER

@<TRIPOS>ATOM
      1 O          -1.0504   -3.4905   -0.1740 O.2     1  UNL1       -0.2697
      2 C          -2.1814   -3.0493    0.1570 C.2     1  UNL1        0.2523
      3 N          -2.9835   -3.8125    1.0437 N.am    1  UNL1       -0.2483
      4 C          -4.2762   -3.3210    1.4298 C.2     1  UNL1        0.2511
      5 O          -4.9692   -4.0161    2.2174 O.2     1  UNL1       -0.2698
      6 C          -4.7777   -2.0492    0.9246 C.ar    1  UNL1        0.0450
      7 C          -6.0229   -1.6238    1.3257 C.ar    1  UNL1       -0.0485
      8 C          -6.5366   -0.4181    0.8672 C.ar    1  UNL1       -0.0532
      9 C          -5.8090    0.3684    0.0058 C.ar    1  UNL1       -0.0143
     10 C          -6.3303    1.6534   -0.4967 C.ar    1  UNL1        0.0198
     11 C          -5.6259    2.7870   -0.8396 C.ar    1  UNL1       -0.0162
     12 C          -6.5429    3.7292   -1.2541 C.ar    1  UNL1        0.0923
     13 O          -7.7195    3.1781   -1.1594 O.2     1  UNL1       -0.4704
     14 C          -7.6441    1.9466   -0.7144 C.ar    1  UNL1        0.0994
     15 C          -4.5584   -0.0910   -0.3775 C.ar    1  UNL1       -0.0453
     16 C          -4.0165   -1.2763    0.0538 C.ar    1  UNL1        0.0010
     17 C          -2.7076   -1.7802   -0.3334 C.2     1  UNL1        0.0587
     18 C          -1.9618   -1.0736   -1.1565 C.2     1  UNL1        0.0065
     19 N          -0.6751   -1.5621   -1.5419 N.pl3   1  UNL1       -0.3198
     20 C           0.5175   -1.1385   -0.8959 C.ar    1  UNL1        0.0309
     21 C           1.7609   -1.6004   -1.2580 C.ar    1  UNL1       -0.0403
     22 C           2.9416   -1.2070   -0.6480 C.ar    1  UNL1       -0.0556
     23 C           2.8723   -0.3001    0.3825 C.ar    1  UNL1       -0.0332
     24 C           4.1242    0.1299    1.0409 C.3     1  UNL1        0.0240
     25 N           4.6434    1.2975    0.4164 N.3     1  UNL1       -0.2982
     26 C           4.9636    1.2144   -0.9614 C.3     1  UNL1       -0.0008
     27 C           6.2598    0.4299   -1.1199 C.3     1  UNL1       -0.0402
     28 C           7.3431    1.2577   -0.4570 C.3     1  UNL1       -0.0507
     29 C           7.0233    1.5213    0.9754 C.3     1  UNL1       -0.0402
     30 C           5.6244    1.9948    1.2120 C.3     1  UNL1       -0.0008
     31 C           1.6410    0.1809    0.7683 C.ar    1  UNL1       -0.0556
     32 C           0.4718   -0.2168    0.1548 C.ar    1  UNL1       -0.0403
     33 H          -2.6017   -4.7228    1.3932 H       1  UNL1        0.1581
     34 H          -6.5884   -2.2416    1.9991 H       1  UNL1        0.0625
     35 H          -7.5180   -0.1059    1.1973 H       1  UNL1        0.0624
     36 H          -4.5528    2.8789   -0.7798 H       1  UNL1        0.0655
     37 H          -6.2627    4.7320   -1.5871 H       1  UNL1        0.1029
     38 H          -8.5251    1.3087   -0.5632 H       1  UNL1        0.1035
     39 H          -3.9955    0.5312   -1.0522 H       1  UNL1        0.0630
     40 H          -2.2279   -0.1204   -1.5931 H       1  UNL1        0.0789
     41 H          -0.6258   -2.2454   -2.3169 H       1  UNL1        0.1516
     42 H           1.8155   -2.3180   -2.0734 H       1  UNL1        0.0636
     43 H           3.9121   -1.5794   -0.9418 H       1  UNL1        0.0621
     44 H           3.9372    0.3414    2.1357 H       1  UNL1        0.0476
     45 H           4.8559   -0.7111    0.9398 H       1  UNL1        0.0476
     46 H           4.1581    0.7284   -1.5155 H       1  UNL1        0.0427
     47 H           5.1191    2.2528   -1.3472 H       1  UNL1        0.0427
     48 H           6.1302   -0.5517   -0.6238 H       1  UNL1        0.0278
     49 H           6.5078    0.2966   -2.2003 H       1  UNL1        0.0278
     50 H           7.3930    2.2167   -1.0184 H       1  UNL1        0.0266
     51 H           8.3271    0.7341   -0.4915 H       1  UNL1        0.0266
     52 H           7.7099    2.3504    1.3158 H       1  UNL1        0.0278
     53 H           7.2658    0.6565    1.6244 H       1  UNL1        0.0278
     54 H           5.5021    3.0943    1.1361 H       1  UNL1        0.0427
     55 H           5.3793    1.7507    2.2872 H       1  UNL1        0.0427
     56 H           1.5906    0.9050    1.5917 H       1  UNL1        0.0621
     57 H          -0.5041    0.1562    0.4510 H       1  UNL1        0.0636
@<TRIPOS>BOND
     1     1     2    2
     2     2     3   am
     3     3     4   am
     4     4     5    2
     5     4     6    1
     6     6     7   ar
     7     7     8   ar
     8     8     9   ar
     9     9    10    1
    10    10    11   ar
    11    11    12   ar
    12    12    13   ar
    13    13    14   ar
    14     9    15   ar
    15    15    16   ar
    16    16    17    1
    17    17    18    2
    18    18    19    1
    19    19    20    1
    20    20    21   ar
    21    21    22   ar
    22    22    23   ar
    23    23    24    1
    24    24    25    1
    25    25    26    1
    26    26    27    1
    27    27    28    1
    28    28    29    1
    29    29    30    1
    30    23    31   ar
    31    31    32   ar
    32    17     2    1
    33    32    20   ar
    34    16     6   ar
    35    30    25    1
    36    14    10   ar
    37     3    33    1
    38     7    34    1
    39     8    35    1
    40    11    36    1
    41    12    37    1
    42    14    38    1
    43    15    39    1
    44    18    40    1
    45    19    41    1
    46    21    42    1
    47    22    43    1
    48    24    44    1
    49    24    45    1
    50    26    46    1
    51    26    47    1
    52    27    48    1
    53    27    49    1
    54    28    50    1
    55    28    51    1
    56    29    52    1
    57    29    53    1
    58    30    54    1
    59    30    55    1
    60    31    56    1
    61    32    57    1
