@<TRIPOS>MOLECULE
*****
 61 68 0 0 0
SMALL
GASTEIGER

@<TRIPOS>ATOM
      1 C           3.0135   -1.0921    0.6985 C.3     1  UNL1        0.0423
      2 C           1.8189   -2.0085    0.4083 C.3     1  UNL1        0.0107
      3 C           0.7479   -1.6007    1.3926 C.3     1  UNL1        0.1402
      4 O           0.9062   -0.3908    1.9735 O.3     1  UNL1       -0.3282
      5 C           1.3865    0.6562    1.1924 C.3     1  UNL1        0.1741
      6 C           1.9463    1.6423    2.2344 C.3     1  UNL1       -0.0136
      7 N           0.2655    1.2514    0.4933 N.ar    1  UNL1       -0.3070
      8 C           0.0534    2.4967    0.0767 C.ar    1  UNL1        0.0527
      9 C           0.8412    3.6004    0.1497 C.ar    1  UNL1       -0.0375
     10 C           0.4409    4.8179   -0.3534 C.ar    1  UNL1       -0.0598
     11 C          -0.7837    4.9944   -0.9633 C.ar    1  UNL1       -0.0611
     12 C          -1.5877    3.8771   -1.0410 C.ar    1  UNL1       -0.0520
     13 C          -1.1684    2.6681   -0.5313 C.ar    1  UNL1        0.0081
     14 C          -1.7954    1.4432   -0.5106 C.ar    1  UNL1        0.0151
     15 C          -2.9914    0.9640   -0.9477 C.ar    1  UNL1       -0.0078
     16 C          -4.0862    1.7282   -1.6469 C.3     1  UNL1        0.0385
     17 N          -5.1115    0.7162   -1.8709 N.am    1  UNL1       -0.3072
     18 C          -4.6406   -0.5055   -1.3486 C.2     1  UNL1        0.2453
     19 O          -5.4269   -1.4461   -1.4800 O.2     1  UNL1       -0.2702
     20 C          -3.3303   -0.3574   -0.7768 C.ar    1  UNL1        0.0518
     21 C          -2.4535   -1.1894   -0.1629 C.ar    1  UNL1        0.0221
     22 C          -2.5508   -2.5101    0.1067 C.ar    1  UNL1        0.0085
     23 C          -3.4066   -3.5613   -0.0369 C.ar    1  UNL1       -0.0520
     24 C          -3.1888   -4.8572    0.3716 C.ar    1  UNL1       -0.0611
     25 C          -1.9690   -5.1374    0.9993 C.ar    1  UNL1       -0.0598
     26 C          -1.0665   -4.1135    1.1709 C.ar    1  UNL1       -0.0375
     27 C          -1.3707   -2.8522    0.7310 C.ar    1  UNL1        0.0524
     28 N          -0.6047   -1.7770    0.8277 N.ar    1  UNL1       -0.3115
     29 C          -1.2544   -0.7088    0.2758 C.ar    1  UNL1        0.0774
     30 C          -0.8908    0.6182    0.1170 C.ar    1  UNL1        0.0772
     31 C           2.5268    0.2845    0.2960 C.3     1  UNL1        0.1214
     32 O           2.0020    0.1155   -1.0054 O.3     1  UNL1       -0.3735
     33 C           2.6443    0.9403   -1.9123 C.3     1  UNL1        0.0371
     34 N           4.1926   -1.4872   -0.0309 N.3     1  UNL1       -0.3136
     35 C           5.2658   -0.5910    0.2869 C.3     1  UNL1       -0.0155
     36 H           3.1633   -1.0764    1.7928 H       1  UNL1        0.0489
     37 H           2.1284   -3.0734    0.5252 H       1  UNL1        0.0325
     38 H           1.5124   -1.7975   -0.6251 H       1  UNL1        0.0325
     39 H           0.8161   -2.3525    2.2116 H       1  UNL1        0.0839
     40 H           1.1665    2.3580    2.5063 H       1  UNL1        0.0277
     41 H           2.1561    1.0989    3.2158 H       1  UNL1        0.0277
     42 H           2.9267    2.0401    1.9610 H       1  UNL1        0.0277
     43 H           1.8002    3.5423    0.5930 H       1  UNL1        0.0638
     44 H           1.0993    5.6775   -0.2754 H       1  UNL1        0.0618
     45 H          -1.1547    5.9214   -1.3766 H       1  UNL1        0.0618
     46 H          -2.5596    3.9551   -1.5091 H       1  UNL1        0.0624
     47 H          -4.4761    2.5497   -1.0222 H       1  UNL1        0.0512
     48 H          -3.7585    2.1369   -2.6090 H       1  UNL1        0.0512
     49 H          -5.9514    1.0539   -2.3445 H       1  UNL1        0.1493
     50 H          -4.3494   -3.4197   -0.5041 H       1  UNL1        0.0624
     51 H          -3.9010   -5.6597    0.2349 H       1  UNL1        0.0618
     52 H          -1.7263   -6.1312    1.3474 H       1  UNL1        0.0618
     53 H          -0.1353   -4.3556    1.6568 H       1  UNL1        0.0638
     54 H           3.3348    1.0387    0.3007 H       1  UNL1        0.0660
     55 H           2.5380    2.0260   -1.6518 H       1  UNL1        0.0524
     56 H           3.7002    0.6148   -1.9868 H       1  UNL1        0.0524
     57 H           2.1664    0.7528   -2.8954 H       1  UNL1        0.0524
     58 H           4.3961   -2.4766    0.1737 H       1  UNL1        0.1220
     59 H           6.1747   -1.1234    0.6455 H       1  UNL1        0.0388
     60 H           4.9838    0.1378    1.0951 H       1  UNL1        0.0388
     61 H           5.5753   -0.0664   -0.6430 H       1  UNL1        0.0388
@<TRIPOS>BOND
     1     1     2    1
     2     2     3    1
     3     3     4    1
     4     4     5    1
     5     5     6    1
     6     5     7    1
     7     7     8   ar
     8     8     9   ar
     9     9    10   ar
    10    10    11   ar
    11    11    12   ar
    12    12    13   ar
    13    13    14   ar
    14    14    15   ar
    15    15    16    1
    16    16    17    1
    17    17    18   am
    18    18    19    2
    19    18    20    1
    20    20    21   ar
    21    21    22   ar
    22    22    23   ar
    23    23    24   ar
    24    24    25   ar
    25    25    26   ar
    26    26    27   ar
    27    27    28   ar
    28    28    29   ar
    29    29    30   ar
    30     5    31    1
    31    31    32    1
    32    32    33    1
    33     1    34    1
    34    34    35    1
    35    31     1    1
    36    28     3    1
    37    30     7   ar
    38    13     8   ar
    39    30    14   ar
    40    20    15   ar
    41    29    21   ar
    42    27    22   ar
    43     1    36    1
    44     2    37    1
    45     2    38    1
    46     3    39    1
    47     6    40    1
    48     6    41    1
    49     6    42    1
    50     9    43    1
    51    10    44    1
    52    11    45    1
    53    12    46    1
    54    16    47    1
    55    16    48    1
    56    17    49    1
    57    23    50    1
    58    24    51    1
    59    25    52    1
    60    26    53    1
    61    31    54    1
    62    33    55    1
    63    33    56    1
    64    33    57    1
    65    34    58    1
    66    35    59    1
    67    35    60    1
    68    35    61    1
