
     RDKit          3D

 61 68  0  0  0  0  0  0  0  0999 V2000
    3.0135   -1.0921    0.6985 C   0  0  2  0  0  0  0  0  0  0  0  0
    1.8189   -2.0085    0.4083 C   0  0  0  0  0  0  0  0  0  0  0  0
    0.7479   -1.6007    1.3926 C   0  0  1  0  0  0  0  0  0  0  0  0
    0.9062   -0.3908    1.9735 O   0  0  0  0  0  0  0  0  0  0  0  0
    1.3865    0.6562    1.1924 C   0  0  2  0  0  0  0  0  0  0  0  0
    1.9463    1.6423    2.2344 C   0  0  0  0  0  0  0  0  0  0  0  0
    0.2655    1.2514    0.4933 N   0  0  0  0  0  0  0  0  0  0  0  0
    0.0534    2.4967    0.0767 C   0  0  0  0  0  0  0  0  0  0  0  0
    0.8412    3.6004    0.1497 C   0  0  0  0  0  0  0  0  0  0  0  0
    0.4409    4.8179   -0.3534 C   0  0  0  0  0  0  0  0  0  0  0  0
   -0.7837    4.9944   -0.9633 C   0  0  0  0  0  0  0  0  0  0  0  0
   -1.5877    3.8771   -1.0410 C   0  0  0  0  0  0  0  0  0  0  0  0
   -1.1684    2.6681   -0.5313 C   0  0  0  0  0  0  0  0  0  0  0  0
   -1.7954    1.4432   -0.5106 C   0  0  0  0  0  0  0  0  0  0  0  0
   -2.9914    0.9640   -0.9477 C   0  0  0  0  0  0  0  0  0  0  0  0
   -4.0862    1.7282   -1.6469 C   0  0  0  0  0  0  0  0  0  0  0  0
   -5.1115    0.7162   -1.8709 N   0  0  0  0  0  0  0  0  0  0  0  0
   -4.6406   -0.5055   -1.3486 C   0  0  0  0  0  0  0  0  0  0  0  0
   -5.4269   -1.4461   -1.4800 O   0  0  0  0  0  0  0  0  0  0  0  0
   -3.3303   -0.3574   -0.7768 C   0  0  0  0  0  0  0  0  0  0  0  0
   -2.4535   -1.1894   -0.1629 C   0  0  0  0  0  0  0  0  0  0  0  0
   -2.5508   -2.5101    0.1067 C   0  0  0  0  0  0  0  0  0  0  0  0
   -3.4066   -3.5613   -0.0369 C   0  0  0  0  0  0  0  0  0  0  0  0
   -3.1888   -4.8572    0.3716 C   0  0  0  0  0  0  0  0  0  0  0  0
   -1.9690   -5.1374    0.9993 C   0  0  0  0  0  0  0  0  0  0  0  0
   -1.0665   -4.1135    1.1709 C   0  0  0  0  0  0  0  0  0  0  0  0
   -1.3707   -2.8522    0.7310 C   0  0  0  0  0  0  0  0  0  0  0  0
   -0.6047   -1.7770    0.8277 N   0  0  0  0  0  0  0  0  0  0  0  0
   -1.2544   -0.7088    0.2758 C   0  0  0  0  0  0  0  0  0  0  0  0
   -0.8908    0.6182    0.1170 C   0  0  0  0  0  0  0  0  0  0  0  0
    2.5268    0.2845    0.2960 C   0  0  2  0  0  0  0  0  0  0  0  0
    2.0020    0.1155   -1.0054 O   0  0  0  0  0  0  0  0  0  0  0  0
    2.6443    0.9403   -1.9123 C   0  0  0  0  0  0  0  0  0  0  0  0
    4.1926   -1.4872   -0.0309 N   0  0  0  0  0  0  0  0  0  0  0  0
    5.2658   -0.5910    0.2869 C   0  0  0  0  0  0  0  0  0  0  0  0
    3.1633   -1.0764    1.7928 H   0  0  0  0  0  0  0  0  0  0  0  0
    2.1284   -3.0734    0.5252 H   0  0  0  0  0  0  0  0  0  0  0  0
    1.5124   -1.7975   -0.6251 H   0  0  0  0  0  0  0  0  0  0  0  0
    0.8161   -2.3525    2.2116 H   0  0  0  0  0  0  0  0  0  0  0  0
    1.1665    2.3580    2.5063 H   0  0  0  0  0  0  0  0  0  0  0  0
    2.1561    1.0989    3.2158 H   0  0  0  0  0  0  0  0  0  0  0  0
    2.9267    2.0401    1.9610 H   0  0  0  0  0  0  0  0  0  0  0  0
    1.8002    3.5423    0.5930 H   0  0  0  0  0  0  0  0  0  0  0  0
    1.0993    5.6775   -0.2754 H   0  0  0  0  0  0  0  0  0  0  0  0
   -1.1547    5.9214   -1.3766 H   0  0  0  0  0  0  0  0  0  0  0  0
   -2.5596    3.9551   -1.5091 H   0  0  0  0  0  0  0  0  0  0  0  0
   -4.4761    2.5497   -1.0222 H   0  0  0  0  0  0  0  0  0  0  0  0
   -3.7585    2.1369   -2.6090 H   0  0  0  0  0  0  0  0  0  0  0  0
   -5.9514    1.0539   -2.3445 H   0  0  0  0  0  0  0  0  0  0  0  0
   -4.3494   -3.4197   -0.5041 H   0  0  0  0  0  0  0  0  0  0  0  0
   -3.9010   -5.6597    0.2349 H   0  0  0  0  0  0  0  0  0  0  0  0
   -1.7263   -6.1312    1.3474 H   0  0  0  0  0  0  0  0  0  0  0  0
   -0.1353   -4.3556    1.6568 H   0  0  0  0  0  0  0  0  0  0  0  0
    3.3348    1.0387    0.3007 H   0  0  0  0  0  0  0  0  0  0  0  0
    2.5380    2.0260   -1.6518 H   0  0  0  0  0  0  0  0  0  0  0  0
    3.7002    0.6148   -1.9868 H   0  0  0  0  0  0  0  0  0  0  0  0
    2.1664    0.7528   -2.8954 H   0  0  0  0  0  0  0  0  0  0  0  0
    4.3961   -2.4766    0.1737 H   0  0  0  0  0  0  0  0  0  0  0  0
    6.1747   -1.1234    0.6455 H   0  0  0  0  0  0  0  0  0  0  0  0
    4.9838    0.1378    1.0951 H   0  0  0  0  0  0  0  0  0  0  0  0
    5.5753   -0.0664   -0.6430 H   0  0  0  0  0  0  0  0  0  0  0  0
  1  2  1  0
  2  3  1  0
  3  4  1  0
  4  5  1  0
  5  6  1  1
  5  7  1  0
  7  8  1  0
  8  9  2  0
  9 10  1  0
 10 11  2  0
 11 12  1  0
 12 13  2  0
 13 14  1  0
 14 15  2  0
 15 16  1  0
 16 17  1  0
 17 18  1  0
 18 19  2  0
 18 20  1  0
 20 21  2  0
 21 22  1  0
 22 23  2  0
 23 24  1  0
 24 25  2  0
 25 26  1  0
 26 27  2  0
 27 28  1  0
 28 29  1  0
 29 30  2  0
  5 31  1  0
 31 32  1  0
 32 33  1  0
  1 34  1  0
 34 35  1  0
 31  1  1  0
 28  3  1  0
 30  7  1  0
 13  8  1  0
 30 14  1  0
 20 15  1  0
 29 21  1  0
 27 22  1  0
  1 36  1  1
  2 37  1  0
  2 38  1  0
  3 39  1  1
  6 40  1  0
  6 41  1  0
  6 42  1  0
  9 43  1  0
 10 44  1  0
 11 45  1  0
 12 46  1  0
 16 47  1  0
 16 48  1  0
 17 49  1  0
 23 50  1  0
 24 51  1  0
 25 52  1  0
 26 53  1  0
 31 54  1  6
 33 55  1  0
 33 56  1  0
 33 57  1  0
 34 58  1  0
 35 59  1  0
 35 60  1  0
 35 61  1  0
M  END
$$$$
