@<TRIPOS>MOLECULE
*****
 52 55 0 0 0
SMALL
GASTEIGER

@<TRIPOS>ATOM
      1 C           6.8908   -0.6438   -3.5299 C.3     1  UNL1       -0.0223
      2 C           6.2765   -0.4381   -2.2025 C.ar    1  UNL1        0.0393
      3 C           4.9408   -0.7813   -1.9743 C.ar    1  UNL1       -0.0337
      4 C           4.3598   -0.5939   -0.7427 C.ar    1  UNL1        0.0004
      5 C           2.9646   -0.9568   -0.5197 C.3     1  UNL1        0.1153
      6 O           2.0941    0.1562   -0.4812 O.3     1  UNL1       -0.4874
      7 C           0.7565   -0.0479   -0.2784 C.ar    1  UNL1        0.1210
      8 C          -0.1034    1.0181   -0.2381 C.ar    1  UNL1       -0.0192
      9 C          -1.4673    0.8675   -0.0357 C.ar    1  UNL1       -0.0462
     10 C          -1.9703   -0.3935    0.1296 C.ar    1  UNL1        0.0370
     11 C          -3.3863   -0.6336    0.3458 C.2     1  UNL1        0.2452
     12 O          -3.8186   -1.8329    0.4984 O.2     1  UNL1       -0.2702
     13 N          -4.2916    0.4354    0.3899 N.am    1  UNL1       -0.2904
     14 C          -5.6954    0.1275    0.6093 C.3     1  UNL1        0.1855
     15 C          -5.8898   -0.5800    1.9218 C.3     1  UNL1       -0.0263
     16 C          -6.5044    1.3928    0.6846 C.2     1  UNL1        0.2528
     17 O          -5.9267    2.5196    0.7948 O.2     1  UNL1       -0.2725
     18 N          -7.9214    1.2798    0.6283 N.am    1  UNL1       -0.2377
     19 C          -8.5444    0.1778   -0.0329 C.2     1  UNL1        0.3123
     20 O          -9.7813    0.0345   -0.1091 O.2     1  UNL1       -0.2520
     21 N          -7.6607   -0.7811   -0.6203 N.am    1  UNL1       -0.2377
     22 C          -6.2489   -0.6340   -0.5433 C.2     1  UNL1        0.2528
     23 O          -5.4753   -1.1309   -1.4219 O.2     1  UNL1       -0.2725
     24 C          -1.1052   -1.4919    0.0910 C.ar    1  UNL1       -0.0462
     25 C           0.2573   -1.3124   -0.1134 C.ar    1  UNL1       -0.0192
     26 C           5.1350   -0.0570    0.2608 C.ar    1  UNL1        0.0068
     27 C           4.6499    0.1712    1.5311 C.ar    1  UNL1       -0.0522
     28 C           5.4619    0.7109    2.5065 C.ar    1  UNL1       -0.0611
     29 C           6.7669    1.0398    2.2619 C.ar    1  UNL1       -0.0597
     30 C           7.2686    0.8173    0.9936 C.ar    1  UNL1       -0.0357
     31 C           6.4660    0.2777    0.0091 C.ar    1  UNL1        0.0716
     32 N           6.9913    0.0791   -1.2026 N.ar    1  UNL1       -0.2519
     33 H           7.0011    0.3749   -3.9923 H       1  UNL1        0.0292
     34 H           6.2391   -1.2943   -4.1687 H       1  UNL1        0.0292
     35 H           7.8884   -1.1046   -3.3742 H       1  UNL1        0.0292
     36 H           4.4110   -1.1957   -2.8192 H       1  UNL1        0.0639
     37 H           2.5969   -1.6074   -1.3607 H       1  UNL1        0.0748
     38 H           2.8562   -1.5872    0.3958 H       1  UNL1        0.0748
     39 H           0.2757    2.0121   -0.3660 H       1  UNL1        0.0654
     40 H          -2.0910    1.7390   -0.0140 H       1  UNL1        0.0626
     41 H          -4.0324    1.4133    0.2785 H       1  UNL1        0.1505
     42 H          -4.9132   -0.8991    2.3395 H       1  UNL1        0.0260
     43 H          -6.4690    0.0206    2.6562 H       1  UNL1        0.0260
     44 H          -6.4978   -1.4923    1.7218 H       1  UNL1        0.0260
     45 H          -8.4978    2.0092    1.0741 H       1  UNL1        0.1591
     46 H          -8.0324   -1.6244   -1.1278 H       1  UNL1        0.1591
     47 H          -1.5365   -2.4677    0.2248 H       1  UNL1        0.0626
     48 H           0.9068   -2.1742   -0.1396 H       1  UNL1        0.0654
     49 H           3.6023   -0.0867    1.7476 H       1  UNL1        0.0624
     50 H           5.0713    0.8829    3.4894 H       1  UNL1        0.0618
     51 H           7.4265    1.4699    3.0268 H       1  UNL1        0.0618
     52 H           8.3058    1.0783    0.7976 H       1  UNL1        0.0639
@<TRIPOS>BOND
     1     1     2    1
     2     2     3   ar
     3     3     4   ar
     4     4     5    1
     5     5     6    1
     6     6     7    1
     7     7     8   ar
     8     8     9   ar
     9     9    10   ar
    10    10    11    1
    11    11    12    2
    12    11    13   am
    13    13    14    1
    14    14    15    1
    15    14    16    1
    16    16    17    2
    17    16    18   am
    18    18    19   am
    19    19    20    2
    20    19    21   am
    21    21    22   am
    22    22    23    2
    23    10    24   ar
    24    24    25   ar
    25     4    26   ar
    26    26    27   ar
    27    27    28   ar
    28    28    29   ar
    29    29    30   ar
    30    30    31   ar
    31    31    32   ar
    32    32     2   ar
    33    25     7   ar
    34    31    26   ar
    35    22    14    1
    36     1    33    1
    37     1    34    1
    38     1    35    1
    39     3    36    1
    40     5    37    1
    41     5    38    1
    42     8    39    1
    43     9    40    1
    44    13    41    1
    45    15    42    1
    46    15    43    1
    47    15    44    1
    48    18    45    1
    49    21    46    1
    50    24    47    1
    51    25    48    1
    52    27    49    1
    53    28    50    1
    54    29    51    1
    55    30    52    1
