@<TRIPOS>MOLECULE
*****
 82 88 0 0 0
SMALL
GASTEIGER

@<TRIPOS>ATOM
      1 C           4.1209    4.2419   -2.3149 C.3     1  UNL1        0.0370
      2 O           3.9832    3.2754   -1.3146 O.3     1  UNL1       -0.3754
      3 C           4.0015    2.0250   -1.8880 C.3     1  UNL1        0.1063
      4 C           2.7320    1.2272   -1.6024 C.3     1  UNL1        0.0856
      5 N           2.7149    0.0630   -2.4623 N.3     1  UNL1       -0.3211
      6 C           2.6741    0.7930   -0.1794 C.3     1  UNL1        0.1777
      7 O           2.4965   -0.5608   -0.0732 O.3     1  UNL1       -0.3373
      8 C           1.3157   -0.9281    0.5569 C.3     1  UNL1        0.1544
      9 C           0.3768   -1.6590   -0.3596 C.3     1  UNL1        0.2314
     10 O          -0.8894   -1.0675   -0.4890 O.3     1  UNL1       -0.4601
     11 C          -1.4564   -0.6539   -1.6698 C.ar    1  UNL1        0.1353
     12 C          -0.9727   -0.7207   -2.9526 C.ar    1  UNL1       -0.0191
     13 C          -1.6133   -0.2798   -4.0802 C.ar    1  UNL1       -0.0576
     14 C          -2.8722    0.2944   -3.9516 C.ar    1  UNL1       -0.0502
     15 C          -3.4054    0.3862   -2.6843 C.ar    1  UNL1        0.0315
     16 C          -2.7272   -0.0707   -1.5731 C.ar    1  UNL1        0.0703
     17 C          -3.3251    0.0586   -0.3387 C.ar    1  UNL1        0.1520
     18 C          -4.5854    0.6380   -0.2168 C.ar    1  UNL1        0.0471
     19 C          -5.2509    1.0929   -1.3629 C.ar    1  UNL1        0.1126
     20 C          -6.5156    1.6748   -1.2297 C.ar    1  UNL1        0.3488
     21 O          -7.1215    2.0866   -2.2512 O.2     1  UNL1       -0.2444
     22 O          -7.0741    1.7927   -0.0397 O.2     1  UNL1       -0.4216
     23 C          -6.4900    1.3815    1.0616 C.ar    1  UNL1        0.1406
     24 C          -5.2370    0.7977    0.9924 C.ar    1  UNL1        0.0432
     25 C          -4.6291    0.3669    2.1717 C.ar    1  UNL1        0.0736
     26 C          -5.1441    0.4554    3.4444 C.ar    1  UNL1       -0.0357
     27 C          -4.4181   -0.0298    4.6235 C.3     1  UNL1       -0.0389
     28 C          -6.4084    1.0498    3.4684 C.ar    1  UNL1       -0.0545
     29 C          -7.0698    1.5012    2.3279 C.ar    1  UNL1       -0.0183
     30 C          -3.3947   -0.1879    1.9424 C.ar    1  UNL1        0.3454
     31 O          -2.7219   -0.6272    2.9353 O.2     1  UNL1       -0.2445
     32 O          -2.7431   -0.3553    0.7954 O.2     1  UNL1       -0.4209
     33 C          -4.6553    0.9676   -2.6244 C.ar    1  UNL1        0.1394
     34 O          -5.3007    1.4104   -3.7406 O.3     1  UNL1       -0.5053
     35 O           0.2183   -2.9945   -0.0215 O.3     1  UNL1       -0.3338
     36 C           1.3705   -3.5768    0.4650 C.3     1  UNL1        0.0886
     37 C           1.1269   -5.0659    0.5559 C.3     1  UNL1       -0.0360
     38 C           1.8014   -3.0721    1.7929 C.3     1  UNL1        0.1121
     39 O           1.2165   -3.7603    2.8589 O.3     1  UNL1       -0.3863
     40 C           1.5783   -1.6013    1.8675 C.3     1  UNL1        0.1233
     41 C           2.7556   -0.9471    2.5541 C.3     1  UNL1       -0.0309
     42 O           0.4836   -1.4074    2.7456 O.3     1  UNL1       -0.3834
     43 O           3.7451    1.2642    0.5774 O.3     1  UNL1       -0.3441
     44 C           4.9864    0.8974    0.0783 C.3     1  UNL1        0.0872
     45 C           6.0221    1.6495    0.8717 C.3     1  UNL1       -0.0361
     46 C           5.1460    1.1823   -1.3744 C.3     1  UNL1        0.1087
     47 O           6.3269    1.8825   -1.5793 O.3     1  UNL1       -0.3866
     48 H           5.0931    4.1028   -2.8670 H       1  UNL1        0.0524
     49 H           3.2518    4.1154   -2.9987 H       1  UNL1        0.0524
     50 H           4.1842    5.2598   -1.8832 H       1  UNL1        0.0524
     51 H           4.1156    2.1132   -2.9990 H       1  UNL1        0.0640
     52 H           1.8288    1.8404   -1.8964 H       1  UNL1        0.0535
     53 H           3.2465    0.3204   -3.3225 H       1  UNL1        0.1187
     54 H           3.2058   -0.7005   -1.9881 H       1  UNL1        0.1187
     55 H           1.7711    1.2794    0.2893 H       1  UNL1        0.0927
     56 H           0.7867    0.0368    0.8180 H       1  UNL1        0.0690
     57 H           0.8424   -1.6722   -1.3636 H       1  UNL1        0.1084
     58 H           0.0015   -1.1610   -3.0885 H       1  UNL1        0.0654
     59 H          -1.1477   -0.3784   -5.0493 H       1  UNL1        0.0619
     60 H          -3.3738    0.6392   -4.8194 H       1  UNL1        0.0625
     61 H          -5.0904    0.1156    5.5208 H       1  UNL1        0.0278
     62 H          -3.5059    0.5310    4.8723 H       1  UNL1        0.0278
     63 H          -4.2672   -1.1462    4.6122 H       1  UNL1        0.0278
     64 H          -6.8884    1.1554    4.4548 H       1  UNL1        0.0622
     65 H          -8.0469    1.9576    2.3952 H       1  UNL1        0.0654
     66 H          -5.8218    0.7161   -4.2989 H       1  UNL1        0.2922
     67 H           2.2375   -3.4426   -0.2411 H       1  UNL1        0.0621
     68 H           0.0492   -5.2136    0.7784 H       1  UNL1        0.0255
     69 H           1.2944   -5.5678   -0.4284 H       1  UNL1        0.0255
     70 H           1.6977   -5.5592    1.3676 H       1  UNL1        0.0255
     71 H           2.8990   -3.2788    1.8998 H       1  UNL1        0.0649
     72 H           0.3156   -4.0218    2.5279 H       1  UNL1        0.2100
     73 H           3.6966   -1.0871    1.9921 H       1  UNL1        0.0259
     74 H           2.9420   -1.4354    3.5552 H       1  UNL1        0.0259
     75 H           2.5518    0.1227    2.8096 H       1  UNL1        0.0259
     76 H           0.8172   -1.5399    3.6885 H       1  UNL1        0.2104
     77 H           5.1346   -0.2064    0.2594 H       1  UNL1        0.0621
     78 H           6.6319    0.9519    1.4861 H       1  UNL1        0.0255
     79 H           6.7243    2.2056    0.2344 H       1  UNL1        0.0255
     80 H           5.5563    2.4121    1.5523 H       1  UNL1        0.0255
     81 H           5.1330    0.2527   -2.0008 H       1  UNL1        0.0646
     82 H           6.9620    1.3930   -2.1820 H       1  UNL1        0.2100
@<TRIPOS>BOND
     1     1     2    1
     2     2     3    1
     3     3     4    1
     4     4     5    1
     5     4     6    1
     6     6     7    1
     7     7     8    1
     8     8     9    1
     9     9    10    1
    10    10    11    1
    11    11    12   ar
    12    12    13   ar
    13    13    14   ar
    14    14    15   ar
    15    15    16   ar
    16    16    17   ar
    17    17    18   ar
    18    18    19   ar
    19    19    20   ar
    20    20    21    2
    21    20    22   ar
    22    22    23   ar
    23    23    24   ar
    24    24    25   ar
    25    25    26   ar
    26    26    27    1
    27    26    28   ar
    28    28    29   ar
    29    25    30   ar
    30    30    31    2
    31    30    32   ar
    32    19    33   ar
    33    33    34    1
    34     9    35    1
    35    35    36    1
    36    36    37    1
    37    36    38    1
    38    38    39    1
    39    38    40    1
    40    40    41    1
    41    40    42    1
    42     6    43    1
    43    43    44    1
    44    44    45    1
    45    44    46    1
    46    46    47    1
    47    46     3    1
    48    40     8    1
    49    16    11   ar
    50    32    17   ar
    51    33    15   ar
    52    24    18   ar
    53    29    23   ar
    54     1    48    1
    55     1    49    1
    56     1    50    1
    57     3    51    1
    58     4    52    1
    59     5    53    1
    60     5    54    1
    61     6    55    1
    62     8    56    1
    63     9    57    1
    64    12    58    1
    65    13    59    1
    66    14    60    1
    67    27    61    1
    68    27    62    1
    69    27    63    1
    70    28    64    1
    71    29    65    1
    72    34    66    1
    73    36    67    1
    74    37    68    1
    75    37    69    1
    76    37    70    1
    77    38    71    1
    78    39    72    1
    79    41    73    1
    80    41    74    1
    81    41    75    1
    82    42    76    1
    83    44    77    1
    84    45    78    1
    85    45    79    1
    86    45    80    1
    87    46    81    1
    88    47    82    1
