@<TRIPOS>MOLECULE
*****
 69 73 0 0 0
SMALL
GASTEIGER

@<TRIPOS>ATOM
      1 C          -2.1164   -2.0494    2.8438 C.3     1  UNL1       -0.0362
      2 C          -3.2604   -1.9318    1.8979 C.ar    1  UNL1       -0.0062
      3 C          -4.4536   -2.5716    2.1634 C.ar    1  UNL1        0.0361
      4 N          -5.4657   -2.4555    1.2952 N.ar    1  UNL1       -0.2224
      5 C          -5.3418   -1.7335    0.1809 C.ar    1  UNL1        0.2201
      6 N          -6.4490   -1.6007   -0.7424 N.pl3   1  UNL1       -0.2809
      7 C          -7.2670   -0.4586   -0.7724 C.ar    1  UNL1        0.0744
      8 C          -7.1094    0.6650    0.0111 C.ar    1  UNL1        0.0467
      9 N          -8.0720    1.5538   -0.3066 N.ar    1  UNL1       -0.2724
     10 C          -8.2885    2.8754    0.2609 C.3     1  UNL1        0.0303
     11 N          -8.7927    1.0000   -1.2448 N.ar    1  UNL1       -0.1748
     12 C          -8.3607   -0.2214   -1.5766 C.ar    1  UNL1        0.0811
     13 C          -8.9175   -1.1747   -2.6011 C.3     1  UNL1       -0.0188
     14 N          -4.1755   -1.1137   -0.0692 N.ar    1  UNL1       -0.2139
     15 C          -3.1254   -1.1748    0.7331 C.ar    1  UNL1        0.0809
     16 C          -1.8518   -0.5176    0.5106 C.ar    1  UNL1        0.0258
     17 C          -1.1830    0.3602    1.3728 C.ar    1  UNL1        0.0120
     18 N          -0.0303    0.7463    0.7987 N.ar    1  UNL1       -0.3586
     19 C           0.0976    0.1716   -0.3953 C.ar    1  UNL1        0.0686
     20 C           1.1123    0.2797   -1.3157 C.ar    1  UNL1        0.0576
     21 N           2.2502    1.1076   -1.0518 N.am    1  UNL1       -0.2825
     22 C           3.3456    0.5900   -0.3290 C.2     1  UNL1        0.2342
     23 O           3.2957   -0.5890    0.0699 O.2     1  UNL1       -0.2738
     24 C           4.5179    1.4283   -0.0522 C.3     1  UNL1        0.0848
     25 C           4.0849    2.6361    0.7149 C.3     1  UNL1       -0.0409
     26 N           5.5625    0.7071    0.6509 N.3     1  UNL1       -0.2893
     27 C           6.5838    1.5216    1.2092 C.3     1  UNL1        0.0124
     28 C           7.7202    1.8385    0.2716 C.3     1  UNL1        0.0114
     29 N           8.3148    0.5990   -0.1884 N.3     1  UNL1       -0.3029
     30 C           9.1612   -0.0297    0.8050 C.3     1  UNL1       -0.0127
     31 C           7.3593   -0.2894   -0.7556 C.3     1  UNL1        0.0114
     32 C           6.0553   -0.4236   -0.0614 C.3     1  UNL1        0.0124
     33 C           1.0390   -0.4157   -2.4999 C.ar    1  UNL1       -0.0384
     34 C          -0.0797   -1.2198   -2.7298 C.ar    1  UNL1       -0.0593
     35 C          -1.0857   -1.3061   -1.7758 C.ar    1  UNL1       -0.0518
     36 C          -1.0207   -0.6136   -0.5882 C.ar    1  UNL1        0.0107
     37 H          -2.1075   -3.1391    3.1500 H       1  UNL1        0.0279
     38 H          -2.3261   -1.4600    3.7549 H       1  UNL1        0.0279
     39 H          -1.1500   -1.8723    2.3772 H       1  UNL1        0.0279
     40 H          -4.5501   -3.1653    3.0807 H       1  UNL1        0.0834
     41 H          -6.5988   -2.4106   -1.3813 H       1  UNL1        0.1551
     42 H          -6.3585    0.8467    0.7646 H       1  UNL1        0.0845
     43 H          -7.5546    3.6122   -0.1294 H       1  UNL1        0.0473
     44 H          -8.2375    2.7749    1.3534 H       1  UNL1        0.0473
     45 H          -9.2848    3.2287   -0.0604 H       1  UNL1        0.0473
     46 H          -8.4260   -1.0924   -3.5715 H       1  UNL1        0.0294
     47 H          -9.9954   -0.9309   -2.7448 H       1  UNL1        0.0294
     48 H          -8.8978   -2.2077   -2.1849 H       1  UNL1        0.0294
     49 H          -1.5583    0.6519    2.3267 H       1  UNL1        0.0814
     50 H           0.6565    1.4085    1.2457 H       1  UNL1        0.1654
     51 H           2.2323    2.0763   -1.4045 H       1  UNL1        0.1549
     52 H           4.9443    1.7750   -1.0294 H       1  UNL1        0.0556
     53 H           4.7924    3.4570    0.4725 H       1  UNL1        0.0249
     54 H           3.0951    2.9598    0.2663 H       1  UNL1        0.0249
     55 H           3.8956    2.4758    1.7738 H       1  UNL1        0.0249
     56 H           6.1831    2.4905    1.5766 H       1  UNL1        0.0439
     57 H           7.0078    1.0332    2.1219 H       1  UNL1        0.0439
     58 H           7.3177    2.3592   -0.6106 H       1  UNL1        0.0439
     59 H           8.4923    2.3934    0.8062 H       1  UNL1        0.0439
     60 H           8.6200   -0.3201    1.7236 H       1  UNL1        0.0391
     61 H           9.9859    0.6755    1.0474 H       1  UNL1        0.0391
     62 H           9.6275   -0.9085    0.3111 H       1  UNL1        0.0391
     63 H           7.8255   -1.2952   -0.8416 H       1  UNL1        0.0439
     64 H           7.2013    0.0516   -1.8194 H       1  UNL1        0.0439
     65 H           5.3094   -0.6976   -0.8673 H       1  UNL1        0.0439
     66 H           6.0301   -1.2997    0.6236 H       1  UNL1        0.0439
     67 H           1.8213   -0.3538   -3.2479 H       1  UNL1        0.0637
     68 H          -0.1035   -1.7500   -3.6644 H       1  UNL1        0.0618
     69 H          -1.9427   -1.9246   -1.9525 H       1  UNL1        0.0624
@<TRIPOS>BOND
     1     1     2    1
     2     2     3   ar
     3     3     4   ar
     4     4     5   ar
     5     5     6    1
     6     6     7    1
     7     7     8   ar
     8     8     9   ar
     9     9    10    1
    10     9    11   ar
    11    11    12   ar
    12    12    13    1
    13     5    14   ar
    14    14    15   ar
    15    15    16    1
    16    16    17   ar
    17    17    18   ar
    18    18    19   ar
    19    19    20   ar
    20    20    21    1
    21    21    22   am
    22    22    23    2
    23    22    24    1
    24    24    25    1
    25    24    26    1
    26    26    27    1
    27    27    28    1
    28    28    29    1
    29    29    30    1
    30    29    31    1
    31    31    32    1
    32    20    33   ar
    33    33    34   ar
    34    34    35   ar
    35    35    36   ar
    36    15     2   ar
    37    36    16   ar
    38    12     7   ar
    39    36    19   ar
    40    32    26    1
    41     1    37    1
    42     1    38    1
    43     1    39    1
    44     3    40    1
    45     6    41    1
    46     8    42    1
    47    10    43    1
    48    10    44    1
    49    10    45    1
    50    13    46    1
    51    13    47    1
    52    13    48    1
    53    17    49    1
    54    18    50    1
    55    21    51    1
    56    24    52    1
    57    25    53    1
    58    25    54    1
    59    25    55    1
    60    27    56    1
    61    27    57    1
    62    28    58    1
    63    28    59    1
    64    30    60    1
    65    30    61    1
    66    30    62    1
    67    31    63    1
    68    31    64    1
    69    32    65    1
    70    32    66    1
    71    33    67    1
    72    34    68    1
    73    35    69    1
