
     RDKit          3D

 65 69  0  0  0  0  0  0  0  0999 V2000
   -5.4795   -0.0715    1.3594 C   0  0  0  0  0  0  0  0  0  0  0  0
   -5.6550   -0.7585    0.0516 C   0  0  0  0  0  0  0  0  0  0  0  0
   -4.6098   -0.8348   -0.8205 C   0  0  0  0  0  0  0  0  0  0  0  0
   -3.3201   -0.2986   -0.6651 N   0  0  0  0  0  0  0  0  0  0  0  0
   -3.0826    1.1614   -0.4719 C   0  0  0  0  0  0  0  0  0  0  0  0
   -4.1640    1.9057   -0.9815 C   0  0  0  0  0  0  0  0  0  0  0  0
   -5.2695    1.6506   -1.5829 C   0  0  0  0  0  0  0  0  0  0  0  0
   -6.3794    1.3880   -2.1634 N   0  0  0  0  0  0  0  0  0  0  0  0
   -3.8258    3.4926   -0.7759 C   0  0  0  0  0  0  0  0  0  0  0  0
   -2.7484    3.2640   -0.2585 N   0  0  0  0  0  0  0  0  0  0  0  0
   -1.7304    3.0776    0.2311 C   0  0  0  0  0  0  0  0  0  0  0  0
   -1.9135    1.4478    0.0986 C   0  0  0  0  0  0  0  0  0  0  0  0
   -0.7837    0.7264    0.4601 C   0  0  0  0  0  0  0  0  0  0  0  0
    0.1740    0.4559   -0.5706 C   0  0  0  0  0  0  0  0  0  0  0  0
    1.3779   -0.1078   -0.2614 C   0  0  0  0  0  0  0  0  0  0  0  0
    1.7684   -0.4513    0.9903 C   0  0  0  0  0  0  0  0  0  0  0  0
    2.9881   -0.9971    1.2919 O   0  0  0  0  0  0  0  0  0  0  0  0
    4.0682   -1.2724    0.4724 C   0  0  0  0  0  0  0  0  0  0  0  0
    4.7310   -0.1167   -0.2069 C   0  0  0  0  0  0  0  0  0  0  0  0
    5.2891    0.8875    0.6942 N   0  0  0  0  0  0  0  0  0  0  0  0
    6.1249    1.8096   -0.0547 C   0  0  0  0  0  0  0  0  0  0  0  0
    7.4587    1.1548   -0.3942 C   0  0  0  0  0  0  0  0  0  0  0  0
    7.7262   -0.0131    0.3318 N   0  0  0  0  0  0  0  0  0  0  0  0
    7.9713   -1.2081   -0.3131 C   0  0  0  0  0  0  0  0  0  0  0  0
    7.3150   -0.0665    1.6534 C   0  0  0  0  0  0  0  0  0  0  0  0
    5.8651    0.3610    1.8780 C   0  0  0  0  0  0  0  0  0  0  0  0
    0.8460   -0.2054    2.0155 C   0  0  0  0  0  0  0  0  0  0  0  0
   -0.3882    0.3687    1.7273 C   0  0  0  0  0  0  0  0  0  0  0  0
   -4.8729   -1.5146   -2.0535 C   0  0  0  0  0  0  0  0  0  0  0  0
   -6.1121   -2.0339   -2.2869 C   0  0  0  0  0  0  0  0  0  0  0  0
   -7.1434   -1.9513   -1.4143 C   0  0  0  0  0  0  0  0  0  0  0  0
   -8.4494   -2.3771   -1.4442 N   0  0  0  0  0  0  0  0  0  0  0  0
   -9.0586   -2.0125   -0.3074 C   0  0  0  0  0  0  0  0  0  0  0  0
   -8.1051   -1.3425    0.4721 C   0  0  0  0  0  0  0  0  0  0  0  0
   -6.9068   -1.3003   -0.2132 C   0  0  0  0  0  0  0  0  0  0  0  0
   -6.2405    0.6787    1.5341 H   0  0  0  0  0  0  0  0  0  0  0  0
   -4.4792    0.3145    1.5153 H   0  0  0  0  0  0  0  0  0  0  0  0
   -5.6388   -0.8739    2.1409 H   0  0  0  0  0  0  0  0  0  0  0  0
   -2.5262   -0.9699   -0.6766 H   0  0  0  0  0  0  0  0  0  0  0  0
   -4.5906    4.0281   -1.1329 H   0  0  0  0  0  0  0  0  0  0  0  0
   -0.8083    3.1968    0.6761 H   0  0  0  0  0  0  0  0  0  0  0  0
   -0.1199    0.7142   -1.5888 H   0  0  0  0  0  0  0  0  0  0  0  0
    2.0713   -0.3545   -1.0949 H   0  0  0  0  0  0  0  0  0  0  0  0
    4.8176   -1.9422    0.9779 H   0  0  0  0  0  0  0  0  0  0  0  0
    3.7282   -1.9535   -0.3897 H   0  0  0  0  0  0  0  0  0  0  0  0
    5.4263   -0.4202   -1.0162 H   0  0  0  0  0  0  0  0  0  0  0  0
    3.9700    0.4886   -0.7862 H   0  0  0  0  0  0  0  0  0  0  0  0
    6.2912    2.7599    0.4786 H   0  0  0  0  0  0  0  0  0  0  0  0
    5.5861    1.9969   -1.0041 H   0  0  0  0  0  0  0  0  0  0  0  0
    8.2538    1.9457   -0.1868 H   0  0  0  0  0  0  0  0  0  0  0  0
    7.4786    1.0695   -1.5155 H   0  0  0  0  0  0  0  0  0  0  0  0
    8.6712   -1.8570    0.2994 H   0  0  0  0  0  0  0  0  0  0  0  0
    7.0552   -1.8310   -0.5259 H   0  0  0  0  0  0  0  0  0  0  0  0
    8.4194   -1.0956   -1.3421 H   0  0  0  0  0  0  0  0  0  0  0  0
    7.9643    0.6079    2.2921 H   0  0  0  0  0  0  0  0  0  0  0  0
    7.4363   -1.0644    2.1457 H   0  0  0  0  0  0  0  0  0  0  0  0
    5.3168   -0.5565    2.2221 H   0  0  0  0  0  0  0  0  0  0  0  0
    5.8158    1.0348    2.7744 H   0  0  0  0  0  0  0  0  0  0  0  0
    1.1451   -0.4810    3.0182 H   0  0  0  0  0  0  0  0  0  0  0  0
   -1.0892    0.5536    2.5239 H   0  0  0  0  0  0  0  0  0  0  0  0
   -4.0797   -1.5962   -2.7544 H   0  0  0  0  0  0  0  0  0  0  0  0
   -6.3231   -2.5620   -3.2486 H   0  0  0  0  0  0  0  0  0  0  0  0
   -8.8437   -2.9011   -2.2793 H   0  0  0  0  0  0  0  0  0  0  0  0
  -10.0992   -2.2171   -0.0889 H   0  0  0  0  0  0  0  0  0  0  0  0
   -8.3146   -0.9309    1.4295 H   0  0  0  0  0  0  0  0  0  0  0  0
  1  2  1  0
  2  3  2  0
  3  4  1  0
  4  5  1  0
  5  6  2  0
  6  7  1  0
  7  8  3  0
  6  9  1  0
  9 10  2  0
 10 11  1  0
 11 12  2  0
 12 13  1  0
 13 14  2  0
 14 15  1  0
 15 16  2  0
 16 17  1  0
 17 18  1  0
 18 19  1  0
 19 20  1  0
 20 21  1  0
 21 22  1  0
 22 23  1  0
 23 24  1  0
 23 25  1  0
 25 26  1  0
 16 27  1  0
 27 28  2  0
  3 29  1  0
 29 30  2  0
 30 31  1  0
 31 32  1  0
 32 33  1  0
 33 34  2  0
 34 35  1  0
 35  2  1  0
 12  5  1  0
 28 13  1  0
 35 31  2  0
 26 20  1  0
  1 36  1  0
  1 37  1  0
  1 38  1  0
  4 39  1  0
  9 40  1  0
 11 41  1  0
 14 42  1  0
 15 43  1  0
 18 44  1  0
 18 45  1  0
 19 46  1  0
 19 47  1  0
 21 48  1  0
 21 49  1  0
 22 50  1  0
 22 51  1  0
 24 52  1  0
 24 53  1  0
 24 54  1  0
 25 55  1  0
 25 56  1  0
 26 57  1  0
 26 58  1  0
 27 59  1  0
 28 60  1  0
 29 61  1  0
 30 62  1  0
 32 63  1  0
 33 64  1  0
 34 65  1  0
M  END
$$$$
