@<TRIPOS>MOLECULE
*****
 65 69 0 0 0
SMALL
GASTEIGER

@<TRIPOS>ATOM
      1 C          -5.4795   -0.0715    1.3594 C.3     1  UNL1       -0.0373
      2 C          -5.6550   -0.7585    0.0516 C.ar    1  UNL1       -0.0202
      3 C          -4.6098   -0.8348   -0.8205 C.ar    1  UNL1        0.0350
      4 N          -3.3201   -0.2986   -0.6651 N.pl3   1  UNL1       -0.3127
      5 C          -3.0826    1.1614   -0.4719 C.ar    1  UNL1        0.0597
      6 C          -4.1640    1.9057   -0.9815 C.ar    1  UNL1        0.0915
      7 C          -5.2695    1.6506   -1.5829 C.1     1  UNL1        0.1026
      8 N          -6.3794    1.3880   -2.1634 N.1     1  UNL1       -0.1908
      9 C          -3.8258    3.4926   -0.7759 C.ar    1  UNL1        0.0468
     10 N          -2.7484    3.2640   -0.2585 N.ar    1  UNL1       -0.2613
     11 C          -1.7304    3.0776    0.2311 C.ar    1  UNL1        0.0371
     12 C          -1.9135    1.4478    0.0986 C.ar    1  UNL1        0.0226
     13 C          -0.7837    0.7264    0.4601 C.ar    1  UNL1       -0.0144
     14 C           0.1740    0.4559   -0.5706 C.ar    1  UNL1       -0.0505
     15 C           1.3779   -0.1078   -0.2614 C.ar    1  UNL1       -0.0194
     16 C           1.7684   -0.4513    0.9903 C.ar    1  UNL1        0.1206
     17 O           2.9881   -0.9971    1.2919 O.3     1  UNL1       -0.4907
     18 C           4.0682   -1.2724    0.4724 C.3     1  UNL1        0.1022
     19 C           4.7310   -0.1167   -0.2069 C.3     1  UNL1        0.0332
     20 N           5.2891    0.8875    0.6942 N.3     1  UNL1       -0.2967
     21 C           6.1249    1.8096   -0.0547 C.3     1  UNL1        0.0118
     22 C           7.4587    1.1548   -0.3942 C.3     1  UNL1        0.0114
     23 N           7.7262   -0.0131    0.3318 N.3     1  UNL1       -0.3029
     24 C           7.9713   -1.2081   -0.3131 C.3     1  UNL1       -0.0127
     25 C           7.3150   -0.0665    1.6534 C.3     1  UNL1        0.0114
     26 C           5.8651    0.3610    1.8780 C.3     1  UNL1        0.0118
     27 C           0.8460   -0.2054    2.0155 C.ar    1  UNL1       -0.0194
     28 C          -0.3882    0.3687    1.7273 C.ar    1  UNL1       -0.0505
     29 C          -4.8729   -1.5146   -2.0535 C.ar    1  UNL1       -0.0383
     30 C          -6.1121   -2.0339   -2.2869 C.ar    1  UNL1       -0.0360
     31 C          -7.1434   -1.9513   -1.4143 C.ar    1  UNL1        0.0468
     32 N          -8.4494   -2.3771   -1.4442 N.ar    1  UNL1       -0.3606
     33 C          -9.0586   -2.0125   -0.3074 C.ar    1  UNL1        0.0027
     34 C          -8.1051   -1.3425    0.4721 C.ar    1  UNL1       -0.0364
     35 C          -6.9068   -1.3003   -0.2132 C.ar    1  UNL1        0.0043
     36 H          -6.2405    0.6787    1.5341 H       1  UNL1        0.0278
     37 H          -4.4792    0.3145    1.5153 H       1  UNL1        0.0278
     38 H          -5.6388   -0.8739    2.1409 H       1  UNL1        0.0278
     39 H          -2.5262   -0.9699   -0.6766 H       1  UNL1        0.1522
     40 H          -4.5906    4.0281   -1.1329 H       1  UNL1        0.0843
     41 H          -0.8083    3.1968    0.6761 H       1  UNL1        0.0836
     42 H          -0.1199    0.7142   -1.5888 H       1  UNL1        0.0625
     43 H           2.0713   -0.3545   -1.0949 H       1  UNL1        0.0654
     44 H           4.8176   -1.9422    0.9779 H       1  UNL1        0.0709
     45 H           3.7282   -1.9535   -0.3897 H       1  UNL1        0.0709
     46 H           5.4263   -0.4202   -1.0162 H       1  UNL1        0.0460
     47 H           3.9700    0.4886   -0.7862 H       1  UNL1        0.0460
     48 H           6.2912    2.7599    0.4786 H       1  UNL1        0.0439
     49 H           5.5861    1.9969   -1.0041 H       1  UNL1        0.0439
     50 H           8.2538    1.9457   -0.1868 H       1  UNL1        0.0439
     51 H           7.4786    1.0695   -1.5155 H       1  UNL1        0.0439
     52 H           8.6712   -1.8570    0.2994 H       1  UNL1        0.0391
     53 H           7.0552   -1.8310   -0.5259 H       1  UNL1        0.0391
     54 H           8.4194   -1.0956   -1.3421 H       1  UNL1        0.0391
     55 H           7.9643    0.6079    2.2921 H       1  UNL1        0.0439
     56 H           7.4363   -1.0644    2.1457 H       1  UNL1        0.0439
     57 H           5.3168   -0.5565    2.2221 H       1  UNL1        0.0439
     58 H           5.8158    1.0348    2.7744 H       1  UNL1        0.0439
     59 H           1.1451   -0.4810    3.0182 H       1  UNL1        0.0654
     60 H          -1.0892    0.5536    2.5239 H       1  UNL1        0.0625
     61 H          -4.0797   -1.5962   -2.7544 H       1  UNL1        0.0637
     62 H          -6.3231   -2.5620   -3.2486 H       1  UNL1        0.0639
     63 H          -8.8437   -2.9011   -2.2793 H       1  UNL1        0.1653
     64 H         -10.0992   -2.2171   -0.0889 H       1  UNL1        0.0807
     65 H          -8.3146   -0.9309    1.4295 H       1  UNL1        0.0639
@<TRIPOS>BOND
     1     1     2    1
     2     2     3   ar
     3     3     4    1
     4     4     5    1
     5     5     6   ar
     6     6     7    1
     7     7     8    3
     8     6     9   ar
     9     9    10   ar
    10    10    11   ar
    11    11    12   ar
    12    12    13    1
    13    13    14   ar
    14    14    15   ar
    15    15    16   ar
    16    16    17    1
    17    17    18    1
    18    18    19    1
    19    19    20    1
    20    20    21    1
    21    21    22    1
    22    22    23    1
    23    23    24    1
    24    23    25    1
    25    25    26    1
    26    16    27   ar
    27    27    28   ar
    28     3    29   ar
    29    29    30   ar
    30    30    31   ar
    31    31    32   ar
    32    32    33   ar
    33    33    34   ar
    34    34    35   ar
    35    35     2   ar
    36    12     5   ar
    37    28    13   ar
    38    35    31   ar
    39    26    20    1
    40     1    36    1
    41     1    37    1
    42     1    38    1
    43     4    39    1
    44     9    40    1
    45    11    41    1
    46    14    42    1
    47    15    43    1
    48    18    44    1
    49    18    45    1
    50    19    46    1
    51    19    47    1
    52    21    48    1
    53    21    49    1
    54    22    50    1
    55    22    51    1
    56    24    52    1
    57    24    53    1
    58    24    54    1
    59    25    55    1
    60    25    56    1
    61    26    57    1
    62    26    58    1
    63    27    59    1
    64    28    60    1
    65    29    61    1
    66    30    62    1
    67    32    63    1
    68    33    64    1
    69    34    65    1
