@<TRIPOS>MOLECULE
*****
 48 51 0 0 0
SMALL
GASTEIGER

@<TRIPOS>ATOM
      1 O          -0.4991   -1.6392    1.3427 O.2     1  UNL1       -0.2748
      2 C          -1.1315   -1.1071    0.3633 C.2     1  UNL1        0.2271
      3 C          -0.3783   -0.9695   -0.8792 C.3     1  UNL1        0.0826
      4 C           1.0448   -1.4443   -0.7040 C.ar    1  UNL1        0.1206
      5 N           1.9857   -0.5610   -0.3282 N.ar    1  UNL1       -0.2186
      6 C           3.2575   -0.9216   -0.1572 C.ar    1  UNL1        0.1285
      7 N           4.2412    0.0025    0.2354 N.pl3   1  UNL1       -0.3106
      8 C           3.8339    1.4022    0.4713 C.3     1  UNL1        0.0370
      9 C           4.7277    2.2686   -0.3858 C.3     1  UNL1        0.0634
     10 O           6.0395    2.0602    0.0948 O.3     1  UNL1       -0.3767
     11 C           6.4147    0.8062   -0.3412 C.3     1  UNL1        0.0634
     12 C           5.6319   -0.2523    0.4416 C.3     1  UNL1        0.0370
     13 C           3.5814   -2.2322   -0.3777 C.ar    1  UNL1        0.0427
     14 C           2.6307   -3.1712   -0.7675 C.ar    1  UNL1        0.2533
     15 O           2.9082   -4.3669   -0.9724 O.2     1  UNL1       -0.2677
     16 N           1.3530   -2.7171   -0.9195 N.ar    1  UNL1       -0.3104
     17 N          -2.4712   -0.7196    0.6038 N.am    1  UNL1       -0.2705
     18 C          -3.1746   -0.9182    1.8873 C.3     1  UNL1        0.0238
     19 C          -3.9571    0.3914    1.9523 C.3     1  UNL1       -0.0091
     20 C          -4.3583    0.6019    0.5422 C.ar    1  UNL1       -0.0129
     21 C          -3.4292   -0.0922   -0.2346 C.ar    1  UNL1        0.0400
     22 C          -3.5385   -0.0853   -1.6020 C.ar    1  UNL1       -0.0400
     23 C          -4.5888    0.6254   -2.1659 C.ar    1  UNL1       -0.0595
     24 C          -5.4983    1.3064   -1.3754 C.ar    1  UNL1       -0.0497
     25 C          -5.4054    1.3115    0.0010 C.ar    1  UNL1        0.0598
     26 C          -6.3769    2.0393    0.8583 C.3     1  UNL1        0.4177
     27 F          -5.7039    2.9998    1.6184 F       1  UNL1       -0.1659
     28 F          -6.9085    1.1458    1.7679 F       1  UNL1       -0.1659
     29 F          -7.3697    2.6297    0.1402 F       1  UNL1       -0.1659
     30 H          -0.7829   -1.5889   -1.7123 H       1  UNL1        0.0438
     31 H          -0.3837    0.0916   -1.1896 H       1  UNL1        0.0438
     32 H           3.9645    1.6794    1.5344 H       1  UNL1        0.0487
     33 H           2.7813    1.5605    0.1597 H       1  UNL1        0.0487
     34 H           4.6283    1.8957   -1.4352 H       1  UNL1        0.0575
     35 H           4.5025    3.3341   -0.2958 H       1  UNL1        0.0575
     36 H           7.5061    0.6232   -0.2745 H       1  UNL1        0.0575
     37 H           6.1137    0.7192   -1.4051 H       1  UNL1        0.0575
     38 H           6.0143   -1.2134    0.1153 H       1  UNL1        0.0487
     39 H           5.8311   -0.1413    1.5316 H       1  UNL1        0.0487
     40 H           4.5850   -2.5774   -0.2552 H       1  UNL1        0.0706
     41 H           0.6407   -3.4029   -1.2077 H       1  UNL1        0.1700
     42 H          -3.8690   -1.7654    1.7667 H       1  UNL1        0.0472
     43 H          -2.4659   -1.0245    2.7215 H       1  UNL1        0.0472
     44 H          -3.2498    1.1958    2.2226 H       1  UNL1        0.0329
     45 H          -4.8205    0.3204    2.6334 H       1  UNL1        0.0329
     46 H          -2.8252   -0.6186   -2.2058 H       1  UNL1        0.0636
     47 H          -4.6981    0.6471   -3.2410 H       1  UNL1        0.0618
     48 H          -6.3331    1.8725   -1.7984 H       1  UNL1        0.0623
@<TRIPOS>BOND
     1     1     2    2
     2     2     3    1
     3     3     4    1
     4     4     5   ar
     5     5     6   ar
     6     6     7    1
     7     7     8    1
     8     8     9    1
     9     9    10    1
    10    10    11    1
    11    11    12    1
    12     6    13   ar
    13    13    14   ar
    14    14    15    2
    15    14    16   ar
    16     2    17   am
    17    17    18    1
    18    18    19    1
    19    19    20    1
    20    20    21   ar
    21    21    22   ar
    22    22    23   ar
    23    23    24   ar
    24    24    25   ar
    25    25    26    1
    26    26    27    1
    27    26    28    1
    28    26    29    1
    29    16     4   ar
    30    21    17    1
    31    12     7    1
    32    25    20   ar
    33     3    30    1
    34     3    31    1
    35     8    32    1
    36     8    33    1
    37     9    34    1
    38     9    35    1
    39    11    36    1
    40    11    37    1
    41    12    38    1
    42    12    39    1
    43    13    40    1
    44    16    41    1
    45    18    42    1
    46    18    43    1
    47    19    44    1
    48    19    45    1
    49    22    46    1
    50    23    47    1
    51    24    48    1
