@<TRIPOS>MOLECULE
*****
 8 7 0 0 0
SMALL
GASTEIGER

@<TRIPOS>ATOM
      1 C           0.6881   -0.0641   -0.2006 C.3     1  UNL1        0.1831
      2 CL          1.4865   -1.3762    0.6682 Cl      1  UNL1       -0.1001
      3 BR          1.5749    1.5891    0.2613 Br      1  UNL1       -0.0614
      4 C          -0.7861    0.0233    0.1067 C.3     1  UNL1        0.4154
      5 F          -1.3068    1.0835   -0.6272 F       1  UNL1       -0.1682
      6 F          -1.0642    0.1126    1.4349 F       1  UNL1       -0.1682
      7 F          -1.4076   -1.1187   -0.3669 F       1  UNL1       -0.1682
      8 H           0.8152   -0.2494   -1.2765 H       1  UNL1        0.0676
@<TRIPOS>BOND
     1     1     2    1
     2     1     3    1
     3     1     4    1
     4     4     5    1
     5     4     6    1
     6     4     7    1
     7     1     8    1
