@<TRIPOS>MOLECULE
*****
 47 50 0 0 0
SMALL
GASTEIGER

@<TRIPOS>ATOM
      1 C          -2.0657   -4.3002   -0.2293 C.3     1  UNL1       -0.0122
      2 N          -1.9301   -2.9202    0.1676 N.3     1  UNL1       -0.2986
      3 C          -0.5843   -2.4606   -0.1406 C.3     1  UNL1        0.0239
      4 C          -0.6045   -2.1979   -1.6027 C.3     1  UNL1       -0.0351
      5 C          -2.0491   -2.1108   -2.0418 C.3     1  UNL1       -0.0359
      6 C          -2.7285   -2.0357   -0.6649 C.3     1  UNL1        0.0110
      7 C          -2.6218   -0.6314   -0.1979 C.3     1  UNL1       -0.0297
      8 C          -1.5488   -0.3631    0.8263 C.3     1  UNL1       -0.0001
      9 C          -1.2913    1.0966    0.8230 C.ar    1  UNL1       -0.0433
     10 C          -1.5454    1.8909    1.9396 C.ar    1  UNL1       -0.0573
     11 C          -1.3317    3.2480    1.9711 C.ar    1  UNL1       -0.0483
     12 C          -0.8416    3.8855    0.8576 C.ar    1  UNL1        0.0134
     13 I          -0.4877    5.9624    0.8278 I       1  UNL1       -0.0438
     14 C          -0.5784    3.1383   -0.2622 C.ar    1  UNL1       -0.0483
     15 C          -0.7994    1.7809   -0.2726 C.ar    1  UNL1       -0.0573
     16 C          -0.3647   -1.2351    0.7235 C.3     1  UNL1        0.0791
     17 C           0.9168   -0.6011    0.3805 C.2     1  UNL1        0.3175
     18 O           1.6497   -1.1598   -0.4700 O.2     1  UNL1       -0.2500
     19 O           1.3913    0.5788    0.9267 O.3     1  UNL1       -0.4256
     20 C           2.6192    1.1107    0.5578 C.ar    1  UNL1        0.1316
     21 C           2.7569    1.8814   -0.5729 C.ar    1  UNL1       -0.0192
     22 C           3.9748    2.4138   -0.9450 C.ar    1  UNL1       -0.0583
     23 C           5.1047    2.1917   -0.1935 C.ar    1  UNL1       -0.0615
     24 C           4.9839    1.4210    0.9429 C.ar    1  UNL1       -0.0583
     25 C           3.7513    0.8865    1.3131 C.ar    1  UNL1       -0.0192
     26 H          -1.6023   -4.9319    0.5378 H       1  UNL1        0.0391
     27 H          -1.4995   -4.5050   -1.1846 H       1  UNL1        0.0391
     28 H          -3.1297   -4.5801   -0.3420 H       1  UNL1        0.0391
     29 H           0.1340   -3.2644    0.1187 H       1  UNL1        0.0471
     30 H          -0.1134   -1.2908   -1.9513 H       1  UNL1        0.0281
     31 H          -0.1337   -3.0627   -2.1571 H       1  UNL1        0.0281
     32 H          -2.3889   -2.9721   -2.6157 H       1  UNL1        0.0281
     33 H          -2.2512   -1.1979   -2.6355 H       1  UNL1        0.0281
     34 H          -3.7679   -2.3903   -0.7772 H       1  UNL1        0.0463
     35 H          -3.6306   -0.3542    0.2326 H       1  UNL1        0.0286
     36 H          -2.5278    0.0422   -1.0839 H       1  UNL1        0.0286
     37 H          -2.0542   -0.5700    1.8216 H       1  UNL1        0.0358
     38 H          -1.9335    1.3885    2.8225 H       1  UNL1        0.0621
     39 H          -1.5437    3.8293    2.8636 H       1  UNL1        0.0628
     40 H          -0.1940    3.6485   -1.1308 H       1  UNL1        0.0628
     41 H          -0.5902    1.1819   -1.1643 H       1  UNL1        0.0621
     42 H          -0.1671   -1.6896    1.7572 H       1  UNL1        0.0435
     43 H           1.9272    2.0895   -1.2004 H       1  UNL1        0.0654
     44 H           4.0338    3.0124   -1.8404 H       1  UNL1        0.0619
     45 H           6.0664    2.6013   -0.4707 H       1  UNL1        0.0618
     46 H           5.8838    1.2567    1.5220 H       1  UNL1        0.0619
     47 H           3.7068    0.2879    2.2137 H       1  UNL1        0.0654
@<TRIPOS>BOND
     1     1     2    1
     2     2     3    1
     3     3     4    1
     4     4     5    1
     5     5     6    1
     6     6     7    1
     7     7     8    1
     8     8     9    1
     9     9    10   ar
    10    10    11   ar
    11    11    12   ar
    12    12    13    1
    13    12    14   ar
    14    14    15   ar
    15     8    16    1
    16    16    17    1
    17    17    18    2
    18    17    19    1
    19    19    20    1
    20    20    21   ar
    21    21    22   ar
    22    22    23   ar
    23    23    24   ar
    24    24    25   ar
    25     6     2    1
    26    15     9   ar
    27    25    20   ar
    28    16     3    1
    29     1    26    1
    30     1    27    1
    31     1    28    1
    32     3    29    1
    33     4    30    1
    34     4    31    1
    35     5    32    1
    36     5    33    1
    37     6    34    1
    38     7    35    1
    39     7    36    1
    40     8    37    1
    41    10    38    1
    42    11    39    1
    43    14    40    1
    44    15    41    1
    45    16    42    1
    46    21    43    1
    47    22    44    1
    48    23    45    1
    49    24    46    1
    50    25    47    1
