
     RDKit          3D

 75 81  0  0  0  0  0  0  0  0999 V2000
    2.9913   -1.8321    1.7835 C   0  0  0  0  0  0  0  0  0  0  0  0
    2.6855   -1.8487    0.4513 O   0  0  0  0  0  0  0  0  0  0  0  0
    1.5460   -1.1800    0.0639 C   0  0  2  0  0  0  0  0  0  0  0  0
    1.1665   -1.4376   -1.3733 C   0  0  0  0  0  0  0  0  0  0  0  0
   -0.0808   -0.6582   -1.7040 C   0  0  0  0  0  0  0  0  0  0  0  0
   -0.7115   -0.1570   -0.4594 C   0  0  1  0  0  0  0  0  0  0  0  0
    0.1578    0.8669    0.1791 C   0  0  0  0  0  0  0  0  0  0  0  0
    1.5810    0.2978    0.3429 C   0  0  2  0  0  0  0  0  0  0  0  0
    2.5672    1.2020   -0.2220 C   0  0  2  0  0  0  0  0  0  0  0  0
    2.2634    2.6694    0.2751 C   0  0  0  0  0  0  0  0  0  0  0  0
    2.4108    1.3763   -1.6333 O   0  0  0  0  0  0  0  0  0  0  0  0
    4.0485    1.0591   -0.0832 C   0  0  0  0  0  0  0  0  0  0  0  0
    4.6690   -0.1772   -0.6542 C   0  0  0  0  0  0  0  0  0  0  0  0
    4.7157    2.2322   -0.8756 C   0  0  0  0  0  0  0  0  0  0  0  0
    4.5262    1.2942    1.3375 C   0  0  0  0  0  0  0  0  0  0  0  0
   -2.1073    0.3488   -0.7478 C   0  0  1  0  0  0  0  0  0  0  0  0
   -3.0672   -0.7408   -1.0882 C   0  0  0  0  0  0  0  0  0  0  0  0
   -2.5631   -2.1217   -0.9738 C   0  0  0  0  0  0  0  0  0  0  0  0
   -1.4700   -2.3953   -0.2262 C   0  0  0  0  0  0  0  0  0  0  0  0
   -0.7326   -3.5160    0.0554 C   0  0  0  0  0  0  0  0  0  0  0  0
    0.3224   -3.1457    0.9122 O   0  0  0  0  0  0  0  0  0  0  0  0
    0.4591   -1.7596    0.9671 C   0  0  2  0  0  0  0  0  0  0  0  0
   -0.8872   -1.2627    0.5532 C   0  0  1  0  0  0  0  0  0  0  0  0
   -1.7472   -0.9307    1.6914 C   0  0  0  0  0  0  0  0  0  0  0  0
   -2.6104    0.2707    1.5972 C   0  0  0  0  0  0  0  0  0  0  0  0
   -2.6396    1.0050    0.4178 N   0  0  0  0  0  0  0  0  0  0  0  0
   -2.9972    2.3388    0.3551 C   0  0  0  0  0  0  0  0  0  0  0  0
   -4.4969    2.4684    0.6673 C   0  0  0  0  0  0  0  0  0  0  0  0
   -5.1324    3.7894    0.6648 C   0  0  0  0  0  0  0  0  0  0  0  0
   -5.4024    2.7733   -0.4779 C   0  0  0  0  0  0  0  0  0  0  0  0
   -1.2948   -4.6069   -0.6132 C   0  0  0  0  0  0  0  0  0  0  0  0
   -0.6238   -5.8134   -0.3973 O   0  0  0  0  0  0  0  0  0  0  0  0
   -2.4256   -4.4887   -1.4215 C   0  0  0  0  0  0  0  0  0  0  0  0
   -3.0561   -3.2487   -1.6004 C   0  0  0  0  0  0  0  0  0  0  0  0
    3.9729   -2.3904    1.8805 H   0  0  0  0  0  0  0  0  0  0  0  0
    2.2820   -2.4703    2.3867 H   0  0  0  0  0  0  0  0  0  0  0  0
    3.1074   -0.8831    2.2869 H   0  0  0  0  0  0  0  0  0  0  0  0
    0.8857   -2.5314   -1.4467 H   0  0  0  0  0  0  0  0  0  0  0  0
    1.9601   -1.3153   -2.1053 H   0  0  0  0  0  0  0  0  0  0  0  0
   -0.7710   -1.2723   -2.3385 H   0  0  0  0  0  0  0  0  0  0  0  0
    0.1910    0.1882   -2.3518 H   0  0  0  0  0  0  0  0  0  0  0  0
    0.1288    1.7654   -0.4470 H   0  0  0  0  0  0  0  0  0  0  0  0
   -0.2956    1.1549    1.1462 H   0  0  0  0  0  0  0  0  0  0  0  0
    1.7107    0.3305    1.4779 H   0  0  0  0  0  0  0  0  0  0  0  0
    1.9634    2.6345    1.3159 H   0  0  0  0  0  0  0  0  0  0  0  0
    1.5733    3.1626   -0.4121 H   0  0  0  0  0  0  0  0  0  0  0  0
    3.2162    3.2098    0.1874 H   0  0  0  0  0  0  0  0  0  0  0  0
    1.7767    2.0851   -1.8510 H   0  0  0  0  0  0  0  0  0  0  0  0
    4.0978   -0.6869   -1.4389 H   0  0  0  0  0  0  0  0  0  0  0  0
    5.1067   -0.8694    0.1162 H   0  0  0  0  0  0  0  0  0  0  0  0
    5.6358    0.1057   -1.2275 H   0  0  0  0  0  0  0  0  0  0  0  0
    5.1804    2.9569   -0.2128 H   0  0  0  0  0  0  0  0  0  0  0  0
    5.5235    1.7662   -1.4592 H   0  0  0  0  0  0  0  0  0  0  0  0
    3.9976    2.6423   -1.6175 H   0  0  0  0  0  0  0  0  0  0  0  0
    5.0746    2.2458    1.4132 H   0  0  0  0  0  0  0  0  0  0  0  0
    5.2155    0.5037    1.6401 H   0  0  0  0  0  0  0  0  0  0  0  0
    3.6389    1.4239    1.9966 H   0  0  0  0  0  0  0  0  0  0  0  0
   -2.0391    1.0827   -1.5649 H   0  0  0  0  0  0  0  0  0  0  0  0
   -3.5568   -0.5717   -2.0901 H   0  0  0  0  0  0  0  0  0  0  0  0
   -3.9636   -0.7141   -0.3919 H   0  0  0  0  0  0  0  0  0  0  0  0
    0.6100   -1.4133    2.0188 H   0  0  0  0  0  0  0  0  0  0  0  0
   -1.1646   -0.9341    2.6838 H   0  0  0  0  0  0  0  0  0  0  0  0
   -2.4261   -1.8285    1.8601 H   0  0  0  0  0  0  0  0  0  0  0  0
   -3.6813   -0.0334    1.8277 H   0  0  0  0  0  0  0  0  0  0  0  0
   -2.3813    0.9702    2.4518 H   0  0  0  0  0  0  0  0  0  0  0  0
   -2.4511    2.9890    1.0905 H   0  0  0  0  0  0  0  0  0  0  0  0
   -2.8398    2.8118   -0.6365 H   0  0  0  0  0  0  0  0  0  0  0  0
   -4.8484    1.7064    1.3723 H   0  0  0  0  0  0  0  0  0  0  0  0
   -5.9915    3.9467    1.3579 H   0  0  0  0  0  0  0  0  0  0  0  0
   -4.5304    4.6825    0.4050 H   0  0  0  0  0  0  0  0  0  0  0  0
   -6.3999    2.3303   -0.5096 H   0  0  0  0  0  0  0  0  0  0  0  0
   -5.0167    3.0780   -1.4645 H   0  0  0  0  0  0  0  0  0  0  0  0
    0.1901   -6.0076   -0.9740 H   0  0  0  0  0  0  0  0  0  0  0  0
   -2.8088   -5.3861   -1.9110 H   0  0  0  0  0  0  0  0  0  0  0  0
   -3.9374   -3.1364   -2.2283 H   0  0  0  0  0  0  0  0  0  0  0  0
  1  2  1  0
  3  2  1  1
  3  4  1  0
  4  5  1  0
  6  5  1  6
  6  7  1  0
  7  8  1  0
  8  9  1  0
  9 10  1  0
  9 11  1  6
  9 12  1  0
 12 13  1  0
 12 14  1  0
 12 15  1  0
  6 16  1  0
 16 17  1  0
 17 18  1  0
 18 19  1  0
 19 20  2  0
 20 21  1  0
 21 22  1  0
 22 23  1  0
 23 24  1  1
 24 25  1  0
 25 26  1  0
 26 27  1  0
 27 28  1  0
 28 29  1  0
 29 30  1  0
 20 31  1  0
 31 32  1  0
 31 33  2  0
 33 34  1  0
  8  3  1  0
 26 16  1  0
 30 28  1  0
 22  3  1  0
 23  6  1  0
 34 18  2  0
 23 19  1  0
  1 35  1  0
  1 36  1  0
  1 37  1  0
  4 38  1  0
  4 39  1  0
  5 40  1  0
  5 41  1  0
  7 42  1  0
  7 43  1  0
  8 44  1  1
 10 45  1  0
 10 46  1  0
 10 47  1  0
 11 48  1  0
 13 49  1  0
 13 50  1  0
 13 51  1  0
 14 52  1  0
 14 53  1  0
 14 54  1  0
 15 55  1  0
 15 56  1  0
 15 57  1  0
 16 58  1  6
 17 59  1  0
 17 60  1  0
 22 61  1  1
 24 62  1  0
 24 63  1  0
 25 64  1  0
 25 65  1  0
 27 66  1  0
 27 67  1  0
 28 68  1  0
 29 69  1  0
 29 70  1  0
 30 71  1  0
 30 72  1  0
 32 73  1  0
 33 74  1  0
 34 75  1  0
M  END
$$$$
