@<TRIPOS>MOLECULE
*****
 44 46 0 0 0
SMALL
GASTEIGER

@<TRIPOS>ATOM
      1 C           2.0688   -1.2586    0.1847 C.3     1  UNL1       -0.0338
      2 C           2.4488    0.2161   -0.0087 C.3     1  UNL1        0.1120
      3 C           1.1532    0.9888   -0.0443 C.ar    1  UNL1        0.1058
      4 N          -0.0279    0.3683    0.1180 N.ar    1  UNL1       -0.2314
      5 C          -1.2024    1.0153    0.0938 C.ar    1  UNL1        0.1257
      6 N          -2.4500    0.3205    0.2709 N.am    1  UNL1       -0.2650
      7 C          -3.2010   -0.2289   -0.7900 C.2     1  UNL1        0.2709
      8 O          -2.7238   -0.0862   -1.9537 O.2     1  UNL1       -0.2680
      9 C          -4.4639   -0.9310   -0.6003 C.ar    1  UNL1        0.1658
     10 N          -5.1214   -1.1791    0.5442 N.ar    1  UNL1       -0.1604
     11 N          -6.2351   -1.8410    0.3308 N.ar    1  UNL1       -0.2091
     12 C          -7.1344   -2.2349    1.4109 C.3     1  UNL1        0.3342
     13 F          -6.4837   -2.2261    2.6251 F       1  UNL1       -0.1832
     14 F          -8.2174   -1.4000    1.5049 F       1  UNL1       -0.1832
     15 C          -6.3371   -2.0460   -0.9750 C.ar    1  UNL1        0.0503
     16 C          -5.2348   -1.4847   -1.5984 C.ar    1  UNL1        0.0909
     17 CL         -4.9548   -1.5176   -3.3203 Cl      1  UNL1       -0.0795
     18 C          -1.1729    2.3813   -0.1086 C.ar    1  UNL1       -0.0188
     19 C           0.0114    3.0620   -0.2799 C.ar    1  UNL1       -0.0213
     20 C           1.1822    2.3612   -0.2476 C.ar    1  UNL1        0.1471
     21 F           2.3851    2.9638   -0.4085 F       1  UNL1       -0.2035
     22 C           3.2702    0.5976    1.1807 C.3     1  UNL1        0.0238
     23 C           4.7363    0.7188    0.9194 C.3     1  UNL1        0.1998
     24 C           5.4518   -0.6325    0.9689 C.3     1  UNL1        0.4266
     25 F           4.9694   -1.5100    0.0448 F       1  UNL1       -0.1669
     26 F           6.7783   -0.3601    0.6065 F       1  UNL1       -0.1669
     27 F           5.4944   -1.1162    2.2467 F       1  UNL1       -0.1669
     28 O           4.9663    1.3641   -0.3165 O.2     1  UNL1       -0.4534
     29 C           4.2869    0.9006   -1.4406 C.2     1  UNL1        0.2765
     30 N           4.8672    1.0074   -2.7503 N.pl3   1  UNL1       -0.3134
     31 N           3.1269    0.3771   -1.2566 N.2     1  UNL1       -0.2241
     32 H           0.9607   -1.3801    0.2667 H       1  UNL1        0.0257
     33 H           2.4944   -1.6884    1.0988 H       1  UNL1        0.0257
     34 H           2.3955   -1.8743   -0.6707 H       1  UNL1        0.0257
     35 H          -2.7981    0.2306    1.2457 H       1  UNL1        0.1566
     36 H          -7.4418   -3.2848    1.1958 H       1  UNL1        0.1295
     37 H          -7.1639   -2.5714   -1.4361 H       1  UNL1        0.0843
     38 H          -2.1185    2.8974   -0.1275 H       1  UNL1        0.0653
     39 H           0.0573    4.1332   -0.4400 H       1  UNL1        0.0648
     40 H           3.1512   -0.1282    2.0364 H       1  UNL1        0.0331
     41 H           2.9081    1.5903    1.5729 H       1  UNL1        0.0331
     42 H           5.2058    1.3738    1.6925 H       1  UNL1        0.0826
     43 H           5.8532    0.7701   -2.9664 H       1  UNL1        0.1466
     44 H           4.2591    1.3418   -3.5192 H       1  UNL1        0.1466
@<TRIPOS>BOND
     1     2     1    1
     2     2     3    1
     3     3     4   ar
     4     4     5   ar
     5     5     6    1
     6     6     7   am
     7     7     8    2
     8     7     9    1
     9     9    10   ar
    10    10    11   ar
    11    11    12    1
    12    12    13    1
    13    12    14    1
    14    11    15   ar
    15    15    16   ar
    16    16    17    1
    17     5    18   ar
    18    18    19   ar
    19    19    20   ar
    20    20    21    1
    21     2    22    1
    22    22    23    1
    23    23    24    1
    24    24    25    1
    25    24    26    1
    26    24    27    1
    27    23    28    1
    28    28    29    1
    29    29    30    1
    30    29    31    2
    31    31     2    1
    32    20     3   ar
    33    16     9   ar
    34     1    32    1
    35     1    33    1
    36     1    34    1
    37     6    35    1
    38    12    36    1
    39    15    37    1
    40    18    38    1
    41    19    39    1
    42    22    40    1
    43    22    41    1
    44    23    42    1
    45    30    43    1
    46    30    44    1
