
     RDKit          3D

 44 46  0  0  0  0  0  0  0  0999 V2000
    2.0688   -1.2586    0.1847 C   0  0  0  0  0  0  0  0  0  0  0  0
    2.4488    0.2161   -0.0087 C   0  0  1  0  0  0  0  0  0  0  0  0
    1.1532    0.9888   -0.0443 C   0  0  0  0  0  0  0  0  0  0  0  0
   -0.0279    0.3683    0.1180 N   0  0  0  0  0  0  0  0  0  0  0  0
   -1.2024    1.0153    0.0938 C   0  0  0  0  0  0  0  0  0  0  0  0
   -2.4500    0.3205    0.2709 N   0  0  0  0  0  0  0  0  0  0  0  0
   -3.2010   -0.2289   -0.7900 C   0  0  0  0  0  0  0  0  0  0  0  0
   -2.7238   -0.0862   -1.9537 O   0  0  0  0  0  0  0  0  0  0  0  0
   -4.4639   -0.9310   -0.6003 C   0  0  0  0  0  0  0  0  0  0  0  0
   -5.1214   -1.1791    0.5442 N   0  0  0  0  0  0  0  0  0  0  0  0
   -6.2351   -1.8410    0.3308 N   0  0  0  0  0  0  0  0  0  0  0  0
   -7.1344   -2.2349    1.4109 C   0  0  0  0  0  0  0  0  0  0  0  0
   -6.4837   -2.2261    2.6251 F   0  0  0  0  0  0  0  0  0  0  0  0
   -8.2174   -1.4000    1.5049 F   0  0  0  0  0  0  0  0  0  0  0  0
   -6.3371   -2.0460   -0.9750 C   0  0  0  0  0  0  0  0  0  0  0  0
   -5.2348   -1.4847   -1.5984 C   0  0  0  0  0  0  0  0  0  0  0  0
   -4.9548   -1.5176   -3.3203 Cl  0  0  0  0  0  0  0  0  0  0  0  0
   -1.1729    2.3813   -0.1086 C   0  0  0  0  0  0  0  0  0  0  0  0
    0.0114    3.0620   -0.2799 C   0  0  0  0  0  0  0  0  0  0  0  0
    1.1822    2.3612   -0.2476 C   0  0  0  0  0  0  0  0  0  0  0  0
    2.3851    2.9638   -0.4085 F   0  0  0  0  0  0  0  0  0  0  0  0
    3.2702    0.5976    1.1807 C   0  0  0  0  0  0  0  0  0  0  0  0
    4.7363    0.7188    0.9194 C   0  0  1  0  0  0  0  0  0  0  0  0
    5.4518   -0.6325    0.9689 C   0  0  0  0  0  0  0  0  0  0  0  0
    4.9694   -1.5100    0.0448 F   0  0  0  0  0  0  0  0  0  0  0  0
    6.7783   -0.3601    0.6065 F   0  0  0  0  0  0  0  0  0  0  0  0
    5.4944   -1.1162    2.2467 F   0  0  0  0  0  0  0  0  0  0  0  0
    4.9663    1.3641   -0.3165 O   0  0  0  0  0  0  0  0  0  0  0  0
    4.2869    0.9006   -1.4406 C   0  0  0  0  0  0  0  0  0  0  0  0
    4.8672    1.0074   -2.7503 N   0  0  0  0  0  0  0  0  0  0  0  0
    3.1269    0.3771   -1.2566 N   0  0  0  0  0  0  0  0  0  0  0  0
    0.9607   -1.3801    0.2667 H   0  0  0  0  0  0  0  0  0  0  0  0
    2.4944   -1.6884    1.0988 H   0  0  0  0  0  0  0  0  0  0  0  0
    2.3955   -1.8743   -0.6707 H   0  0  0  0  0  0  0  0  0  0  0  0
   -2.7981    0.2306    1.2457 H   0  0  0  0  0  0  0  0  0  0  0  0
   -7.4418   -3.2848    1.1958 H   0  0  0  0  0  0  0  0  0  0  0  0
   -7.1639   -2.5714   -1.4361 H   0  0  0  0  0  0  0  0  0  0  0  0
   -2.1185    2.8974   -0.1275 H   0  0  0  0  0  0  0  0  0  0  0  0
    0.0573    4.1332   -0.4400 H   0  0  0  0  0  0  0  0  0  0  0  0
    3.1512   -0.1282    2.0364 H   0  0  0  0  0  0  0  0  0  0  0  0
    2.9081    1.5903    1.5729 H   0  0  0  0  0  0  0  0  0  0  0  0
    5.2058    1.3738    1.6925 H   0  0  0  0  0  0  0  0  0  0  0  0
    5.8532    0.7701   -2.9664 H   0  0  0  0  0  0  0  0  0  0  0  0
    4.2591    1.3418   -3.5192 H   0  0  0  0  0  0  0  0  0  0  0  0
  2  1  1  1
  2  3  1  0
  3  4  2  0
  4  5  1  0
  5  6  1  0
  6  7  1  0
  7  8  2  0
  7  9  1  0
  9 10  2  0
 10 11  1  0
 11 12  1  0
 12 13  1  0
 12 14  1  0
 11 15  1  0
 15 16  2  0
 16 17  1  0
  5 18  2  0
 18 19  1  0
 19 20  2  0
 20 21  1  0
  2 22  1  0
 22 23  1  0
 23 24  1  0
 24 25  1  0
 24 26  1  0
 24 27  1  0
 23 28  1  0
 28 29  1  0
 29 30  1  0
 29 31  2  0
 31  2  1  0
 20  3  1  0
 16  9  1  0
  1 32  1  0
  1 33  1  0
  1 34  1  0
  6 35  1  0
 12 36  1  0
 15 37  1  0
 18 38  1  0
 19 39  1  0
 22 40  1  0
 22 41  1  0
 23 42  1  1
 30 43  1  0
 30 44  1  0
M  END
$$$$
