@<TRIPOS>MOLECULE
*****
 42 44 0 0 0
SMALL
GASTEIGER

@<TRIPOS>ATOM
      1 C          -0.9819   -0.6055   -0.0376 C.3     1  UNL1        0.1235
      2 C          -1.6938   -0.7166   -1.3793 C.3     1  UNL1        0.1211
      3 O          -2.8876    0.0490   -1.2286 O.3     1  UNL1       -0.4615
      4 C          -3.8450    0.2276   -2.1716 C.2     1  UNL1        0.3189
      5 O          -3.6132   -0.3636   -3.2606 O.2     1  UNL1       -0.2502
      6 C          -5.0222    1.0672   -1.8311 C.3     1  UNL1        0.1463
      7 P          -6.0862    0.0265   -0.7740 P.3     1  UNL1        0.3385
      8 O          -5.0969   -1.0468    0.0937 O.3     1  UNL1       -0.3237
      9 O          -6.9251    1.0585    0.2736 O.3     1  UNL1       -0.3237
     10 O          -7.0453   -0.7560   -1.6393 O.2     1  UNL1       -0.2583
     11 O           0.2468   -1.1942    0.0110 O.3     1  UNL1       -0.3446
     12 C           1.1418   -0.2480    0.5317 C.3     1  UNL1        0.1667
     13 N           2.5169   -0.5307    0.2266 N.ar    1  UNL1       -0.2855
     14 C           2.9494   -1.0307   -0.9145 C.ar    1  UNL1        0.1004
     15 N           4.2706   -1.1206   -0.7576 N.ar    1  UNL1       -0.2306
     16 C           4.6815   -0.7020    0.4231 C.ar    1  UNL1        0.1473
     17 C           5.8264   -0.5384    1.1592 C.ar    1  UNL1        0.1472
     18 N           7.0595   -0.8862    0.5997 N.pl3   1  UNL1       -0.3413
     19 N           5.8836   -0.0496    2.4062 N.ar    1  UNL1       -0.2188
     20 C           4.7461    0.3326    3.0411 C.ar    1  UNL1        0.1205
     21 N           3.5834    0.1936    2.3590 N.ar    1  UNL1       -0.2159
     22 C           3.5345   -0.2984    1.1054 C.ar    1  UNL1        0.1674
     23 C           0.6467    1.0278   -0.1371 C.3     1  UNL1        0.1286
     24 O           1.1979    2.1746    0.3581 O.3     1  UNL1       -0.3847
     25 C          -0.8394    0.8742    0.2499 C.3     1  UNL1        0.1146
     26 O          -0.9129    1.0296    1.6193 O.3     1  UNL1       -0.3864
     27 H          -1.6219   -1.1111    0.7384 H       1  UNL1        0.0658
     28 H          -1.9272   -1.7433   -1.6511 H       1  UNL1        0.0724
     29 H          -1.0729   -0.1612   -2.1134 H       1  UNL1        0.0724
     30 H          -4.7318    1.9762   -1.2836 H       1  UNL1        0.0503
     31 H          -5.5738    1.4148   -2.7298 H       1  UNL1        0.0503
     32 H          -4.9825   -0.7114    1.0033 H       1  UNL1        0.2198
     33 H          -6.4790    1.0879    1.1842 H       1  UNL1        0.2198
     34 H           0.9867   -0.0851    1.6149 H       1  UNL1        0.0866
     35 H           2.4821   -1.3411   -1.8352 H       1  UNL1        0.1030
     36 H           8.0242   -0.4597    0.5950 H       1  UNL1        0.1438
     37 H           7.6306   -1.5405    0.0346 H       1  UNL1        0.1438
     38 H           4.5296    0.7527    4.0092 H       1  UNL1        0.1048
     39 H           0.7506    0.9405   -1.2508 H       1  UNL1        0.0665
     40 H           1.5049    2.7768   -0.3877 H       1  UNL1        0.2101
     41 H          -1.4968    1.5138   -0.3299 H       1  UNL1        0.0648
     42 H          -1.3583    0.2648    2.0759 H       1  UNL1        0.2100
@<TRIPOS>BOND
     1     1     2    1
     2     2     3    1
     3     3     4    1
     4     4     5    2
     5     4     6    1
     6     6     7    1
     7     7     8    1
     8     7     9    1
     9     7    10    2
    10     1    11    1
    11    11    12    1
    12    12    13    1
    13    13    14   ar
    14    14    15   ar
    15    15    16   ar
    16    16    17   ar
    17    17    18    1
    18    17    19   ar
    19    19    20   ar
    20    20    21   ar
    21    21    22   ar
    22    12    23    1
    23    23    24    1
    24    23    25    1
    25    25    26    1
    26    25     1    1
    27    22    13   ar
    28    22    16   ar
    29     1    27    1
    30     2    28    1
    31     2    29    1
    32     6    30    1
    33     6    31    1
    34     8    32    1
    35     9    33    1
    36    12    34    1
    37    14    35    1
    38    18    36    1
    39    18    37    1
    40    20    38    1
    41    23    39    1
    42    24    40    1
    43    25    41    1
    44    26    42    1
