@<TRIPOS>MOLECULE
*****
 37 39 0 0 0
SMALL
GASTEIGER

@<TRIPOS>ATOM
      1 O           4.1211    2.5458   -0.4576 O.2     1  UNL1       -0.2451
      2 C           4.4155    1.4510   -0.9990 C.2     1  UNL1        0.3369
      3 O           5.4018    1.4286   -1.9603 O.3     1  UNL1       -0.4771
      4 C           3.6879    0.2627   -0.5716 C.ar    1  UNL1        0.0607
      5 C           3.9926   -0.9547   -1.1515 C.ar    1  UNL1       -0.0477
      6 C           3.3145   -2.0888   -0.7593 C.ar    1  UNL1       -0.0591
      7 C           2.3196   -2.0226    0.2206 C.ar    1  UNL1       -0.0353
      8 C           2.0112   -0.8114    0.8027 C.ar    1  UNL1        0.1063
      9 S           0.7771   -0.7281    2.0185 S.O2    1  UNL1        0.0612
     10 O           0.6908   -1.9995    2.8251 O.2     1  UNL1       -0.1528
     11 O           1.1039    0.4036    2.9514 O.2     1  UNL1       -0.1528
     12 N          -0.7815   -0.4349    1.3598 N.3     1  UNL1       -0.1720
     13 C          -1.1712   -1.5179    0.4632 C.3     1  UNL1        0.0249
     14 C          -2.6990   -1.4868    0.4145 C.3     1  UNL1       -0.0115
     15 C          -3.0944   -0.1092    0.0200 C.ar    1  UNL1       -0.0233
     16 C          -4.3543    0.0668   -0.5131 C.ar    1  UNL1        0.0445
     17 CL         -5.4633   -1.2865   -0.7232 Cl      1  UNL1       -0.0833
     18 C          -4.7940    1.3000   -0.9005 C.ar    1  UNL1       -0.0431
     19 C          -3.9672    2.4027   -0.7600 C.ar    1  UNL1       -0.0601
     20 C          -2.7061    2.2225   -0.2257 C.ar    1  UNL1       -0.0569
     21 C          -2.2598    0.9726    0.1671 C.ar    1  UNL1       -0.0271
     22 C          -0.8891    0.8574    0.7340 C.3     1  UNL1        0.0458
     23 C           2.7135    0.3029    0.3824 C.ar    1  UNL1       -0.0214
     24 H           5.9041    2.2255   -2.3064 H       1  UNL1        0.2954
     25 H           4.7618   -1.0320   -1.9153 H       1  UNL1        0.0626
     26 H           3.5201   -3.0522   -1.1839 H       1  UNL1        0.0618
     27 H           1.8064   -2.9394    0.5037 H       1  UNL1        0.0637
     28 H          -0.8490   -2.4631    0.9796 H       1  UNL1        0.0447
     29 H          -0.7264   -1.4191   -0.5396 H       1  UNL1        0.0447
     30 H          -3.0197   -1.6515    1.4833 H       1  UNL1        0.0327
     31 H          -3.1175   -2.2659   -0.2218 H       1  UNL1        0.0327
     32 H          -5.7835    1.4288   -1.3175 H       1  UNL1        0.0632
     33 H          -4.3438    3.3687   -1.0763 H       1  UNL1        0.0618
     34 H          -2.0826    3.0879   -0.1256 H       1  UNL1        0.0621
     35 H          -0.0985    1.0647   -0.0060 H       1  UNL1        0.0493
     36 H          -0.8084    1.6168    1.5454 H       1  UNL1        0.0493
     37 H           2.4676    1.2544    0.8432 H       1  UNL1        0.0645
@<TRIPOS>BOND
     1     1     2    2
     2     2     3    1
     3     2     4    1
     4     4     5   ar
     5     5     6   ar
     6     6     7   ar
     7     7     8   ar
     8     8     9    1
     9     9    10    2
    10     9    11    2
    11     9    12    1
    12    12    13    1
    13    13    14    1
    14    14    15    1
    15    15    16   ar
    16    16    17    1
    17    16    18   ar
    18    18    19   ar
    19    19    20   ar
    20    20    21   ar
    21    21    22    1
    22     8    23   ar
    23    23     4   ar
    24    22    12    1
    25    21    15   ar
    26     3    24    1
    27     5    25    1
    28     6    26    1
    29     7    27    1
    30    13    28    1
    31    13    29    1
    32    14    30    1
    33    14    31    1
    34    18    32    1
    35    19    33    1
    36    20    34    1
    37    22    35    1
    38    22    36    1
    39    23    37    1
