
     RDKit          3D

 37 39  0  0  0  0  0  0  0  0999 V2000
    4.1211    2.5458   -0.4576 O   0  0  0  0  0  0  0  0  0  0  0  0
    4.4155    1.4510   -0.9990 C   0  0  0  0  0  0  0  0  0  0  0  0
    5.4018    1.4286   -1.9603 O   0  0  0  0  0  0  0  0  0  0  0  0
    3.6879    0.2627   -0.5716 C   0  0  0  0  0  0  0  0  0  0  0  0
    3.9926   -0.9547   -1.1515 C   0  0  0  0  0  0  0  0  0  0  0  0
    3.3145   -2.0888   -0.7593 C   0  0  0  0  0  0  0  0  0  0  0  0
    2.3196   -2.0226    0.2206 C   0  0  0  0  0  0  0  0  0  0  0  0
    2.0112   -0.8114    0.8027 C   0  0  0  0  0  0  0  0  0  0  0  0
    0.7771   -0.7281    2.0185 S   0  0  0  0  0  6  0  0  0  0  0  0
    0.6908   -1.9995    2.8251 O   0  0  0  0  0  0  0  0  0  0  0  0
    1.1039    0.4036    2.9514 O   0  0  0  0  0  0  0  0  0  0  0  0
   -0.7815   -0.4349    1.3598 N   0  0  0  0  0  0  0  0  0  0  0  0
   -1.1712   -1.5179    0.4632 C   0  0  0  0  0  0  0  0  0  0  0  0
   -2.6990   -1.4868    0.4145 C   0  0  0  0  0  0  0  0  0  0  0  0
   -3.0944   -0.1092    0.0200 C   0  0  0  0  0  0  0  0  0  0  0  0
   -4.3543    0.0668   -0.5131 C   0  0  0  0  0  0  0  0  0  0  0  0
   -5.4633   -1.2865   -0.7232 Cl  0  0  0  0  0  0  0  0  0  0  0  0
   -4.7940    1.3000   -0.9005 C   0  0  0  0  0  0  0  0  0  0  0  0
   -3.9672    2.4027   -0.7600 C   0  0  0  0  0  0  0  0  0  0  0  0
   -2.7061    2.2225   -0.2257 C   0  0  0  0  0  0  0  0  0  0  0  0
   -2.2598    0.9726    0.1671 C   0  0  0  0  0  0  0  0  0  0  0  0
   -0.8891    0.8574    0.7340 C   0  0  0  0  0  0  0  0  0  0  0  0
    2.7135    0.3029    0.3824 C   0  0  0  0  0  0  0  0  0  0  0  0
    5.9041    2.2255   -2.3064 H   0  0  0  0  0  0  0  0  0  0  0  0
    4.7618   -1.0320   -1.9153 H   0  0  0  0  0  0  0  0  0  0  0  0
    3.5201   -3.0522   -1.1839 H   0  0  0  0  0  0  0  0  0  0  0  0
    1.8064   -2.9394    0.5037 H   0  0  0  0  0  0  0  0  0  0  0  0
   -0.8490   -2.4631    0.9796 H   0  0  0  0  0  0  0  0  0  0  0  0
   -0.7264   -1.4191   -0.5396 H   0  0  0  0  0  0  0  0  0  0  0  0
   -3.0197   -1.6515    1.4833 H   0  0  0  0  0  0  0  0  0  0  0  0
   -3.1175   -2.2659   -0.2218 H   0  0  0  0  0  0  0  0  0  0  0  0
   -5.7835    1.4288   -1.3175 H   0  0  0  0  0  0  0  0  0  0  0  0
   -4.3438    3.3687   -1.0763 H   0  0  0  0  0  0  0  0  0  0  0  0
   -2.0826    3.0879   -0.1256 H   0  0  0  0  0  0  0  0  0  0  0  0
   -0.0985    1.0647   -0.0060 H   0  0  0  0  0  0  0  0  0  0  0  0
   -0.8084    1.6168    1.5454 H   0  0  0  0  0  0  0  0  0  0  0  0
    2.4676    1.2544    0.8432 H   0  0  0  0  0  0  0  0  0  0  0  0
  1  2  2  0
  2  3  1  0
  2  4  1  0
  4  5  2  0
  5  6  1  0
  6  7  2  0
  7  8  1  0
  8  9  1  0
  9 10  2  0
  9 11  2  0
  9 12  1  0
 12 13  1  0
 13 14  1  0
 14 15  1  0
 15 16  2  0
 16 17  1  0
 16 18  1  0
 18 19  2  0
 19 20  1  0
 20 21  2  0
 21 22  1  0
  8 23  2  0
 23  4  1  0
 22 12  1  0
 21 15  1  0
  3 24  1  0
  5 25  1  0
  6 26  1  0
  7 27  1  0
 13 28  1  0
 13 29  1  0
 14 30  1  0
 14 31  1  0
 18 32  1  0
 19 33  1  0
 20 34  1  0
 22 35  1  0
 22 36  1  0
 23 37  1  0
M  END
$$$$
