@<TRIPOS>MOLECULE
*****
 49 51 0 0 0
SMALL
GASTEIGER

@<TRIPOS>ATOM
      1 C          -3.7697    1.6287   -1.3355 C.3     1  UNL1       -0.0288
      2 C          -3.8287    1.0055    0.0367 C.3     1  UNL1        0.1831
      3 C          -4.7875    1.7339    0.9501 C.3     1  UNL1       -0.0288
      4 C          -2.4926    0.9707    0.6832 C.2     1  UNL1        0.3067
      5 N          -2.1190    2.1671    1.3965 N.pl3   1  UNL1       -0.2488
      6 N          -1.7620   -0.0329    0.6020 N.2     1  UNL1       -0.0727
      7 C          -1.8322   -1.3014    0.0072 C.3     1  UNL1        0.1959
      8 C          -2.1254   -2.4049    1.0502 C.3     1  UNL1       -0.0112
      9 C          -0.5425   -1.6394   -0.5760 C.ar    1  UNL1        0.0420
     10 C           0.5145   -0.7692   -0.4985 C.ar    1  UNL1       -0.0301
     11 C           1.7575   -1.0578   -1.0439 C.ar    1  UNL1        0.0343
     12 N           2.8400   -0.1083   -0.9362 N.am    1  UNL1       -0.2802
     13 C           3.7358   -0.1363    0.1738 C.2     1  UNL1        0.2694
     14 O           3.5408   -1.0169    1.0446 O.2     1  UNL1       -0.2681
     15 C           4.8353    0.8024    0.3154 C.ar    1  UNL1        0.1608
     16 N           5.1098    1.7641   -0.5618 N.ar    1  UNL1       -0.2461
     17 C           6.1508    2.6121   -0.3766 C.ar    1  UNL1        0.0469
     18 C           6.9732    2.5207    0.7249 C.ar    1  UNL1        0.0618
     19 CL          8.3258    3.6108    0.9801 Cl      1  UNL1       -0.0819
     20 C           6.7213    1.5345    1.6600 C.ar    1  UNL1       -0.0044
     21 C           5.6462    0.6954    1.4227 C.ar    1  UNL1        0.1551
     22 F           5.4219   -0.2730    2.3686 F       1  UNL1       -0.2030
     23 C           1.9281   -2.2610   -1.6834 C.ar    1  UNL1       -0.0377
     24 C           0.9049   -3.1406   -1.7765 C.ar    1  UNL1       -0.0243
     25 C          -0.3228   -2.8261   -1.2235 C.ar    1  UNL1        0.1311
     26 F          -1.3122   -3.7156   -1.3311 F       1  UNL1       -0.2050
     27 C          -2.9749   -1.4417   -0.9957 C.3     1  UNL1        0.1183
     28 S          -4.3766   -0.6717   -0.1640 S.O2    1  UNL1       -0.0101
     29 O          -5.5994   -0.7575   -1.0242 O.2     1  UNL1       -0.1731
     30 O          -4.6717   -1.3109    1.1383 O.2     1  UNL1       -0.1731
     31 H          -2.7404    1.4805   -1.7252 H       1  UNL1        0.0256
     32 H          -4.4439    1.0746   -2.0297 H       1  UNL1        0.0256
     33 H          -4.0712    2.6947   -1.3309 H       1  UNL1        0.0256
     34 H          -5.7121    1.9727    0.3509 H       1  UNL1        0.0256
     35 H          -5.1191    1.1189    1.7864 H       1  UNL1        0.0256
     36 H          -4.3570    2.7097    1.2431 H       1  UNL1        0.0256
     37 H          -1.9545    3.0206    0.8634 H       1  UNL1        0.2881
     38 H          -2.0324    2.1170    2.4113 H       1  UNL1        0.2881
     39 H          -2.5914   -1.9874    1.9507 H       1  UNL1        0.0279
     40 H          -2.6943   -3.2383    0.5897 H       1  UNL1        0.0279
     41 H          -1.1562   -2.8767    1.3874 H       1  UNL1        0.0279
     42 H           0.3866    0.1912    0.0093 H       1  UNL1        0.0641
     43 H           3.0070    0.6227   -1.6528 H       1  UNL1        0.1552
     44 H           6.3807    3.3971   -1.0857 H       1  UNL1        0.0845
     45 H           7.3318    1.4149    2.5426 H       1  UNL1        0.0662
     46 H           2.8971   -2.4797   -2.1056 H       1  UNL1        0.0637
     47 H           1.0214   -4.1030   -2.2815 H       1  UNL1        0.0647
     48 H          -2.8109   -0.8291   -1.8987 H       1  UNL1        0.0550
     49 H          -3.2300   -2.4812   -1.1752 H       1  UNL1        0.0550
@<TRIPOS>BOND
     1     1     2    1
     2     2     3    1
     3     2     4    1
     4     4     5    1
     5     4     6    2
     6     6     7    1
     7     7     8    1
     8     7     9    1
     9     9    10   ar
    10    10    11   ar
    11    11    12    1
    12    12    13   am
    13    13    14    2
    14    13    15    1
    15    15    16   ar
    16    16    17   ar
    17    17    18   ar
    18    18    19    1
    19    18    20   ar
    20    20    21   ar
    21    21    22    1
    22    11    23   ar
    23    23    24   ar
    24    24    25   ar
    25    25    26    1
    26     7    27    1
    27    27    28    1
    28    28    29    2
    29    28    30    2
    30    28     2    1
    31    25     9   ar
    32    21    15   ar
    33     1    31    1
    34     1    32    1
    35     1    33    1
    36     3    34    1
    37     3    35    1
    38     3    36    1
    39     5    37    1
    40     5    38    1
    41     8    39    1
    42     8    40    1
    43     8    41    1
    44    10    42    1
    45    12    43    1
    46    17    44    1
    47    20    45    1
    48    23    46    1
    49    24    47    1
    50    27    48    1
    51    27    49    1
