
     RDKit          3D

 49 51  0  0  0  0  0  0  0  0999 V2000
   -3.7697    1.6287   -1.3355 C   0  0  0  0  0  0  0  0  0  0  0  0
   -3.8287    1.0055    0.0367 C   0  0  0  0  0  0  0  0  0  0  0  0
   -4.7875    1.7339    0.9501 C   0  0  0  0  0  0  0  0  0  0  0  0
   -2.4926    0.9707    0.6832 C   0  0  0  0  0  0  0  0  0  0  0  0
   -2.1190    2.1671    1.3965 N   0  0  0  0  0  0  0  0  0  0  0  0
   -1.7620   -0.0329    0.6020 N   0  0  0  0  0  0  0  0  0  0  0  0
   -1.8322   -1.3014    0.0072 C   0  0  2  0  0  0  0  0  0  0  0  0
   -2.1254   -2.4049    1.0502 C   0  0  0  0  0  0  0  0  0  0  0  0
   -0.5425   -1.6394   -0.5760 C   0  0  0  0  0  0  0  0  0  0  0  0
    0.5145   -0.7692   -0.4985 C   0  0  0  0  0  0  0  0  0  0  0  0
    1.7575   -1.0578   -1.0439 C   0  0  0  0  0  0  0  0  0  0  0  0
    2.8400   -0.1083   -0.9362 N   0  0  0  0  0  0  0  0  0  0  0  0
    3.7358   -0.1363    0.1738 C   0  0  0  0  0  0  0  0  0  0  0  0
    3.5408   -1.0169    1.0446 O   0  0  0  0  0  0  0  0  0  0  0  0
    4.8353    0.8024    0.3154 C   0  0  0  0  0  0  0  0  0  0  0  0
    5.1098    1.7641   -0.5618 N   0  0  0  0  0  0  0  0  0  0  0  0
    6.1508    2.6121   -0.3766 C   0  0  0  0  0  0  0  0  0  0  0  0
    6.9732    2.5207    0.7249 C   0  0  0  0  0  0  0  0  0  0  0  0
    8.3258    3.6108    0.9801 Cl  0  0  0  0  0  0  0  0  0  0  0  0
    6.7213    1.5345    1.6600 C   0  0  0  0  0  0  0  0  0  0  0  0
    5.6462    0.6954    1.4227 C   0  0  0  0  0  0  0  0  0  0  0  0
    5.4219   -0.2730    2.3686 F   0  0  0  0  0  0  0  0  0  0  0  0
    1.9281   -2.2610   -1.6834 C   0  0  0  0  0  0  0  0  0  0  0  0
    0.9049   -3.1406   -1.7765 C   0  0  0  0  0  0  0  0  0  0  0  0
   -0.3228   -2.8261   -1.2235 C   0  0  0  0  0  0  0  0  0  0  0  0
   -1.3122   -3.7156   -1.3311 F   0  0  0  0  0  0  0  0  0  0  0  0
   -2.9749   -1.4417   -0.9957 C   0  0  0  0  0  0  0  0  0  0  0  0
   -4.3766   -0.6717   -0.1640 S   0  0  0  0  0  6  0  0  0  0  0  0
   -5.5994   -0.7575   -1.0242 O   0  0  0  0  0  0  0  0  0  0  0  0
   -4.6717   -1.3109    1.1383 O   0  0  0  0  0  0  0  0  0  0  0  0
   -2.7404    1.4805   -1.7252 H   0  0  0  0  0  0  0  0  0  0  0  0
   -4.4439    1.0746   -2.0297 H   0  0  0  0  0  0  0  0  0  0  0  0
   -4.0712    2.6947   -1.3309 H   0  0  0  0  0  0  0  0  0  0  0  0
   -5.7121    1.9727    0.3509 H   0  0  0  0  0  0  0  0  0  0  0  0
   -5.1191    1.1189    1.7864 H   0  0  0  0  0  0  0  0  0  0  0  0
   -4.3570    2.7097    1.2431 H   0  0  0  0  0  0  0  0  0  0  0  0
   -1.9545    3.0206    0.8634 H   0  0  0  0  0  0  0  0  0  0  0  0
   -2.0324    2.1170    2.4113 H   0  0  0  0  0  0  0  0  0  0  0  0
   -2.5914   -1.9874    1.9507 H   0  0  0  0  0  0  0  0  0  0  0  0
   -2.6943   -3.2383    0.5897 H   0  0  0  0  0  0  0  0  0  0  0  0
   -1.1562   -2.8767    1.3874 H   0  0  0  0  0  0  0  0  0  0  0  0
    0.3866    0.1912    0.0093 H   0  0  0  0  0  0  0  0  0  0  0  0
    3.0070    0.6227   -1.6528 H   0  0  0  0  0  0  0  0  0  0  0  0
    6.3807    3.3971   -1.0857 H   0  0  0  0  0  0  0  0  0  0  0  0
    7.3318    1.4149    2.5426 H   0  0  0  0  0  0  0  0  0  0  0  0
    2.8971   -2.4797   -2.1056 H   0  0  0  0  0  0  0  0  0  0  0  0
    1.0214   -4.1030   -2.2815 H   0  0  0  0  0  0  0  0  0  0  0  0
   -2.8109   -0.8291   -1.8987 H   0  0  0  0  0  0  0  0  0  0  0  0
   -3.2300   -2.4812   -1.1752 H   0  0  0  0  0  0  0  0  0  0  0  0
  1  2  1  0
  2  3  1  0
  2  4  1  0
  4  5  1  0
  4  6  2  0
  6  7  1  0
  7  8  1  1
  7  9  1  0
  9 10  2  0
 10 11  1  0
 11 12  1  0
 12 13  1  0
 13 14  2  0
 13 15  1  0
 15 16  2  0
 16 17  1  0
 17 18  2  0
 18 19  1  0
 18 20  1  0
 20 21  2  0
 21 22  1  0
 11 23  2  0
 23 24  1  0
 24 25  2  0
 25 26  1  0
  7 27  1  0
 27 28  1  0
 28 29  2  0
 28 30  2  0
 28  2  1  0
 25  9  1  0
 21 15  1  0
  1 31  1  0
  1 32  1  0
  1 33  1  0
  3 34  1  0
  3 35  1  0
  3 36  1  0
  5 37  1  0
  5 38  1  0
  8 39  1  0
  8 40  1  0
  8 41  1  0
 10 42  1  0
 12 43  1  0
 17 44  1  0
 20 45  1  0
 23 46  1  0
 24 47  1  0
 27 48  1  0
 27 49  1  0
M  END
$$$$
