@<TRIPOS>MOLECULE
*****
 61 66 0 0 0
SMALL
GASTEIGER

@<TRIPOS>ATOM
      1 C          -2.8316    3.8518    2.2395 C.3     1  UNL1       -0.0584
      2 C          -2.3769    3.2364    0.9240 C.3     1  UNL1        0.0028
      3 C          -3.1363    2.0028    0.6162 C.ar    1  UNL1        0.1119
      4 N          -4.3039    1.9583   -0.1002 N.ar    1  UNL1       -0.2304
      5 C          -4.7362    0.7007   -0.1900 C.ar    1  UNL1        0.1111
      6 C          -5.8261    0.0709   -0.7749 C.ar    1  UNL1       -0.0198
      7 C          -6.8158    0.9139   -1.5069 C.3     1  UNL1       -0.0375
      8 C          -5.9573   -1.2895   -0.6630 C.ar    1  UNL1       -0.0356
      9 C          -5.0347   -2.0567    0.0165 C.ar    1  UNL1        0.0409
     10 C          -5.1888   -3.5465    0.1326 C.3     1  UNL1       -0.0223
     11 N          -3.9906   -1.4113    0.5708 N.ar    1  UNL1       -0.2326
     12 C          -3.8192   -0.0747    0.4871 C.ar    1  UNL1        0.1612
     13 N          -2.8413    0.7543    0.9751 N.ar    1  UNL1       -0.3081
     14 C          -1.7294    0.2756    1.7428 C.3     1  UNL1        0.0513
     15 C          -0.5536   -0.1261    0.9441 C.ar    1  UNL1       -0.0270
     16 C           0.5138    0.7060    0.7712 C.ar    1  UNL1       -0.0549
     17 C           1.6219    0.3519    0.0180 C.ar    1  UNL1       -0.0373
     18 C           1.6953   -0.8776   -0.5997 C.ar    1  UNL1        0.0494
     19 C           0.6020   -1.7213   -0.4179 C.ar    1  UNL1        0.0002
     20 C           0.9175   -2.8585   -1.1168 C.ar    1  UNL1       -0.0364
     21 C           2.1517   -2.7285   -1.7079 C.ar    1  UNL1        0.0061
     22 N           2.6187   -1.4911   -1.3741 N.ar    1  UNL1       -0.3422
     23 C           3.8738   -0.9324   -1.8709 C.3     1  UNL1        0.0504
     24 C           4.9906   -0.9080   -0.9305 C.ar    1  UNL1        0.0012
     25 C           5.5805   -2.0758   -0.5001 C.ar    1  UNL1        0.0465
     26 CL          5.0568   -3.6727   -1.0639 Cl      1  UNL1       -0.0832
     27 C           6.6449   -2.1272    0.3892 C.ar    1  UNL1       -0.0430
     28 C           7.1318   -0.9458    0.8610 C.ar    1  UNL1       -0.0597
     29 C           6.5613    0.2206    0.4436 C.ar    1  UNL1       -0.0506
     30 C           5.4894    0.3073   -0.4519 C.ar    1  UNL1        0.0267
     31 C           5.0220    1.6121   -0.8987 C.ar    1  UNL1        0.1797
     32 N           4.1903    1.9874   -1.8775 N.ar    1  UNL1       -0.1084
     33 N           4.0855    3.3035   -1.9411 N.ar    1  UNL1       -0.0229
     34 N           4.8680    3.7864   -0.9807 N.ar    1  UNL1       -0.0464
     35 N           5.4391    2.7791   -0.3439 N.ar    1  UNL1       -0.2388
     36 C          -0.5085   -1.3565    0.3415 C.ar    1  UNL1       -0.0477
     37 H          -3.0752    4.9253    2.1305 H       1  UNL1        0.0234
     38 H          -2.0088    3.7956    2.9815 H       1  UNL1        0.0234
     39 H          -3.7571    3.3432    2.5815 H       1  UNL1        0.0234
     40 H          -1.2960    3.1439    0.8952 H       1  UNL1        0.0340
     41 H          -2.6318    4.0102    0.1370 H       1  UNL1        0.0340
     42 H          -6.2435    1.7455   -1.9629 H       1  UNL1        0.0278
     43 H          -7.3693    0.3241   -2.2707 H       1  UNL1        0.0278
     44 H          -7.5373    1.3406   -0.7808 H       1  UNL1        0.0278
     45 H          -6.8310   -1.7497   -1.1383 H       1  UNL1        0.0639
     46 H          -4.3034   -3.9498    0.6344 H       1  UNL1        0.0292
     47 H          -5.2516   -3.9638   -0.8908 H       1  UNL1        0.0292
     48 H          -6.0680   -3.8152    0.7639 H       1  UNL1        0.0292
     49 H          -1.4407    1.0233    2.5389 H       1  UNL1        0.0542
     50 H          -2.0118   -0.6360    2.3512 H       1  UNL1        0.0542
     51 H           0.5055    1.6840    1.2461 H       1  UNL1        0.0621
     52 H           2.4176    1.0519   -0.0676 H       1  UNL1        0.0638
     53 H           0.2723   -3.7358   -1.1866 H       1  UNL1        0.0639
     54 H           2.5846   -3.4993   -2.3296 H       1  UNL1        0.0809
     55 H           4.2237   -1.6536   -2.6998 H       1  UNL1        0.0542
     56 H           3.6532   -0.0221   -2.4214 H       1  UNL1        0.0542
     57 H           7.0740   -3.0970    0.6966 H       1  UNL1        0.0632
     58 H           7.9519   -0.9244    1.5511 H       1  UNL1        0.0618
     59 H           6.9364    1.1913    0.8080 H       1  UNL1        0.0625
     60 H           6.0894    2.9405    0.4458 H       1  UNL1        0.1923
     61 H          -1.2878   -2.0917    0.4093 H       1  UNL1        0.0627
@<TRIPOS>BOND
     1     1     2    1
     2     2     3    1
     3     3     4   ar
     4     4     5   ar
     5     5     6   ar
     6     6     7    1
     7     6     8   ar
     8     8     9   ar
     9     9    10    1
    10     9    11   ar
    11    11    12   ar
    12    12    13   ar
    13    13    14    1
    14    14    15    1
    15    15    16   ar
    16    16    17   ar
    17    17    18   ar
    18    18    19   ar
    19    19    20   ar
    20    20    21   ar
    21    21    22   ar
    22    22    23    1
    23    23    24    1
    24    24    25   ar
    25    25    26    1
    26    25    27   ar
    27    27    28   ar
    28    28    29   ar
    29    29    30   ar
    30    30    31    1
    31    31    32   ar
    32    32    33   ar
    33    33    34   ar
    34    34    35   ar
    35    19    36   ar
    36    13     3   ar
    37    36    15   ar
    38    12     5   ar
    39    22    18   ar
    40    30    24   ar
    41    35    31   ar
    42     1    37    1
    43     1    38    1
    44     1    39    1
    45     2    40    1
    46     2    41    1
    47     7    42    1
    48     7    43    1
    49     7    44    1
    50     8    45    1
    51    10    46    1
    52    10    47    1
    53    10    48    1
    54    14    49    1
    55    14    50    1
    56    16    51    1
    57    17    52    1
    58    20    53    1
    59    21    54    1
    60    23    55    1
    61    23    56    1
    62    27    57    1
    63    28    58    1
    64    29    59    1
    65    35    60    1
    66    36    61    1
