
     RDKit          3D

 61 66  0  0  0  0  0  0  0  0999 V2000
   -2.8316    3.8518    2.2395 C   0  0  0  0  0  0  0  0  0  0  0  0
   -2.3769    3.2364    0.9240 C   0  0  0  0  0  0  0  0  0  0  0  0
   -3.1363    2.0028    0.6162 C   0  0  0  0  0  0  0  0  0  0  0  0
   -4.3039    1.9583   -0.1002 N   0  0  0  0  0  0  0  0  0  0  0  0
   -4.7362    0.7007   -0.1900 C   0  0  0  0  0  0  0  0  0  0  0  0
   -5.8261    0.0709   -0.7749 C   0  0  0  0  0  0  0  0  0  0  0  0
   -6.8158    0.9139   -1.5069 C   0  0  0  0  0  0  0  0  0  0  0  0
   -5.9573   -1.2895   -0.6630 C   0  0  0  0  0  0  0  0  0  0  0  0
   -5.0347   -2.0567    0.0165 C   0  0  0  0  0  0  0  0  0  0  0  0
   -5.1888   -3.5465    0.1326 C   0  0  0  0  0  0  0  0  0  0  0  0
   -3.9906   -1.4113    0.5708 N   0  0  0  0  0  0  0  0  0  0  0  0
   -3.8192   -0.0747    0.4871 C   0  0  0  0  0  0  0  0  0  0  0  0
   -2.8413    0.7543    0.9751 N   0  0  0  0  0  0  0  0  0  0  0  0
   -1.7294    0.2756    1.7428 C   0  0  0  0  0  0  0  0  0  0  0  0
   -0.5536   -0.1261    0.9441 C   0  0  0  0  0  0  0  0  0  0  0  0
    0.5138    0.7060    0.7712 C   0  0  0  0  0  0  0  0  0  0  0  0
    1.6219    0.3519    0.0180 C   0  0  0  0  0  0  0  0  0  0  0  0
    1.6953   -0.8776   -0.5997 C   0  0  0  0  0  0  0  0  0  0  0  0
    0.6020   -1.7213   -0.4179 C   0  0  0  0  0  0  0  0  0  0  0  0
    0.9175   -2.8585   -1.1168 C   0  0  0  0  0  0  0  0  0  0  0  0
    2.1517   -2.7285   -1.7079 C   0  0  0  0  0  0  0  0  0  0  0  0
    2.6187   -1.4911   -1.3741 N   0  0  0  0  0  0  0  0  0  0  0  0
    3.8738   -0.9324   -1.8709 C   0  0  0  0  0  0  0  0  0  0  0  0
    4.9906   -0.9080   -0.9305 C   0  0  0  0  0  0  0  0  0  0  0  0
    5.5805   -2.0758   -0.5001 C   0  0  0  0  0  0  0  0  0  0  0  0
    5.0568   -3.6727   -1.0639 Cl  0  0  0  0  0  0  0  0  0  0  0  0
    6.6449   -2.1272    0.3892 C   0  0  0  0  0  0  0  0  0  0  0  0
    7.1318   -0.9458    0.8610 C   0  0  0  0  0  0  0  0  0  0  0  0
    6.5613    0.2206    0.4436 C   0  0  0  0  0  0  0  0  0  0  0  0
    5.4894    0.3073   -0.4519 C   0  0  0  0  0  0  0  0  0  0  0  0
    5.0220    1.6121   -0.8987 C   0  0  0  0  0  0  0  0  0  0  0  0
    4.1903    1.9874   -1.8775 N   0  0  0  0  0  0  0  0  0  0  0  0
    4.0855    3.3035   -1.9411 N   0  0  0  0  0  0  0  0  0  0  0  0
    4.8680    3.7864   -0.9807 N   0  0  0  0  0  0  0  0  0  0  0  0
    5.4391    2.7791   -0.3439 N   0  0  0  0  0  0  0  0  0  0  0  0
   -0.5085   -1.3565    0.3415 C   0  0  0  0  0  0  0  0  0  0  0  0
   -3.0752    4.9253    2.1305 H   0  0  0  0  0  0  0  0  0  0  0  0
   -2.0088    3.7956    2.9815 H   0  0  0  0  0  0  0  0  0  0  0  0
   -3.7571    3.3432    2.5815 H   0  0  0  0  0  0  0  0  0  0  0  0
   -1.2960    3.1439    0.8952 H   0  0  0  0  0  0  0  0  0  0  0  0
   -2.6318    4.0102    0.1370 H   0  0  0  0  0  0  0  0  0  0  0  0
   -6.2435    1.7455   -1.9629 H   0  0  0  0  0  0  0  0  0  0  0  0
   -7.3693    0.3241   -2.2707 H   0  0  0  0  0  0  0  0  0  0  0  0
   -7.5373    1.3406   -0.7808 H   0  0  0  0  0  0  0  0  0  0  0  0
   -6.8310   -1.7497   -1.1383 H   0  0  0  0  0  0  0  0  0  0  0  0
   -4.3034   -3.9498    0.6344 H   0  0  0  0  0  0  0  0  0  0  0  0
   -5.2516   -3.9638   -0.8908 H   0  0  0  0  0  0  0  0  0  0  0  0
   -6.0680   -3.8152    0.7639 H   0  0  0  0  0  0  0  0  0  0  0  0
   -1.4407    1.0233    2.5389 H   0  0  0  0  0  0  0  0  0  0  0  0
   -2.0118   -0.6360    2.3512 H   0  0  0  0  0  0  0  0  0  0  0  0
    0.5055    1.6840    1.2461 H   0  0  0  0  0  0  0  0  0  0  0  0
    2.4176    1.0519   -0.0676 H   0  0  0  0  0  0  0  0  0  0  0  0
    0.2723   -3.7358   -1.1866 H   0  0  0  0  0  0  0  0  0  0  0  0
    2.5846   -3.4993   -2.3296 H   0  0  0  0  0  0  0  0  0  0  0  0
    4.2237   -1.6536   -2.6998 H   0  0  0  0  0  0  0  0  0  0  0  0
    3.6532   -0.0221   -2.4214 H   0  0  0  0  0  0  0  0  0  0  0  0
    7.0740   -3.0970    0.6966 H   0  0  0  0  0  0  0  0  0  0  0  0
    7.9519   -0.9244    1.5511 H   0  0  0  0  0  0  0  0  0  0  0  0
    6.9364    1.1913    0.8080 H   0  0  0  0  0  0  0  0  0  0  0  0
    6.0894    2.9405    0.4458 H   0  0  0  0  0  0  0  0  0  0  0  0
   -1.2878   -2.0917    0.4093 H   0  0  0  0  0  0  0  0  0  0  0  0
  1  2  1  0
  2  3  1  0
  3  4  2  0
  4  5  1  0
  5  6  2  0
  6  7  1  0
  6  8  1  0
  8  9  2  0
  9 10  1  0
  9 11  1  0
 11 12  2  0
 12 13  1  0
 13 14  1  0
 14 15  1  0
 15 16  2  0
 16 17  1  0
 17 18  2  0
 18 19  1  0
 19 20  1  0
 20 21  2  0
 21 22  1  0
 22 23  1  0
 23 24  1  0
 24 25  2  0
 25 26  1  0
 25 27  1  0
 27 28  2  0
 28 29  1  0
 29 30  2  0
 30 31  1  0
 31 32  2  0
 32 33  1  0
 33 34  2  0
 34 35  1  0
 19 36  2  0
 13  3  1  0
 36 15  1  0
 12  5  1  0
 22 18  1  0
 30 24  1  0
 35 31  1  0
  1 37  1  0
  1 38  1  0
  1 39  1  0
  2 40  1  0
  2 41  1  0
  7 42  1  0
  7 43  1  0
  7 44  1  0
  8 45  1  0
 10 46  1  0
 10 47  1  0
 10 48  1  0
 14 49  1  0
 14 50  1  0
 16 51  1  0
 17 52  1  0
 20 53  1  0
 21 54  1  0
 23 55  1  0
 23 56  1  0
 27 57  1  0
 28 58  1  0
 29 59  1  0
 35 60  1  0
 36 61  1  0
M  END
$$$$
