@<TRIPOS>MOLECULE
*****
 41 40 0 0 0
SMALL
GASTEIGER

@<TRIPOS>ATOM
      1 C           6.4589   -0.4373    1.3146 C.3     1  UNL1       -0.0641
      2 C           5.2579   -0.8060    0.4306 C.3     1  UNL1       -0.0433
      3 C           4.9632    0.4263   -0.3839 C.3     1  UNL1       -0.0044
      4 N           3.8662    0.2580   -1.2733 N.3     1  UNL1       -0.3159
      5 C           2.5765    0.1145   -0.6910 C.3     1  UNL1       -0.0030
      6 C           2.0840    1.3797   -0.0132 C.3     1  UNL1       -0.0278
      7 C           0.7131    1.1050    0.5583 C.3     1  UNL1       -0.0030
      8 N          -0.2313    0.7256   -0.4924 N.3     1  UNL1       -0.3159
      9 C          -1.5086    0.4871    0.2003 C.3     1  UNL1       -0.0030
     10 C          -2.5786    0.0842   -0.7965 C.3     1  UNL1       -0.0278
     11 C          -3.8741   -0.1466   -0.0354 C.3     1  UNL1       -0.0030
     12 N          -4.9440   -0.5378   -0.9266 N.3     1  UNL1       -0.3162
     13 C          -6.1994   -0.7517   -0.2313 C.3     1  UNL1       -0.0069
     14 C          -6.8047    0.4976    0.3254 C.3     1  UNL1       -0.0526
     15 H           6.5714   -1.1724    2.1146 H       1  UNL1        0.0230
     16 H           7.3616   -0.3548    0.6723 H       1  UNL1        0.0230
     17 H           6.2553    0.5785    1.7087 H       1  UNL1        0.0230
     18 H           5.5718   -1.6665   -0.1854 H       1  UNL1        0.0275
     19 H           4.4211   -1.0368    1.1120 H       1  UNL1        0.0275
     20 H           5.8524    0.6675   -1.0355 H       1  UNL1        0.0424
     21 H           4.8510    1.2919    0.3063 H       1  UNL1        0.0424
     22 H           4.0680   -0.2766   -2.1219 H       1  UNL1        0.1219
     23 H           1.8737   -0.2232   -1.4897 H       1  UNL1        0.0424
     24 H           2.6051   -0.6999    0.0602 H       1  UNL1        0.0424
     25 H           2.7563    1.5848    0.8446 H       1  UNL1        0.0290
     26 H           2.1135    2.2369   -0.6812 H       1  UNL1        0.0290
     27 H           0.7406    0.2661    1.2773 H       1  UNL1        0.0424
     28 H           0.3189    2.0060    1.0293 H       1  UNL1        0.0424
     29 H          -0.3606    1.5090   -1.1757 H       1  UNL1        0.1219
     30 H          -1.3736   -0.3531    0.9074 H       1  UNL1        0.0424
     31 H          -1.7839    1.3989    0.7238 H       1  UNL1        0.0424
     32 H          -2.7798    0.9495   -1.4895 H       1  UNL1        0.0290
     33 H          -2.2890   -0.7705   -1.4041 H       1  UNL1        0.0290
     34 H          -4.1696    0.8051    0.4775 H       1  UNL1        0.0424
     35 H          -3.7443   -0.8986    0.7766 H       1  UNL1        0.0424
     36 H          -4.6913   -1.4082   -1.4177 H       1  UNL1        0.1219
     37 H          -6.9025   -1.2178   -0.9545 H       1  UNL1        0.0421
     38 H          -6.0168   -1.4523    0.6324 H       1  UNL1        0.0421
     39 H          -6.4183    1.4174   -0.1797 H       1  UNL1        0.0242
     40 H          -6.7078    0.5516    1.4267 H       1  UNL1        0.0242
     41 H          -7.9024    0.5059    0.0796 H       1  UNL1        0.0242
@<TRIPOS>BOND
     1     1     2    1
     2     2     3    1
     3     3     4    1
     4     4     5    1
     5     5     6    1
     6     6     7    1
     7     7     8    1
     8     8     9    1
     9     9    10    1
    10    10    11    1
    11    11    12    1
    12    12    13    1
    13    13    14    1
    14     1    15    1
    15     1    16    1
    16     1    17    1
    17     2    18    1
    18     2    19    1
    19     3    20    1
    20     3    21    1
    21     4    22    1
    22     5    23    1
    23     5    24    1
    24     6    25    1
    25     6    26    1
    26     7    27    1
    27     7    28    1
    28     8    29    1
    29     9    30    1
    30     9    31    1
    31    10    32    1
    32    10    33    1
    33    11    34    1
    34    11    35    1
    35    12    36    1
    36    13    37    1
    37    13    38    1
    38    14    39    1
    39    14    40    1
    40    14    41    1
