@<TRIPOS>MOLECULE
*****
 56 59 0 0 0
SMALL
GASTEIGER

@<TRIPOS>ATOM
      1 C          -4.8781   -0.8189    2.1377 C.3     1  UNL1        0.0496
      2 N          -4.7465    0.5519    1.7104 N.pl3   1  UNL1       -0.2236
      3 C          -3.5147    1.2443    1.8825 C.3     1  UNL1        0.0856
      4 C          -2.3813    0.5888    1.1544 C.ar    1  UNL1       -0.0158
      5 C          -1.5818   -0.3782    1.7266 C.ar    1  UNL1       -0.0550
      6 C          -0.5428   -0.9532    1.0023 C.ar    1  UNL1       -0.0493
      7 C          -0.2631   -0.5941   -0.2997 C.ar    1  UNL1        0.0370
      8 C           0.8102   -1.1759   -1.0747 C.2     1  UNL1        0.2483
      9 O           0.9992   -0.7929   -2.2509 O.2     1  UNL1       -0.2699
     10 N           1.6973   -2.1794   -0.5955 N.am    1  UNL1       -0.2808
     11 C           2.7397   -2.7208   -1.3993 C.ar    1  UNL1        0.0459
     12 C           2.5752   -3.8232   -2.2071 C.ar    1  UNL1       -0.0384
     13 C           3.5999   -4.3311   -2.9792 C.ar    1  UNL1       -0.0416
     14 C           4.8413   -3.7344   -2.9604 C.ar    1  UNL1        0.0418
     15 CL          6.1819   -4.3445   -3.9274 Cl      1  UNL1       -0.0835
     16 C           5.0150   -2.6205   -2.1468 C.ar    1  UNL1       -0.0295
     17 C           3.9798   -2.1090   -1.3682 C.ar    1  UNL1        0.0596
     18 C           4.1549   -0.9491   -0.5174 C.2     1  UNL1        0.2511
     19 O           3.2014   -0.5186    0.1721 O.2     1  UNL1       -0.2697
     20 N           5.3865   -0.2535   -0.4204 N.am    1  UNL1       -0.2663
     21 C           5.5606    0.8842    0.4139 C.ar    1  UNL1        0.1252
     22 C           5.3239    2.1608   -0.0424 C.ar    1  UNL1       -0.0201
     23 C           5.4931    3.2704    0.7694 C.ar    1  UNL1       -0.0387
     24 C           5.9085    3.0789    2.0614 C.ar    1  UNL1        0.0592
     25 CL          6.1324    4.4794    3.1203 Cl      1  UNL1       -0.0820
     26 C           6.1424    1.8045    2.5092 C.ar    1  UNL1        0.0480
     27 N           5.9642    0.7621    1.6849 N.ar    1  UNL1       -0.2387
     28 C          -1.0699    0.3740   -0.8602 C.ar    1  UNL1       -0.0493
     29 C          -2.1015    0.9479   -0.1477 C.ar    1  UNL1       -0.0550
     30 C          -5.8599    1.1971    1.1174 C.cat   1  UNL1        0.3671
     31 N          -6.0467    2.4762    1.1674 N.2     1  UNL1       -0.1142
     32 C          -7.2380    2.8924    0.4978 C.3     1  UNL1        0.1328
     33 C          -7.9976    1.5964    0.3028 C.3     1  UNL1        0.0920
     34 N          -6.9416    0.6277    0.3890 N.pl3   1  UNL1       -0.2352
     35 H          -3.9472   -1.4084    2.0111 H       1  UNL1        0.0597
     36 H          -5.1557   -0.7877    3.2256 H       1  UNL1        0.0597
     37 H          -5.7197   -1.2840    1.5803 H       1  UNL1        0.0597
     38 H          -3.1991    1.2826    2.9480 H       1  UNL1        0.0685
     39 H          -3.6412    2.2935    1.5540 H       1  UNL1        0.0685
     40 H          -1.7842   -0.6680    2.7344 H       1  UNL1        0.0621
     41 H           0.0570   -1.7092    1.4974 H       1  UNL1        0.0625
     42 H           1.5548   -2.5114    0.3840 H       1  UNL1        0.1552
     43 H           1.5937   -4.2924   -2.2199 H       1  UNL1        0.0637
     44 H           3.4402   -5.2078   -3.6112 H       1  UNL1        0.0633
     45 H           5.9840   -2.1669   -2.1418 H       1  UNL1        0.0640
     46 H           6.2271   -0.5617   -0.9723 H       1  UNL1        0.1566
     47 H           5.0015    2.3252   -1.0412 H       1  UNL1        0.0652
     48 H           5.3001    4.2799    0.3899 H       1  UNL1        0.0634
     49 H           6.4709    1.6759    3.5364 H       1  UNL1        0.0845
     50 H          -0.9209    0.7229   -1.8928 H       1  UNL1        0.0625
     51 H          -2.7461    1.7155   -0.5831 H       1  UNL1        0.0621
     52 H          -6.9756    3.3311   -0.4977 H       1  UNL1        0.0723
     53 H          -7.8725    3.5899    1.0885 H       1  UNL1        0.0723
     54 H          -8.7324    1.5070    1.1374 H       1  UNL1        0.0665
     55 H          -8.5495    1.5719   -0.6590 H       1  UNL1        0.0665
     56 H          -6.9291   -0.3374   -0.0010 H       1  UNL1        0.2445
@<TRIPOS>BOND
     1     1     2    1
     2     2     3    1
     3     3     4    1
     4     4     5   ar
     5     5     6   ar
     6     6     7   ar
     7     7     8    1
     8     8     9    2
     9     8    10   am
    10    10    11    1
    11    11    12   ar
    12    12    13   ar
    13    13    14   ar
    14    14    15    1
    15    14    16   ar
    16    16    17   ar
    17    17    18    1
    18    18    19    2
    19    18    20   am
    20    20    21    1
    21    21    22   ar
    22    22    23   ar
    23    23    24   ar
    24    24    25    1
    25    24    26   ar
    26    26    27   ar
    27     7    28   ar
    28    28    29   ar
    29     2    30    1
    30    30    31    2
    31    31    32    1
    32    32    33    1
    33    33    34    1
    34    29     4   ar
    35    34    30    1
    36    17    11   ar
    37    27    21   ar
    38     1    35    1
    39     1    36    1
    40     1    37    1
    41     3    38    1
    42     3    39    1
    43     5    40    1
    44     6    41    1
    45    10    42    1
    46    12    43    1
    47    13    44    1
    48    16    45    1
    49    20    46    1
    50    22    47    1
    51    23    48    1
    52    26    49    1
    53    28    50    1
    54    29    51    1
    55    32    52    1
    56    32    53    1
    57    33    54    1
    58    33    55    1
    59    34    56    1
