
     RDKit          3D

 56 59  0  0  0  0  0  0  0  0999 V2000
   -4.8781   -0.8189    2.1377 C   0  0  0  0  0  0  0  0  0  0  0  0
   -4.7465    0.5519    1.7104 N   0  0  0  0  0  0  0  0  0  0  0  0
   -3.5147    1.2443    1.8825 C   0  0  0  0  0  0  0  0  0  0  0  0
   -2.3813    0.5888    1.1544 C   0  0  0  0  0  0  0  0  0  0  0  0
   -1.5818   -0.3782    1.7266 C   0  0  0  0  0  0  0  0  0  0  0  0
   -0.5428   -0.9532    1.0023 C   0  0  0  0  0  0  0  0  0  0  0  0
   -0.2631   -0.5941   -0.2997 C   0  0  0  0  0  0  0  0  0  0  0  0
    0.8102   -1.1759   -1.0747 C   0  0  0  0  0  0  0  0  0  0  0  0
    0.9992   -0.7929   -2.2509 O   0  0  0  0  0  0  0  0  0  0  0  0
    1.6973   -2.1794   -0.5955 N   0  0  0  0  0  0  0  0  0  0  0  0
    2.7397   -2.7208   -1.3993 C   0  0  0  0  0  0  0  0  0  0  0  0
    2.5752   -3.8232   -2.2071 C   0  0  0  0  0  0  0  0  0  0  0  0
    3.5999   -4.3311   -2.9792 C   0  0  0  0  0  0  0  0  0  0  0  0
    4.8413   -3.7344   -2.9604 C   0  0  0  0  0  0  0  0  0  0  0  0
    6.1819   -4.3445   -3.9274 Cl  0  0  0  0  0  0  0  0  0  0  0  0
    5.0150   -2.6205   -2.1468 C   0  0  0  0  0  0  0  0  0  0  0  0
    3.9798   -2.1090   -1.3682 C   0  0  0  0  0  0  0  0  0  0  0  0
    4.1549   -0.9491   -0.5174 C   0  0  0  0  0  0  0  0  0  0  0  0
    3.2014   -0.5186    0.1721 O   0  0  0  0  0  0  0  0  0  0  0  0
    5.3865   -0.2535   -0.4204 N   0  0  0  0  0  0  0  0  0  0  0  0
    5.5606    0.8842    0.4139 C   0  0  0  0  0  0  0  0  0  0  0  0
    5.3239    2.1608   -0.0424 C   0  0  0  0  0  0  0  0  0  0  0  0
    5.4931    3.2704    0.7694 C   0  0  0  0  0  0  0  0  0  0  0  0
    5.9085    3.0789    2.0614 C   0  0  0  0  0  0  0  0  0  0  0  0
    6.1324    4.4794    3.1203 Cl  0  0  0  0  0  0  0  0  0  0  0  0
    6.1424    1.8045    2.5092 C   0  0  0  0  0  0  0  0  0  0  0  0
    5.9642    0.7621    1.6849 N   0  0  0  0  0  0  0  0  0  0  0  0
   -1.0699    0.3740   -0.8602 C   0  0  0  0  0  0  0  0  0  0  0  0
   -2.1015    0.9479   -0.1477 C   0  0  0  0  0  0  0  0  0  0  0  0
   -5.8599    1.1971    1.1174 C   0  0  0  0  0  0  0  0  0  0  0  0
   -6.0467    2.4762    1.1674 N   0  0  0  0  0  0  0  0  0  0  0  0
   -7.2380    2.8924    0.4978 C   0  0  0  0  0  0  0  0  0  0  0  0
   -7.9976    1.5964    0.3028 C   0  0  0  0  0  0  0  0  0  0  0  0
   -6.9416    0.6277    0.3890 N   0  0  0  0  0  0  0  0  0  0  0  0
   -3.9472   -1.4084    2.0111 H   0  0  0  0  0  0  0  0  0  0  0  0
   -5.1557   -0.7877    3.2256 H   0  0  0  0  0  0  0  0  0  0  0  0
   -5.7197   -1.2840    1.5803 H   0  0  0  0  0  0  0  0  0  0  0  0
   -3.1991    1.2826    2.9480 H   0  0  0  0  0  0  0  0  0  0  0  0
   -3.6412    2.2935    1.5540 H   0  0  0  0  0  0  0  0  0  0  0  0
   -1.7842   -0.6680    2.7344 H   0  0  0  0  0  0  0  0  0  0  0  0
    0.0570   -1.7092    1.4974 H   0  0  0  0  0  0  0  0  0  0  0  0
    1.5548   -2.5114    0.3840 H   0  0  0  0  0  0  0  0  0  0  0  0
    1.5937   -4.2924   -2.2199 H   0  0  0  0  0  0  0  0  0  0  0  0
    3.4402   -5.2078   -3.6112 H   0  0  0  0  0  0  0  0  0  0  0  0
    5.9840   -2.1669   -2.1418 H   0  0  0  0  0  0  0  0  0  0  0  0
    6.2271   -0.5617   -0.9723 H   0  0  0  0  0  0  0  0  0  0  0  0
    5.0015    2.3252   -1.0412 H   0  0  0  0  0  0  0  0  0  0  0  0
    5.3001    4.2799    0.3899 H   0  0  0  0  0  0  0  0  0  0  0  0
    6.4709    1.6759    3.5364 H   0  0  0  0  0  0  0  0  0  0  0  0
   -0.9209    0.7229   -1.8928 H   0  0  0  0  0  0  0  0  0  0  0  0
   -2.7461    1.7155   -0.5831 H   0  0  0  0  0  0  0  0  0  0  0  0
   -6.9756    3.3311   -0.4977 H   0  0  0  0  0  0  0  0  0  0  0  0
   -7.8725    3.5899    1.0885 H   0  0  0  0  0  0  0  0  0  0  0  0
   -8.7324    1.5070    1.1374 H   0  0  0  0  0  0  0  0  0  0  0  0
   -8.5495    1.5719   -0.6590 H   0  0  0  0  0  0  0  0  0  0  0  0
   -6.9291   -0.3374   -0.0010 H   0  0  0  0  0  0  0  0  0  0  0  0
  1  2  1  0
  2  3  1  0
  3  4  1  0
  4  5  2  0
  5  6  1  0
  6  7  2  0
  7  8  1  0
  8  9  2  0
  8 10  1  0
 10 11  1  0
 11 12  2  0
 12 13  1  0
 13 14  2  0
 14 15  1  0
 14 16  1  0
 16 17  2  0
 17 18  1  0
 18 19  2  0
 18 20  1  0
 20 21  1  0
 21 22  2  0
 22 23  1  0
 23 24  2  0
 24 25  1  0
 24 26  1  0
 26 27  2  0
  7 28  1  0
 28 29  2  0
  2 30  1  0
 30 31  2  0
 31 32  1  0
 32 33  1  0
 33 34  1  0
 29  4  1  0
 34 30  1  0
 17 11  1  0
 27 21  1  0
  1 35  1  0
  1 36  1  0
  1 37  1  0
  3 38  1  0
  3 39  1  0
  5 40  1  0
  6 41  1  0
 10 42  1  0
 12 43  1  0
 13 44  1  0
 16 45  1  0
 20 46  1  0
 22 47  1  0
 23 48  1  0
 26 49  1  0
 28 50  1  0
 29 51  1  0
 32 52  1  0
 32 53  1  0
 33 54  1  0
 33 55  1  0
 34 56  1  0
M  END
$$$$
