@<TRIPOS>MOLECULE
*****
 103 105 0 0 0
SMALL
GASTEIGER

@<TRIPOS>ATOM
      1 C           1.6297    5.3007   -0.9545 C.3     1  UNL1        0.0788
      2 O           2.9096    4.7267   -0.8188 O.3     1  UNL1       -0.4951
      3 C           3.2015    3.6861    0.0145 C.ar    1  UNL1        0.1201
      4 C           4.4382    3.1060    0.1678 C.ar    1  UNL1       -0.0197
      5 C           4.7970    2.0616    0.9825 C.ar    1  UNL1       -0.0550
      6 C           3.7522    1.5383    1.7439 C.ar    1  UNL1       -0.0449
      7 C           3.9251    0.3815    2.6721 C.3     1  UNL1       -0.0007
      8 C           3.6585   -0.9206    1.9118 C.3     1  UNL1        0.1033
      9 N           4.6234   -1.0108    0.7942 N.am    1  UNL1       -0.3036
     10 C           5.5976   -2.0333    0.8650 C.2     1  UNL1        0.2154
     11 O           5.6778   -2.8568    1.8359 O.2     1  UNL1       -0.2757
     12 C           6.6669   -2.3302   -0.1339 C.3     1  UNL1        0.0415
     13 C           7.5912   -3.4257    0.3289 C.3     1  UNL1        0.0191
     14 C           8.6429   -3.6817   -0.7592 C.3     1  UNL1       -0.0468
     15 C           8.3213   -2.8578    1.5565 C.3     1  UNL1       -0.0468
     16 N           6.9383   -4.6642    0.6060 N.3     1  UNL1       -0.3247
     17 C           2.3384   -0.9318    1.2990 C.2     1  UNL1        0.2343
     18 O           2.8978   -0.8352    0.1328 O.2     1  UNL1       -0.2738
     19 N           0.9348   -0.9887    1.3544 N.am    1  UNL1       -0.3021
     20 C           0.1029   -0.9260    0.1502 C.3     1  UNL1        0.1047
     21 C          -0.0744   -2.3659   -0.2641 C.3     1  UNL1        0.0160
     22 C          -0.6985   -3.2243    0.7527 C.ar    1  UNL1        0.0375
     23 C          -0.8170   -4.5636    0.3745 C.ar    1  UNL1        0.0485
     24 N          -1.3727   -5.2568    1.3765 N.ar    1  UNL1       -0.2440
     25 C          -1.6141   -4.4112    2.3788 C.ar    1  UNL1        0.0935
     26 N          -1.2149   -3.1836    2.0187 N.ar    1  UNL1       -0.3481
     27 C          -1.0869   -0.1394    0.3605 C.2     1  UNL1        0.2340
     28 O          -1.5709    0.2704    1.4364 O.2     1  UNL1       -0.2738
     29 N          -1.9223    0.3135   -0.7370 N.am    1  UNL1       -0.3084
     30 C          -3.1297    1.1296   -0.5209 C.3     1  UNL1        0.0517
     31 C          -2.6271    2.5485   -0.3448 C.3     1  UNL1       -0.0292
     32 C          -3.5881    3.6419   -0.1163 C.3     1  UNL1       -0.0393
     33 C          -4.5106    3.5023    1.0507 C.3     1  UNL1       -0.0502
     34 C          -5.8748    4.0309    0.8915 C.3     1  UNL1       -0.0528
     35 C          -6.3449    4.3176   -0.4998 C.3     1  UNL1       -0.0530
     36 C          -5.3048    5.1849   -1.1559 C.3     1  UNL1       -0.0528
     37 C          -4.0425    4.3771   -1.3059 C.3     1  UNL1       -0.0502
     38 C          -4.1932    0.9207   -1.5039 C.3     1  UNL1        0.0993
     39 O          -3.7991    1.1248   -2.8377 O.3     1  UNL1       -0.3874
     40 C          -5.1791   -0.1668   -1.4333 C.3     1  UNL1        0.0830
     41 O          -6.3001    0.2739   -2.2365 O.3     1  UNL1       -0.3892
     42 C          -4.9042   -1.5384   -1.8559 C.3     1  UNL1       -0.0220
     43 C          -3.8829   -2.3695   -1.1969 C.3     1  UNL1       -0.0443
     44 C          -3.8215   -3.7821   -1.8463 C.3     1  UNL1       -0.0626
     45 C          -4.2196   -2.6655    0.2612 C.3     1  UNL1       -0.0626
     46 C           2.4745    2.0489    1.6651 C.ar    1  UNL1       -0.0550
     47 C           2.2180    3.0961    0.8192 C.ar    1  UNL1       -0.0197
     48 H           1.6746    5.9777   -1.8456 H       1  UNL1        0.0660
     49 H           0.8101    4.5651   -1.0899 H       1  UNL1        0.0660
     50 H           1.3409    5.9488   -0.0815 H       1  UNL1        0.0660
     51 H           5.2757    3.5055   -0.4271 H       1  UNL1        0.0654
     52 H           5.7735    1.6448    1.0688 H       1  UNL1        0.0621
     53 H           4.9339    0.3305    3.1196 H       1  UNL1        0.0336
     54 H           3.1907    0.4215    3.4953 H       1  UNL1        0.0336
     55 H           3.9069   -1.7429    2.5936 H       1  UNL1        0.0598
     56 H           4.7609   -0.4735   -0.0711 H       1  UNL1        0.1495
     57 H           7.2089   -1.3813   -0.3223 H       1  UNL1        0.0376
     58 H           6.1947   -2.6346   -1.0901 H       1  UNL1        0.0376
     59 H           8.6228   -2.8155   -1.4305 H       1  UNL1        0.0247
     60 H           9.6594   -3.7766   -0.3312 H       1  UNL1        0.0247
     61 H           8.3434   -4.5822   -1.3574 H       1  UNL1        0.0247
     62 H           7.8583   -3.1215    2.5028 H       1  UNL1        0.0247
     63 H           8.4951   -1.7635    1.4292 H       1  UNL1        0.0247
     64 H           9.3550   -3.3137    1.5157 H       1  UNL1        0.0247
     65 H           6.9820   -4.9413    1.6150 H       1  UNL1        0.1187
     66 H           7.1642   -5.4443   -0.0543 H       1  UNL1        0.1187
     67 H           0.8661   -1.0738    2.4186 H       1  UNL1        0.1495
     68 H           0.7679   -0.4904   -0.6360 H       1  UNL1        0.0598
     69 H           0.9863   -2.7487   -0.3903 H       1  UNL1        0.0351
     70 H          -0.5158   -2.4826   -1.2690 H       1  UNL1        0.0351
     71 H          -0.5700   -5.1644   -0.5125 H       1  UNL1        0.0848
     72 H          -2.0519   -4.5357    3.3710 H       1  UNL1        0.1027
     73 H          -1.2049   -2.2594    2.4479 H       1  UNL1        0.1665
     74 H          -1.6365    0.0345   -1.7231 H       1  UNL1        0.1491
     75 H          -3.4823    0.7765    0.4878 H       1  UNL1        0.0525
     76 H          -2.0636    2.7649   -1.3025 H       1  UNL1        0.0287
     77 H          -1.7815    2.4886    0.4126 H       1  UNL1        0.0287
     78 H          -2.8296    4.4540    0.3474 H       1  UNL1        0.0301
     79 H          -4.5748    2.3894    1.2512 H       1  UNL1        0.0268
     80 H          -4.0951    3.8967    1.9945 H       1  UNL1        0.0268
     81 H          -6.6740    3.3709    1.3531 H       1  UNL1        0.0265
     82 H          -6.0187    4.9931    1.4704 H       1  UNL1        0.0265
     83 H          -6.6297    3.4378   -1.0979 H       1  UNL1        0.0265
     84 H          -7.2661    4.9619   -0.4108 H       1  UNL1        0.0265
     85 H          -5.6422    5.4600   -2.1589 H       1  UNL1        0.0265
     86 H          -5.1581    6.0805   -0.5141 H       1  UNL1        0.0265
     87 H          -3.2764    5.1828   -1.6334 H       1  UNL1        0.0268
     88 H          -4.1196    3.7777   -2.2224 H       1  UNL1        0.0268
     89 H          -4.8870    1.8996   -1.3359 H       1  UNL1        0.0638
     90 H          -4.6057    1.4052   -3.3788 H       1  UNL1        0.2100
     91 H          -5.6362   -0.1098   -0.3968 H       1  UNL1        0.0620
     92 H          -6.0923   -0.0337   -3.1768 H       1  UNL1        0.2099
     93 H          -5.8643   -2.1580   -1.8424 H       1  UNL1        0.0293
     94 H          -4.6649   -1.5678   -2.9784 H       1  UNL1        0.0293
     95 H          -2.8408   -2.0479   -1.2349 H       1  UNL1        0.0296
     96 H          -3.1328   -3.6840   -2.7036 H       1  UNL1        0.0232
     97 H          -3.3129   -4.4525   -1.1194 H       1  UNL1        0.0232
     98 H          -4.8166   -4.1398   -2.1093 H       1  UNL1        0.0232
     99 H          -3.9923   -1.8471    0.9426 H       1  UNL1        0.0232
    100 H          -3.5776   -3.5243    0.5294 H       1  UNL1        0.0232
    101 H          -5.2753   -3.0408    0.3135 H       1  UNL1        0.0232
    102 H           1.6688    1.6298    2.2678 H       1  UNL1        0.0621
    103 H           1.2055    3.5019    0.7536 H       1  UNL1        0.0654
@<TRIPOS>BOND
     1     1     2    1
     2     2     3    1
     3     3     4   ar
     4     4     5   ar
     5     5     6   ar
     6     6     7    1
     7     7     8    1
     8     8     9    1
     9     9    10   am
    10    10    11    2
    11    10    12    1
    12    12    13    1
    13    13    14    1
    14    13    15    1
    15    13    16    1
    16     8    17    1
    17    17    18    2
    18    17    19   am
    19    19    20    1
    20    20    21    1
    21    21    22    1
    22    22    23   ar
    23    23    24   ar
    24    24    25   ar
    25    25    26   ar
    26    20    27    1
    27    27    28    2
    28    27    29   am
    29    29    30    1
    30    30    31    1
    31    31    32    1
    32    32    33    1
    33    33    34    1
    34    34    35    1
    35    35    36    1
    36    36    37    1
    37    30    38    1
    38    38    39    1
    39    38    40    1
    40    40    41    1
    41    40    42    1
    42    42    43    1
    43    43    44    1
    44    43    45    1
    45     6    46   ar
    46    46    47   ar
    47    47     3   ar
    48    26    22   ar
    49    37    32    1
    50     1    48    1
    51     1    49    1
    52     1    50    1
    53     4    51    1
    54     5    52    1
    55     7    53    1
    56     7    54    1
    57     8    55    1
    58     9    56    1
    59    12    57    1
    60    12    58    1
    61    14    59    1
    62    14    60    1
    63    14    61    1
    64    15    62    1
    65    15    63    1
    66    15    64    1
    67    16    65    1
    68    16    66    1
    69    19    67    1
    70    20    68    1
    71    21    69    1
    72    21    70    1
    73    23    71    1
    74    25    72    1
    75    26    73    1
    76    29    74    1
    77    30    75    1
    78    31    76    1
    79    31    77    1
    80    32    78    1
    81    33    79    1
    82    33    80    1
    83    34    81    1
    84    34    82    1
    85    35    83    1
    86    35    84    1
    87    36    85    1
    88    36    86    1
    89    37    87    1
    90    37    88    1
    91    38    89    1
    92    39    90    1
    93    40    91    1
    94    41    92    1
    95    42    93    1
    96    42    94    1
    97    43    95    1
    98    44    96    1
    99    44    97    1
   100    44    98    1
   101    45    99    1
   102    45   100    1
   103    45   101    1
   104    46   102    1
   105    47   103    1
