@<TRIPOS>MOLECULE
*****
 41 44 0 0 0
SMALL
GASTEIGER

@<TRIPOS>ATOM
      1 O           5.5146    3.2202    1.0024 O.3     1  UNL1       -0.5067
      2 C           5.1039    1.9639    0.5382 C.ar    1  UNL1        0.1174
      3 C           6.0422    1.0512    0.1198 C.ar    1  UNL1       -0.0201
      4 C           5.6911   -0.1876   -0.3414 C.ar    1  UNL1       -0.0577
      5 C           4.3320   -0.5125   -0.3792 C.ar    1  UNL1       -0.0538
      6 C           3.3714    0.3793    0.0325 C.ar    1  UNL1       -0.0144
      7 C           1.9680    0.0241   -0.0133 C.ar    1  UNL1       -0.0172
      8 C           0.9842    0.9754   -0.2332 C.ar    1  UNL1       -0.0534
      9 C          -0.3290    0.5559   -0.2619 C.ar    1  UNL1       -0.0528
     10 C          -0.6744   -0.7726   -0.0785 C.ar    1  UNL1       -0.0067
     11 C          -1.9899   -1.1965   -0.1067 C.ar    1  UNL1        0.0314
     12 C          -3.0309   -0.2010   -0.3375 C.ar    1  UNL1       -0.0104
     13 C          -3.4784    0.1258   -1.6003 C.ar    1  UNL1       -0.0537
     14 C          -4.4569    1.0602   -1.8212 C.ar    1  UNL1       -0.0577
     15 C          -5.0249    1.7058   -0.7592 C.ar    1  UNL1       -0.0201
     16 C          -4.5947    1.3969    0.5144 C.ar    1  UNL1        0.1174
     17 O          -5.1643    2.0466    1.6073 O.3     1  UNL1       -0.5067
     18 C          -3.6071    0.4543    0.7445 C.ar    1  UNL1       -0.0123
     19 C          -2.3115   -2.5365    0.0801 C.ar    1  UNL1        0.1251
     20 O          -3.6535   -2.9248    0.0444 O.3     1  UNL1       -0.5061
     21 C          -1.3408   -3.4909    0.2995 C.ar    1  UNL1       -0.0190
     22 C          -0.0295   -3.0703    0.3279 C.ar    1  UNL1       -0.0505
     23 C           0.2951   -1.7288    0.1411 C.ar    1  UNL1       -0.0165
     24 C           1.6079   -1.2960    0.1677 C.ar    1  UNL1       -0.0463
     25 C           3.7534    1.6154    0.4906 C.ar    1  UNL1       -0.0125
     26 H           4.9095    4.0030    0.7894 H       1  UNL1        0.2921
     27 H           7.0960    1.3193    0.1555 H       1  UNL1        0.0654
     28 H           6.3818   -0.9444   -0.6826 H       1  UNL1        0.0619
     29 H           3.9983   -1.4769   -0.7347 H       1  UNL1        0.0624
     30 H           1.2521    2.0225   -0.3781 H       1  UNL1        0.0624
     31 H          -1.1388    1.2806   -0.4336 H       1  UNL1        0.0624
     32 H          -3.0402   -0.3766   -2.4694 H       1  UNL1        0.0624
     33 H          -4.7999    1.3092   -2.8065 H       1  UNL1        0.0619
     34 H          -5.8097    2.4583   -0.8999 H       1  UNL1        0.0654
     35 H          -4.8082    1.9183    2.5299 H       1  UNL1        0.2921
     36 H          -3.2755    0.2194    1.7630 H       1  UNL1        0.0660
     37 H          -4.3035   -2.3719    0.5957 H       1  UNL1        0.2922
     38 H          -1.6107   -4.5312    0.4431 H       1  UNL1        0.0654
     39 H           0.7464   -3.7919    0.4969 H       1  UNL1        0.0625
     40 H           2.3697   -2.0613    0.3425 H       1  UNL1        0.0630
     41 H           3.0548    2.3659    0.8299 H       1  UNL1        0.0660
@<TRIPOS>BOND
     1     1     2    1
     2     2     3   ar
     3     3     4   ar
     4     4     5   ar
     5     5     6   ar
     6     6     7    1
     7     7     8   ar
     8     8     9   ar
     9     9    10   ar
    10    10    11   ar
    11    11    12    1
    12    12    13   ar
    13    13    14   ar
    14    14    15   ar
    15    15    16   ar
    16    16    17    1
    17    16    18   ar
    18    11    19   ar
    19    19    20    1
    20    19    21   ar
    21    21    22   ar
    22    22    23   ar
    23    23    24   ar
    24     6    25   ar
    25    25     2   ar
    26    24     7   ar
    27    23    10   ar
    28    18    12   ar
    29     1    26    1
    30     3    27    1
    31     4    28    1
    32     5    29    1
    33     8    30    1
    34     9    31    1
    35    13    32    1
    36    14    33    1
    37    15    34    1
    38    17    35    1
    39    18    36    1
    40    20    37    1
    41    21    38    1
    42    22    39    1
    43    24    40    1
    44    25    41    1
