@<TRIPOS>MOLECULE
*****
 78 82 0 0 0
SMALL
GASTEIGER

@<TRIPOS>ATOM
      1 C           7.3072   -1.8784    0.2206 C.3     1  UNL1        0.0833
      2 O           5.9033   -2.0524    0.1557 O.3     1  UNL1       -0.4523
      3 C           5.0775   -1.0977   -0.3827 C.2     1  UNL1        0.4238
      4 O           5.6366   -0.0391   -0.8251 O.2     1  UNL1       -0.2242
      5 N           3.6459   -1.2525   -0.4597 N.am    1  UNL1       -0.1532
      6 N           2.8424   -0.2612   -1.0307 N.am    1  UNL1       -0.2206
      7 C           2.3325    0.8045   -0.2453 C.2     1  UNL1        0.2617
      8 O           2.6736    0.7261    0.9888 O.2     1  UNL1       -0.2686
      9 C           1.5035    1.8916   -0.7204 C.ar    1  UNL1        0.0538
     10 C           0.3403    2.2493   -0.0201 C.ar    1  UNL1        0.0053
     11 C          -0.0024    1.4410    1.1448 C.3     1  UNL1        0.0269
     12 N          -0.4255    0.1044    0.7098 N.3     1  UNL1       -0.2957
     13 C          -0.7743   -0.7393    1.8364 C.3     1  UNL1        0.0121
     14 C          -2.2492   -1.0836    1.7983 C.3     1  UNL1        0.0122
     15 N          -2.4988   -1.8443    0.6139 N.3     1  UNL1       -0.2951
     16 C          -3.8326   -2.3901    0.5481 C.3     1  UNL1        0.0136
     17 C          -3.9660   -3.1660   -0.7478 C.3     1  UNL1       -0.0471
     18 C          -4.9037   -1.3518    0.5927 C.3     1  UNL1       -0.0471
     19 C          -4.0859   -3.3756    1.6691 C.3     1  UNL1       -0.0471
     20 C          -2.1152   -1.1286   -0.5633 C.3     1  UNL1        0.0122
     21 C          -1.4893    0.2191   -0.2450 C.3     1  UNL1        0.0121
     22 C          -0.4532    3.2769   -0.4295 C.ar    1  UNL1        0.0769
     23 C          -1.6655    3.6914    0.2450 C.ar    1  UNL1        0.0007
     24 C          -2.8901    3.7526   -0.4175 C.ar    1  UNL1       -0.0526
     25 C          -4.0264    4.2012    0.2177 C.ar    1  UNL1       -0.0611
     26 C          -4.0165    4.6116    1.5337 C.ar    1  UNL1       -0.0617
     27 C          -2.8143    4.5586    2.2045 C.ar    1  UNL1       -0.0611
     28 C          -1.6625    4.1022    1.5540 C.ar    1  UNL1       -0.0526
     29 N          -0.0956    3.9539   -1.5420 N.ar    1  UNL1       -0.2435
     30 C           0.9930    3.6965   -2.2846 C.ar    1  UNL1        0.1075
     31 C           1.3097    4.4422   -3.3925 C.ar    1  UNL1        0.1492
     32 F           0.4939    5.4416   -3.7626 F       1  UNL1       -0.2032
     33 C           2.4365    4.1758   -4.1114 C.ar    1  UNL1       -0.0243
     34 C           3.2492    3.1441   -3.7014 C.ar    1  UNL1       -0.0583
     35 C           2.9249    2.3978   -2.5870 C.ar    1  UNL1       -0.0517
     36 C           1.7959    2.6345   -1.8389 C.ar    1  UNL1        0.0157
     37 C           3.1176   -2.4628    0.0583 C.ar    1  UNL1        0.0593
     38 C           2.7518   -2.6167    1.3727 C.ar    1  UNL1       -0.0385
     39 C           2.2300   -3.8248    1.8516 C.ar    1  UNL1       -0.0599
     40 C           2.0648   -4.9063    1.0159 C.ar    1  UNL1       -0.0616
     41 C           2.4282   -4.7647   -0.3053 C.ar    1  UNL1       -0.0599
     42 C           2.9415   -3.5746   -0.7743 C.ar    1  UNL1       -0.0385
     43 H           7.7025   -1.9831    1.2492 H       1  UNL1        0.0661
     44 H           7.8046   -2.6451   -0.4339 H       1  UNL1        0.0661
     45 H           7.6332   -0.8960   -0.2034 H       1  UNL1        0.0661
     46 H           2.5685   -0.2996   -2.0467 H       1  UNL1        0.1738
     47 H           0.7686    1.3264    1.9098 H       1  UNL1        0.0477
     48 H          -0.8892    1.8680    1.7130 H       1  UNL1        0.0477
     49 H          -0.4608   -0.3141    2.8075 H       1  UNL1        0.0439
     50 H          -0.2306   -1.7132    1.6654 H       1  UNL1        0.0439
     51 H          -2.8525   -0.1466    1.8631 H       1  UNL1        0.0439
     52 H          -2.4307   -1.7320    2.6972 H       1  UNL1        0.0439
     53 H          -4.2661   -2.4589   -1.5401 H       1  UNL1        0.0247
     54 H          -4.6865   -4.0049   -0.6378 H       1  UNL1        0.0247
     55 H          -2.9567   -3.5548   -0.9914 H       1  UNL1        0.0247
     56 H          -5.0094   -0.8945   -0.3973 H       1  UNL1        0.0247
     57 H          -4.7913   -0.6220    1.4136 H       1  UNL1        0.0247
     58 H          -5.8728   -1.8881    0.8072 H       1  UNL1        0.0247
     59 H          -4.1000   -2.9015    2.6653 H       1  UNL1        0.0247
     60 H          -5.1112   -3.8004    1.5056 H       1  UNL1        0.0247
     61 H          -3.3880   -4.2413    1.6051 H       1  UNL1        0.0247
     62 H          -2.9371   -0.9348   -1.2745 H       1  UNL1        0.0439
     63 H          -1.3639   -1.7448   -1.1021 H       1  UNL1        0.0439
     64 H          -2.2798    0.8733    0.1924 H       1  UNL1        0.0439
     65 H          -1.0854    0.6324   -1.1868 H       1  UNL1        0.0439
     66 H          -2.8925    3.4305   -1.4465 H       1  UNL1        0.0624
     67 H          -4.9663    4.2427   -0.3076 H       1  UNL1        0.0618
     68 H          -4.8978    4.9660    2.0478 H       1  UNL1        0.0618
     69 H          -2.7723    4.8771    3.2495 H       1  UNL1        0.0618
     70 H          -0.7526    4.1137    2.1579 H       1  UNL1        0.0624
     71 H           2.7053    4.7686   -5.0087 H       1  UNL1        0.0647
     72 H           4.1604    2.8927   -4.2404 H       1  UNL1        0.0619
     73 H           3.5923    1.6227   -2.2725 H       1  UNL1        0.0624
     74 H           2.8761   -1.7777    2.0465 H       1  UNL1        0.0637
     75 H           1.9524   -3.8993    2.9091 H       1  UNL1        0.0618
     76 H           1.6587   -5.8269    1.4168 H       1  UNL1        0.0618
     77 H           2.3018   -5.6088   -0.9682 H       1  UNL1        0.0618
     78 H           3.2364   -3.4324   -1.8087 H       1  UNL1        0.0637
@<TRIPOS>BOND
     1     1     2    1
     2     2     3    1
     3     3     4    2
     4     3     5   am
     5     5     6    1
     6     6     7   am
     7     7     8    2
     8     7     9    1
     9     9    10   ar
    10    10    11    1
    11    11    12    1
    12    12    13    1
    13    13    14    1
    14    14    15    1
    15    15    16    1
    16    16    17    1
    17    16    18    1
    18    16    19    1
    19    15    20    1
    20    20    21    1
    21    10    22   ar
    22    22    23    1
    23    23    24   ar
    24    24    25   ar
    25    25    26   ar
    26    26    27   ar
    27    27    28   ar
    28    22    29   ar
    29    29    30   ar
    30    30    31   ar
    31    31    32    1
    32    31    33   ar
    33    33    34   ar
    34    34    35   ar
    35    35    36   ar
    36     5    37    1
    37    37    38   ar
    38    38    39   ar
    39    39    40   ar
    40    40    41   ar
    41    41    42   ar
    42    36     9   ar
    43    42    37   ar
    44    21    12    1
    45    28    23   ar
    46    36    30   ar
    47     1    43    1
    48     1    44    1
    49     1    45    1
    50     6    46    1
    51    11    47    1
    52    11    48    1
    53    13    49    1
    54    13    50    1
    55    14    51    1
    56    14    52    1
    57    17    53    1
    58    17    54    1
    59    17    55    1
    60    18    56    1
    61    18    57    1
    62    18    58    1
    63    19    59    1
    64    19    60    1
    65    19    61    1
    66    20    62    1
    67    20    63    1
    68    21    64    1
    69    21    65    1
    70    24    66    1
    71    25    67    1
    72    26    68    1
    73    27    69    1
    74    28    70    1
    75    33    71    1
    76    34    72    1
    77    35    73    1
    78    38    74    1
    79    39    75    1
    80    40    76    1
    81    41    77    1
    82    42    78    1
