
     RDKit          3D

 56 60  0  0  0  0  0  0  0  0999 V2000
   -5.2277    0.3789   -1.5506 C   0  0  0  0  0  0  0  0  0  0  0  0
   -4.0547   -0.2854   -0.8703 C   0  0  1  0  0  0  0  0  0  0  0  0
   -2.9912    0.6775   -0.7541 N   0  0  0  0  0  0  0  0  0  0  0  0
   -1.6709    0.4148   -1.2603 C   0  0  0  0  0  0  0  0  0  0  0  0
   -1.4866   -0.6990   -1.8113 O   0  0  0  0  0  0  0  0  0  0  0  0
   -0.6078    1.4400   -1.1164 C   0  0  2  0  0  0  0  0  0  0  0  0
   -0.9252    2.5917   -2.0578 C   0  0  0  0  0  0  0  0  0  0  0  0
   -0.6506    1.9653   -3.4138 C   0  0  1  0  0  0  0  0  0  0  0  0
    0.7311    2.0373   -3.9814 C   0  0  0  0  0  0  0  0  0  0  0  0
    0.3975    0.8723   -3.1240 C   0  0  1  0  0  0  0  0  0  0  0  0
    0.5907    0.9047   -1.7040 N   0  0  0  0  0  0  0  0  0  0  0  0
    1.7283    0.4952   -1.0001 C   0  0  0  0  0  0  0  0  0  0  0  0
    2.7058    0.0447   -1.6465 O   0  0  0  0  0  0  0  0  0  0  0  0
    1.8248    0.5733    0.4904 C   0  0  0  0  0  0  0  0  0  0  0  0
    3.0938    0.0893    0.9364 N   0  0  0  0  0  0  0  0  0  0  0  0
    4.1710    0.8374    1.0910 N   0  0  0  0  0  0  0  0  0  0  0  0
    5.2161    0.1342    1.5169 C   0  0  0  0  0  0  0  0  0  0  0  0
    6.5318    0.6682    1.7791 C   0  0  0  0  0  0  0  0  0  0  0  0
    6.7930    2.0356    1.5875 N   0  0  0  0  0  0  0  0  0  0  0  0
    7.4367   -0.0873    2.1762 O   0  0  0  0  0  0  0  0  0  0  0  0
    4.7748   -1.1696    1.6462 C   0  0  0  0  0  0  0  0  0  0  0  0
    5.4228   -2.2997    2.0444 C   0  0  0  0  0  0  0  0  0  0  0  0
    4.7021   -3.4939    2.0750 C   0  0  0  0  0  0  0  0  0  0  0  0
    3.4047   -3.4782    1.7117 N   0  0  0  0  0  0  0  0  0  0  0  0
    2.7716   -2.3519    1.3184 C   0  0  0  0  0  0  0  0  0  0  0  0
    3.4504   -1.1559    1.2758 C   0  0  0  0  0  0  0  0  0  0  0  0
   -4.4016   -0.7948    0.4792 C   0  0  0  0  0  0  0  0  0  0  0  0
   -4.2823    0.0325    1.5650 C   0  0  0  0  0  0  0  0  0  0  0  0
   -4.6045   -0.4203    2.8490 C   0  0  0  0  0  0  0  0  0  0  0  0
   -5.0434   -1.7122    3.0003 C   0  0  0  0  0  0  0  0  0  0  0  0
   -5.1704   -2.5648    1.9101 C   0  0  0  0  0  0  0  0  0  0  0  0
   -5.7342   -4.2069    2.1448 Cl  0  0  0  0  0  0  0  0  0  0  0  0
   -4.8486   -2.0965    0.6656 C   0  0  0  0  0  0  0  0  0  0  0  0
   -4.9525   -2.8837   -0.4385 F   0  0  0  0  0  0  0  0  0  0  0  0
   -5.8113    0.9905   -0.8190 H   0  0  0  0  0  0  0  0  0  0  0  0
   -4.8280    1.0376   -2.3606 H   0  0  0  0  0  0  0  0  0  0  0  0
   -5.8630   -0.4157   -2.0056 H   0  0  0  0  0  0  0  0  0  0  0  0
   -3.7346   -1.1854   -1.4545 H   0  0  0  0  0  0  0  0  0  0  0  0
   -3.1925    1.5883   -0.2969 H   0  0  0  0  0  0  0  0  0  0  0  0
   -0.4760    1.7758   -0.0716 H   0  0  0  0  0  0  0  0  0  0  0  0
   -0.2278    3.4427   -1.8564 H   0  0  0  0  0  0  0  0  0  0  0  0
   -1.9666    2.9355   -1.9675 H   0  0  0  0  0  0  0  0  0  0  0  0
   -1.4981    1.7209   -4.0547 H   0  0  0  0  0  0  0  0  0  0  0  0
    0.8011    1.8406   -5.0684 H   0  0  0  0  0  0  0  0  0  0  0  0
    1.4403    2.8226   -3.6384 H   0  0  0  0  0  0  0  0  0  0  0  0
    0.1574   -0.0848   -3.6302 H   0  0  0  0  0  0  0  0  0  0  0  0
    1.6458    1.6339    0.8073 H   0  0  0  0  0  0  0  0  0  0  0  0
    1.0108   -0.0154    0.9475 H   0  0  0  0  0  0  0  0  0  0  0  0
    7.4931    2.3903    0.8915 H   0  0  0  0  0  0  0  0  0  0  0  0
    6.2932    2.7880    2.1397 H   0  0  0  0  0  0  0  0  0  0  0  0
    6.4595   -2.2637    2.3253 H   0  0  0  0  0  0  0  0  0  0  0  0
    5.2102   -4.4020    2.3915 H   0  0  0  0  0  0  0  0  0  0  0  0
    1.7265   -2.3394    1.0258 H   0  0  0  0  0  0  0  0  0  0  0  0
   -3.9398    1.0550    1.4692 H   0  0  0  0  0  0  0  0  0  0  0  0
   -4.5064    0.2419    3.6997 H   0  0  0  0  0  0  0  0  0  0  0  0
   -5.2885   -2.0501    3.9928 H   0  0  0  0  0  0  0  0  0  0  0  0
  1  2  1  0
  2  3  1  0
  3  4  1  0
  4  5  2  0
  4  6  1  0
  6  7  1  0
  7  8  1  0
  8  9  1  0
  9 10  1  0
 10 11  1  0
 11 12  1  0
 12 13  2  0
 12 14  1  0
 14 15  1  0
 15 16  1  0
 16 17  2  0
 17 18  1  0
 18 19  1  0
 18 20  2  0
 17 21  1  0
 21 22  2  0
 22 23  1  0
 23 24  2  0
 24 25  1  0
 25 26  2  0
  2 27  1  0
 27 28  2  0
 28 29  1  0
 29 30  2  0
 30 31  1  0
 31 32  1  0
 31 33  2  0
 33 34  1  0
 11  6  1  0
 26 15  1  0
 33 27  1  0
 10  8  1  0
 26 21  1  0
  1 35  1  0
  1 36  1  0
  1 37  1  0
  2 38  1  6
  3 39  1  0
  6 40  1  1
  7 41  1  0
  7 42  1  0
  8 43  1  6
  9 44  1  0
  9 45  1  0
 10 46  1  6
 14 47  1  0
 14 48  1  0
 19 49  1  0
 19 50  1  0
 22 51  1  0
 23 52  1  0
 25 53  1  0
 28 54  1  0
 29 55  1  0
 30 56  1  0
M  END
$$$$
