@<TRIPOS>MOLECULE
*****
 56 60 0 0 0
SMALL
GASTEIGER

@<TRIPOS>ATOM
      1 C          -5.2277    0.3789   -1.5506 C.3     1  UNL1       -0.0424
      2 C          -4.0547   -0.2854   -0.8703 C.3     1  UNL1        0.0483
      3 N          -2.9912    0.6775   -0.7541 N.am    1  UNL1       -0.3071
      4 C          -1.6709    0.4148   -1.2603 C.2     1  UNL1        0.2340
      5 O          -1.4866   -0.6990   -1.8113 O.2     1  UNL1       -0.2738
      6 C          -0.6078    1.4400   -1.1164 C.3     1  UNL1        0.1028
      7 C          -0.9252    2.5917   -2.0578 C.3     1  UNL1       -0.0212
      8 C          -0.6506    1.9653   -3.4138 C.3     1  UNL1       -0.0185
      9 C           0.7311    2.0373   -3.9814 C.3     1  UNL1       -0.0294
     10 C           0.3975    0.8723   -3.1240 C.3     1  UNL1        0.0301
     11 N           0.5907    0.9047   -1.7040 N.am    1  UNL1       -0.2851
     12 C           1.7283    0.4952   -1.0001 C.2     1  UNL1        0.2379
     13 O           2.7058    0.0447   -1.6465 O.2     1  UNL1       -0.2735
     14 C           1.8248    0.5733    0.4904 C.3     1  UNL1        0.1185
     15 N           3.0938    0.0893    0.9364 N.ar    1  UNL1       -0.2527
     16 N           4.1710    0.8374    1.0910 N.ar    1  UNL1       -0.1649
     17 C           5.2161    0.1342    1.5169 C.ar    1  UNL1        0.1546
     18 C           6.5318    0.6682    1.7791 C.2     1  UNL1        0.2622
     19 N           6.7930    2.0356    1.5875 N.am    1  UNL1       -0.3240
     20 O           7.4367   -0.0873    2.1762 O.2     1  UNL1       -0.2687
     21 C           4.7748   -1.1696    1.6462 C.ar    1  UNL1        0.0351
     22 C           5.4228   -2.2997    2.0444 C.ar    1  UNL1       -0.0322
     23 C           4.7021   -3.4939    2.0750 C.ar    1  UNL1        0.0283
     24 N           3.4047   -3.4782    1.7117 N.ar    1  UNL1       -0.2611
     25 C           2.7716   -2.3519    1.3184 C.ar    1  UNL1        0.0532
     26 C           3.4504   -1.1559    1.2758 C.ar    1  UNL1        0.0882
     27 C          -4.4016   -0.7948    0.4792 C.ar    1  UNL1        0.0091
     28 C          -4.2823    0.0325    1.5650 C.ar    1  UNL1       -0.0540
     29 C          -4.6045   -0.4203    2.8490 C.ar    1  UNL1       -0.0599
     30 C          -5.0434   -1.7122    3.0003 C.ar    1  UNL1       -0.0406
     31 C          -5.1704   -2.5648    1.9101 C.ar    1  UNL1        0.0764
     32 CL         -5.7342   -4.2069    2.1448 Cl      1  UNL1       -0.0806
     33 C          -4.8486   -2.0965    0.6656 C.ar    1  UNL1        0.1465
     34 F          -4.9525   -2.8837   -0.4385 F       1  UNL1       -0.2036
     35 H          -5.8113    0.9905   -0.8190 H       1  UNL1        0.0251
     36 H          -4.8280    1.0376   -2.3606 H       1  UNL1        0.0251
     37 H          -5.8630   -0.4157   -2.0056 H       1  UNL1        0.0251
     38 H          -3.7346   -1.1854   -1.4545 H       1  UNL1        0.0546
     39 H          -3.1925    1.5883   -0.2969 H       1  UNL1        0.1493
     40 H          -0.4760    1.7758   -0.0716 H       1  UNL1        0.0597
     41 H          -0.2278    3.4427   -1.8564 H       1  UNL1        0.0291
     42 H          -1.9666    2.9355   -1.9675 H       1  UNL1        0.0291
     43 H          -1.4981    1.7209   -4.0547 H       1  UNL1        0.0320
     44 H           0.8011    1.8406   -5.0684 H       1  UNL1        0.0286
     45 H           1.4403    2.8226   -3.6384 H       1  UNL1        0.0286
     46 H           0.1574   -0.0848   -3.6302 H       1  UNL1        0.0503
     47 H           1.6458    1.6339    0.8073 H       1  UNL1        0.0605
     48 H           1.0108   -0.0154    0.9475 H       1  UNL1        0.0605
     49 H           7.4931    2.3903    0.8915 H       1  UNL1        0.1453
     50 H           6.2932    2.7880    2.1397 H       1  UNL1        0.1453
     51 H           6.4595   -2.2637    2.3253 H       1  UNL1        0.0640
     52 H           5.2102   -4.4020    2.3915 H       1  UNL1        0.0830
     53 H           1.7265   -2.3394    1.0258 H       1  UNL1        0.0851
     54 H          -3.9398    1.0550    1.4692 H       1  UNL1        0.0622
     55 H          -4.5064    0.2419    3.6997 H       1  UNL1        0.0618
     56 H          -5.2885   -2.0501    3.9928 H       1  UNL1        0.0633
@<TRIPOS>BOND
     1     1     2    1
     2     2     3    1
     3     3     4   am
     4     4     5    2
     5     4     6    1
     6     6     7    1
     7     7     8    1
     8     8     9    1
     9     9    10    1
    10    10    11    1
    11    11    12   am
    12    12    13    2
    13    12    14    1
    14    14    15    1
    15    15    16   ar
    16    16    17   ar
    17    17    18    1
    18    18    19   am
    19    18    20    2
    20    17    21   ar
    21    21    22   ar
    22    22    23   ar
    23    23    24   ar
    24    24    25   ar
    25    25    26   ar
    26     2    27    1
    27    27    28   ar
    28    28    29   ar
    29    29    30   ar
    30    30    31   ar
    31    31    32    1
    32    31    33   ar
    33    33    34    1
    34    11     6    1
    35    26    15   ar
    36    33    27   ar
    37    10     8    1
    38    26    21   ar
    39     1    35    1
    40     1    36    1
    41     1    37    1
    42     2    38    1
    43     3    39    1
    44     6    40    1
    45     7    41    1
    46     7    42    1
    47     8    43    1
    48     9    44    1
    49     9    45    1
    50    10    46    1
    51    14    47    1
    52    14    48    1
    53    19    49    1
    54    19    50    1
    55    22    51    1
    56    23    52    1
    57    25    53    1
    58    28    54    1
    59    29    55    1
    60    30    56    1
