
     RDKit          3D

 61 65  0  0  0  0  0  0  0  0999 V2000
   -7.5235   -0.1135   -1.2699 N   0  0  0  0  0  0  0  0  0  0  0  0
   -7.5410    0.7004   -0.1050 C   0  0  0  0  0  0  0  0  0  0  0  0
   -8.6030    1.5233    0.1993 C   0  0  0  0  0  0  0  0  0  0  0  0
   -8.6333    2.3151    1.3214 C   0  0  0  0  0  0  0  0  0  0  0  0
   -7.5580    2.2897    2.1839 C   0  0  0  0  0  0  0  0  0  0  0  0
   -6.4779    1.4814    1.9159 C   0  0  0  0  0  0  0  0  0  0  0  0
   -6.4909    0.7060    0.7813 C   0  0  0  0  0  0  0  0  0  0  0  0
   -5.3328   -0.1218    0.5511 N   0  0  0  0  0  0  0  0  0  0  0  0
   -4.2196    0.3522   -0.1794 C   0  0  0  0  0  0  0  0  0  0  0  0
   -4.2932    1.5307   -0.6155 O   0  0  0  0  0  0  0  0  0  0  0  0
   -3.0101   -0.4558   -0.4434 C   0  0  0  0  0  0  0  0  0  0  0  0
   -2.8956   -1.7414   -0.0026 C   0  0  0  0  0  0  0  0  0  0  0  0
   -1.7459   -2.4488   -0.2767 C   0  0  0  0  0  0  0  0  0  0  0  0
   -0.6861   -1.9102   -0.9878 C   0  0  0  0  0  0  0  0  0  0  0  0
    0.5375   -2.6824   -1.2899 C   0  0  0  0  0  0  0  0  0  0  0  0
    1.4392   -2.5611   -0.1672 N   0  0  0  0  0  0  0  0  0  0  0  0
    1.9827   -1.3067    0.2290 C   0  0  0  0  0  0  0  0  0  0  0  0
    2.3383   -0.3604   -0.6117 N   0  0  0  0  0  0  0  0  0  0  0  0
    2.8299    0.7293    0.1849 C   0  0  2  0  0  0  0  0  0  0  0  0
    3.6824    1.7067   -0.4414 C   0  0  0  0  0  0  0  0  0  0  0  0
    3.5905    2.1773   -1.7143 C   0  0  0  0  0  0  0  0  0  0  0  0
    4.4599    3.1351   -2.1616 C   0  0  0  0  0  0  0  0  0  0  0  0
    5.4626    3.6804   -1.3861 C   0  0  0  0  0  0  0  0  0  0  0  0
    5.5624    3.2085   -0.0940 C   0  0  0  0  0  0  0  0  0  0  0  0
    4.6945    2.2468    0.3653 C   0  0  0  0  0  0  0  0  0  0  0  0
    3.3736   -0.0034    1.3681 C   0  0  2  0  0  0  0  0  0  0  0  0
    4.4748   -0.9360    1.1198 C   0  0  0  0  0  0  0  0  0  0  0  0
    5.3261   -0.9592    0.0540 C   0  0  0  0  0  0  0  0  0  0  0  0
    6.3486   -1.8963   -0.0544 C   0  0  0  0  0  0  0  0  0  0  0  0
    6.5351   -2.8460    0.9282 C   0  0  0  0  0  0  0  0  0  0  0  0
    5.6937   -2.8395    2.0017 C   0  0  0  0  0  0  0  0  0  0  0  0
    4.6819   -1.9093    2.1056 C   0  0  0  0  0  0  0  0  0  0  0  0
    2.2191   -0.8960    1.5568 O   0  0  0  0  0  0  0  0  0  0  0  0
   -0.8397   -0.6191   -1.4124 C   0  0  0  0  0  0  0  0  0  0  0  0
   -1.9720    0.1171   -1.1576 C   0  0  0  0  0  0  0  0  0  0  0  0
   -7.1484   -1.0888   -1.2812 H   0  0  0  0  0  0  0  0  0  0  0  0
   -7.8987    0.2799   -2.1410 H   0  0  0  0  0  0  0  0  0  0  0  0
   -9.4581    1.5425   -0.4882 H   0  0  0  0  0  0  0  0  0  0  0  0
   -9.4903    2.9635    1.5442 H   0  0  0  0  0  0  0  0  0  0  0  0
   -7.5830    2.9240    3.0821 H   0  0  0  0  0  0  0  0  0  0  0  0
   -5.6438    1.4770    2.6072 H   0  0  0  0  0  0  0  0  0  0  0  0
   -5.3184   -1.0898    0.9325 H   0  0  0  0  0  0  0  0  0  0  0  0
   -3.6976   -2.2147    0.5608 H   0  0  0  0  0  0  0  0  0  0  0  0
   -1.6368   -3.4725    0.0659 H   0  0  0  0  0  0  0  0  0  0  0  0
    1.0631   -2.2680   -2.1890 H   0  0  0  0  0  0  0  0  0  0  0  0
    0.3286   -3.7369   -1.5314 H   0  0  0  0  0  0  0  0  0  0  0  0
    1.6790   -3.4555    0.3560 H   0  0  0  0  0  0  0  0  0  0  0  0
    1.9077    1.2678    0.5566 H   0  0  0  0  0  0  0  0  0  0  0  0
    2.8282    1.7875   -2.3618 H   0  0  0  0  0  0  0  0  0  0  0  0
    4.4095    3.5350   -3.1872 H   0  0  0  0  0  0  0  0  0  0  0  0
    6.1447    4.4435   -1.7635 H   0  0  0  0  0  0  0  0  0  0  0  0
    6.3451    3.6160    0.5542 H   0  0  0  0  0  0  0  0  0  0  0  0
    4.8291    1.9146    1.4049 H   0  0  0  0  0  0  0  0  0  0  0  0
    3.5294    0.6045    2.2512 H   0  0  0  0  0  0  0  0  0  0  0  0
    5.2357   -0.2623   -0.7531 H   0  0  0  0  0  0  0  0  0  0  0  0
    7.0033   -1.8805   -0.9161 H   0  0  0  0  0  0  0  0  0  0  0  0
    7.3352   -3.5927    0.8609 H   0  0  0  0  0  0  0  0  0  0  0  0
    5.8639   -3.6013    2.7629 H   0  0  0  0  0  0  0  0  0  0  0  0
    4.0564   -1.9685    2.9858 H   0  0  0  0  0  0  0  0  0  0  0  0
   -0.0389   -0.1499   -1.9829 H   0  0  0  0  0  0  0  0  0  0  0  0
   -2.0551    1.1326   -1.5094 H   0  0  0  0  0  0  0  0  0  0  0  0
  1  2  1  0
  2  3  2  0
  3  4  1  0
  4  5  2  0
  5  6  1  0
  6  7  2  0
  7  8  1  0
  8  9  1  0
  9 10  2  0
  9 11  1  0
 11 12  2  0
 12 13  1  0
 13 14  2  0
 14 15  1  0
 15 16  1  0
 16 17  1  0
 17 18  2  0
 18 19  1  0
 19 20  1  0
 20 21  2  0
 21 22  1  0
 22 23  2  0
 23 24  1  0
 24 25  2  0
 19 26  1  0
 26 27  1  0
 27 28  2  0
 28 29  1  0
 29 30  2  0
 30 31  1  0
 31 32  2  0
 26 33  1  0
 14 34  1  0
 34 35  2  0
  7  2  1  0
 35 11  1  0
 33 17  1  0
 25 20  1  0
 32 27  1  0
  1 36  1  0
  1 37  1  0
  3 38  1  0
  4 39  1  0
  5 40  1  0
  6 41  1  0
  8 42  1  0
 12 43  1  0
 13 44  1  0
 15 45  1  0
 15 46  1  0
 16 47  1  0
 19 48  1  1
 21 49  1  0
 22 50  1  0
 23 51  1  0
 24 52  1  0
 25 53  1  0
 26 54  1  1
 28 55  1  0
 29 56  1  0
 30 57  1  0
 31 58  1  0
 32 59  1  0
 34 60  1  0
 35 61  1  0
M  END
$$$$
