@<TRIPOS>MOLECULE
*****
 61 65 0 0 0
SMALL
GASTEIGER

@<TRIPOS>ATOM
      1 N          -7.5235   -0.1135   -1.2699 N.pl3   1  UNL1       -0.3565
      2 C          -7.5410    0.7004   -0.1050 C.ar    1  UNL1        0.0461
      3 C          -8.6030    1.5233    0.1993 C.ar    1  UNL1       -0.0392
      4 C          -8.6333    2.3151    1.3214 C.ar    1  UNL1       -0.0599
      5 C          -7.5580    2.2897    2.1839 C.ar    1  UNL1       -0.0599
      6 C          -6.4779    1.4814    1.9159 C.ar    1  UNL1       -0.0387
      7 C          -6.4909    0.7060    0.7813 C.ar    1  UNL1        0.0545
      8 N          -5.3328   -0.1218    0.5511 N.am    1  UNL1       -0.2800
      9 C          -4.2196    0.3522   -0.1794 C.2     1  UNL1        0.2483
     10 O          -4.2932    1.5307   -0.6155 O.2     1  UNL1       -0.2699
     11 C          -3.0101   -0.4558   -0.4434 C.ar    1  UNL1        0.0370
     12 C          -2.8956   -1.7414   -0.0026 C.ar    1  UNL1       -0.0493
     13 C          -1.7459   -2.4488   -0.2767 C.ar    1  UNL1       -0.0564
     14 C          -0.6861   -1.9102   -0.9878 C.ar    1  UNL1       -0.0302
     15 C           0.5375   -2.6824   -1.2899 C.3     1  UNL1        0.0384
     16 N           1.4392   -2.5611   -0.1672 N.pl3   1  UNL1       -0.2953
     17 C           1.9827   -1.3067    0.2290 C.2     1  UNL1        0.2794
     18 N           2.3383   -0.3604   -0.6117 N.2     1  UNL1       -0.2247
     19 C           2.8299    0.7293    0.1849 C.3     1  UNL1        0.1217
     20 C           3.6824    1.7067   -0.4414 C.ar    1  UNL1       -0.0191
     21 C           3.5905    2.1773   -1.7143 C.ar    1  UNL1       -0.0564
     22 C           4.4599    3.1351   -2.1616 C.ar    1  UNL1       -0.0614
     23 C           5.4626    3.6804   -1.3861 C.ar    1  UNL1       -0.0617
     24 C           5.5624    3.2085   -0.0940 C.ar    1  UNL1       -0.0614
     25 C           4.6945    2.2468    0.3653 C.ar    1  UNL1       -0.0564
     26 C           3.3736   -0.0034    1.3681 C.3     1  UNL1        0.1543
     27 C           4.4748   -0.9360    1.1198 C.ar    1  UNL1       -0.0049
     28 C           5.3261   -0.9592    0.0540 C.ar    1  UNL1       -0.0550
     29 C           6.3486   -1.8963   -0.0544 C.ar    1  UNL1       -0.0614
     30 C           6.5351   -2.8460    0.9282 C.ar    1  UNL1       -0.0617
     31 C           5.6937   -2.8395    2.0017 C.ar    1  UNL1       -0.0614
     32 C           4.6819   -1.9093    2.1056 C.ar    1  UNL1       -0.0550
     33 O           2.2191   -0.8960    1.5568 O.2     1  UNL1       -0.4552
     34 C          -0.8397   -0.6191   -1.4124 C.ar    1  UNL1       -0.0564
     35 C          -1.9720    0.1171   -1.1576 C.ar    1  UNL1       -0.0493
     36 H          -7.1484   -1.0888   -1.2812 H       1  UNL1        0.1424
     37 H          -7.8987    0.2799   -2.1410 H       1  UNL1        0.1424
     38 H          -9.4581    1.5425   -0.4882 H       1  UNL1        0.0636
     39 H          -9.4903    2.9635    1.5442 H       1  UNL1        0.0618
     40 H          -7.5830    2.9240    3.0821 H       1  UNL1        0.0618
     41 H          -5.6438    1.4770    2.6072 H       1  UNL1        0.0637
     42 H          -5.3184   -1.0898    0.9325 H       1  UNL1        0.1552
     43 H          -3.6976   -2.2147    0.5608 H       1  UNL1        0.0625
     44 H          -1.6368   -3.4725    0.0659 H       1  UNL1        0.0621
     45 H           1.0631   -2.2680   -2.1890 H       1  UNL1        0.0512
     46 H           0.3286   -3.7369   -1.5314 H       1  UNL1        0.0512
     47 H           1.6790   -3.4555    0.3560 H       1  UNL1        0.1507
     48 H           1.9077    1.2678    0.5566 H       1  UNL1        0.0636
     49 H           2.8282    1.7875   -2.3618 H       1  UNL1        0.0621
     50 H           4.4095    3.5350   -3.1872 H       1  UNL1        0.0618
     51 H           6.1447    4.4435   -1.7635 H       1  UNL1        0.0618
     52 H           6.3451    3.6160    0.5542 H       1  UNL1        0.0618
     53 H           4.8291    1.9146    1.4049 H       1  UNL1        0.0621
     54 H           3.5294    0.6045    2.2512 H       1  UNL1        0.0811
     55 H           5.2357   -0.2623   -0.7531 H       1  UNL1        0.0621
     56 H           7.0033   -1.8805   -0.9161 H       1  UNL1        0.0618
     57 H           7.3352   -3.5927    0.8609 H       1  UNL1        0.0618
     58 H           5.8639   -3.6013    2.7629 H       1  UNL1        0.0618
     59 H           4.0564   -1.9685    2.9858 H       1  UNL1        0.0621
     60 H          -0.0389   -0.1499   -1.9829 H       1  UNL1        0.0621
     61 H          -2.0551    1.1326   -1.5094 H       1  UNL1        0.0625
@<TRIPOS>BOND
     1     1     2    1
     2     2     3   ar
     3     3     4   ar
     4     4     5   ar
     5     5     6   ar
     6     6     7   ar
     7     7     8    1
     8     8     9   am
     9     9    10    2
    10     9    11    1
    11    11    12   ar
    12    12    13   ar
    13    13    14   ar
    14    14    15    1
    15    15    16    1
    16    16    17    1
    17    17    18    2
    18    18    19    1
    19    19    20    1
    20    20    21   ar
    21    21    22   ar
    22    22    23   ar
    23    23    24   ar
    24    24    25   ar
    25    19    26    1
    26    26    27    1
    27    27    28   ar
    28    28    29   ar
    29    29    30   ar
    30    30    31   ar
    31    31    32   ar
    32    26    33    1
    33    14    34   ar
    34    34    35   ar
    35     7     2   ar
    36    35    11   ar
    37    33    17    1
    38    25    20   ar
    39    32    27   ar
    40     1    36    1
    41     1    37    1
    42     3    38    1
    43     4    39    1
    44     5    40    1
    45     6    41    1
    46     8    42    1
    47    12    43    1
    48    13    44    1
    49    15    45    1
    50    15    46    1
    51    16    47    1
    52    19    48    1
    53    21    49    1
    54    22    50    1
    55    23    51    1
    56    24    52    1
    57    25    53    1
    58    26    54    1
    59    28    55    1
    60    29    56    1
    61    30    57    1
    62    31    58    1
    63    32    59    1
    64    34    60    1
    65    35    61    1
