@<TRIPOS>MOLECULE
*****
 81 83 0 0 0
SMALL
GASTEIGER

@<TRIPOS>ATOM
      1 C           1.4728   -0.1464   -0.3237 C.3     1  UNL1        0.1138
      2 C           1.2734    0.6470    0.9687 C.3     1  UNL1        0.0702
      3 C           0.9525   -0.3025    2.0628 C.2     1  UNL1        0.3067
      4 O           1.9457   -0.6484    2.9753 O.3     1  UNL1       -0.4806
      5 O          -0.0999   -0.8958    2.3520 O.2     1  UNL1       -0.2509
      6 N           1.7808    0.7738   -1.3413 N.3     1  UNL1       -0.1774
      7 S           3.2081    0.6350   -2.2138 S.O2    1  UNL1        0.0596
      8 O           3.2727   -0.5837   -3.0946 O.2     1  UNL1       -0.1530
      9 O           3.2083    1.7910   -3.2295 O.2     1  UNL1       -0.1530
     10 C           4.5881    0.7921   -1.1616 C.ar    1  UNL1        0.1115
     11 C           5.0598    2.0560   -0.8660 C.ar    1  UNL1       -0.0204
     12 C           4.4113    3.2554   -1.4025 C.3     1  UNL1       -0.0377
     13 C           6.1780    2.2493   -0.0454 C.ar    1  UNL1       -0.0149
     14 C           6.8515    1.1734    0.4998 C.ar    1  UNL1        0.1236
     15 O           7.9623    1.3844    1.3142 O.3     1  UNL1       -0.4948
     16 C           8.3848    2.7076    1.5678 C.3     1  UNL1        0.0788
     17 C           6.3797   -0.0843    0.2038 C.ar    1  UNL1       -0.0040
     18 C           7.1365   -1.2066    0.8134 C.3     1  UNL1       -0.0359
     19 C           5.2633   -0.2739   -0.6161 C.ar    1  UNL1       -0.0175
     20 C           4.9257   -1.6760   -0.8374 C.3     1  UNL1       -0.0375
     21 C           0.1666   -0.7981   -0.7134 C.2     1  UNL1        0.2030
     22 O           0.3485   -1.5328   -1.8803 O.2     1  UNL1       -0.4945
     23 N          -0.9799   -0.7652   -0.1613 N.2     1  UNL1       -0.2403
     24 C          -2.1372   -1.4635   -0.6848 C.3     1  UNL1        0.1340
     25 C          -2.8659   -0.6203   -1.7071 C.3     1  UNL1        0.0034
     26 C          -3.3443    0.6635   -1.1073 C.ar    1  UNL1       -0.0448
     27 C          -4.6185    0.7171   -0.5457 C.ar    1  UNL1       -0.0577
     28 C          -5.0587    1.8986    0.0125 C.ar    1  UNL1       -0.0466
     29 C          -4.2423    3.0035    0.0095 C.ar    1  UNL1        0.0647
     30 C          -2.9713    2.9977   -0.5360 C.ar    1  UNL1       -0.0466
     31 C          -2.5477    1.8095   -1.0892 C.ar    1  UNL1       -0.0577
     32 C          -4.7242    4.2417    0.6039 C.2     1  UNL1        0.3081
     33 N          -4.2369    5.4929    0.1394 N.pl3   1  UNL1       -0.2466
     34 N          -5.5741    4.4275    1.5440 N.2     1  UNL1       -0.0994
     35 C          -3.0675   -1.8571    0.3975 C.2     1  UNL1        0.2405
     36 O          -3.0834   -1.4427    1.5838 O.2     1  UNL1       -0.2733
     37 N          -4.1373   -2.7869    0.3259 N.am    1  UNL1       -0.2997
     38 C          -4.8623   -2.9083    1.5655 C.3     1  UNL1        0.0147
     39 C          -5.4101   -4.3147    1.6641 C.3     1  UNL1       -0.0371
     40 C          -6.5423   -4.4802    0.6457 C.3     1  UNL1       -0.0502
     41 C          -6.1841   -3.6801   -0.6081 C.3     1  UNL1       -0.0371
     42 C          -4.6634   -3.6556   -0.7076 C.3     1  UNL1        0.0147
     43 H           2.2558   -0.8973   -0.1898 H       1  UNL1        0.0579
     44 H           0.4963    1.4205    0.8438 H       1  UNL1        0.0398
     45 H           2.1966    1.1939    1.2417 H       1  UNL1        0.0398
     46 H           2.0111   -1.5388    3.4471 H       1  UNL1        0.2951
     47 H           1.4835    1.7309   -1.0844 H       1  UNL1        0.1489
     48 H           4.7466    3.4660   -2.4563 H       1  UNL1        0.0278
     49 H           4.7331    4.1760   -0.8472 H       1  UNL1        0.0278
     50 H           3.3127    3.2511   -1.3156 H       1  UNL1        0.0278
     51 H           6.5182    3.2585    0.1635 H       1  UNL1        0.0657
     52 H           8.5616    3.1575    0.5516 H       1  UNL1        0.0660
     53 H           9.3560    2.6624    2.1190 H       1  UNL1        0.0660
     54 H           7.5839    3.2312    2.1009 H       1  UNL1        0.0660
     55 H           7.2409   -1.0865    1.9266 H       1  UNL1        0.0279
     56 H           8.1912   -1.1060    0.4244 H       1  UNL1        0.0279
     57 H           6.8078   -2.2004    0.5122 H       1  UNL1        0.0279
     58 H           4.7933   -2.1417    0.1835 H       1  UNL1        0.0278
     59 H           4.0252   -1.9112   -1.3808 H       1  UNL1        0.0278
     60 H           5.8457   -2.1538   -1.2838 H       1  UNL1        0.0278
     61 H          -0.3728   -1.8454   -2.4981 H       1  UNL1        0.2934
     62 H          -1.7878   -2.3792   -1.1821 H       1  UNL1        0.0645
     63 H          -2.2519   -0.3710   -2.5740 H       1  UNL1        0.0339
     64 H          -3.7591   -1.1600   -2.0331 H       1  UNL1        0.0339
     65 H          -5.2534   -0.1474   -0.5454 H       1  UNL1        0.0621
     66 H          -6.0358    1.9776    0.4552 H       1  UNL1        0.0626
     67 H          -2.2940    3.8431   -0.5606 H       1  UNL1        0.0626
     68 H          -1.5650    1.7456   -1.5296 H       1  UNL1        0.0621
     69 H          -3.4220    6.0755   -0.1166 H       1  UNL1        0.2884
     70 H          -4.5022    6.4325   -0.1670 H       1  UNL1        0.2884
     71 H          -6.0812    3.6999    2.0602 H       1  UNL1        0.3633
     72 H          -5.7373   -2.2177    1.5117 H       1  UNL1        0.0464
     73 H          -4.2412   -2.6970    2.4608 H       1  UNL1        0.0464
     74 H          -5.8292   -4.4845    2.6889 H       1  UNL1        0.0280
     75 H          -4.5907   -5.0148    1.4645 H       1  UNL1        0.0280
     76 H          -6.5769   -5.5419    0.3383 H       1  UNL1        0.0266
     77 H          -7.4727   -4.1059    1.0894 H       1  UNL1        0.0266
     78 H          -6.5468   -2.6469   -0.5615 H       1  UNL1        0.0280
     79 H          -6.5814   -4.1598   -1.5104 H       1  UNL1        0.0280
     80 H          -4.3124   -4.6970   -0.5234 H       1  UNL1        0.0464
     81 H          -4.3654   -3.4117   -1.7238 H       1  UNL1        0.0464
@<TRIPOS>BOND
     1     1     2    1
     2     2     3    1
     3     3     4    1
     4     3     5    2
     5     1     6    1
     6     6     7    1
     7     7     8    2
     8     7     9    2
     9     7    10    1
    10    10    11   ar
    11    11    12    1
    12    11    13   ar
    13    13    14   ar
    14    14    15    1
    15    15    16    1
    16    14    17   ar
    17    17    18    1
    18    17    19   ar
    19    19    20    1
    20     1    21    1
    21    21    22    1
    22    21    23    2
    23    23    24    1
    24    24    25    1
    25    25    26    1
    26    26    27   ar
    27    27    28   ar
    28    28    29   ar
    29    29    30   ar
    30    30    31   ar
    31    29    32    1
    32    32    33    1
    33    32    34    2
    34    24    35    1
    35    35    36    2
    36    35    37   am
    37    37    38    1
    38    38    39    1
    39    39    40    1
    40    40    41    1
    41    41    42    1
    42    19    10   ar
    43    31    26   ar
    44    42    37    1
    45     1    43    1
    46     2    44    1
    47     2    45    1
    48     4    46    1
    49     6    47    1
    50    12    48    1
    51    12    49    1
    52    12    50    1
    53    13    51    1
    54    16    52    1
    55    16    53    1
    56    16    54    1
    57    18    55    1
    58    18    56    1
    59    18    57    1
    60    20    58    1
    61    20    59    1
    62    20    60    1
    63    22    61    1
    64    24    62    1
    65    25    63    1
    66    25    64    1
    67    27    65    1
    68    28    66    1
    69    30    67    1
    70    31    68    1
    71    33    69    1
    72    33    70    1
    73    34    71    1
    74    38    72    1
    75    38    73    1
    76    39    74    1
    77    39    75    1
    78    40    76    1
    79    40    77    1
    80    41    78    1
    81    41    79    1
    82    42    80    1
    83    42    81    1
