@<TRIPOS>MOLECULE
*****
 61 66 0 0 0
SMALL
GASTEIGER

@<TRIPOS>ATOM
      1 O          -4.3573   -1.5589   -1.2246 O.2     1  UNL1       -0.2444
      2 C          -3.1806   -1.7760   -0.8364 C.ar    1  UNL1        0.3518
      3 N          -2.4709   -2.9053   -0.8749 N.ar    1  UNL1       -0.2069
      4 C          -2.9227   -4.1750   -1.3934 C.3     1  UNL1        0.0832
      5 C          -1.8363   -5.2096   -1.3360 C.3     1  UNL1       -0.0046
      6 C          -2.6183   -6.4689   -1.0113 C.3     1  UNL1        0.0498
      7 O          -3.5787   -6.0159   -0.1358 O.3     1  UNL1       -0.3776
      8 C          -4.0252   -4.7894   -0.5762 C.3     1  UNL1        0.0702
      9 N          -1.2918   -2.6467   -0.3559 N.ar    1  UNL1       -0.1478
     10 C          -1.2547   -1.3318    0.0173 C.ar    1  UNL1        0.1696
     11 C          -0.1025   -0.7082    0.6257 C.ar    1  UNL1        0.0243
     12 C          -0.1559   -0.1955    1.9011 C.ar    1  UNL1       -0.0327
     13 C           0.9958    0.3955    2.4313 C.ar    1  UNL1        0.0304
     14 N           2.1298    0.4653    1.7209 N.ar    1  UNL1       -0.2405
     15 C           2.2130   -0.0211    0.4859 C.ar    1  UNL1        0.1195
     16 N           3.3939    0.0317   -0.3020 N.pl3   1  UNL1       -0.3261
     17 C           4.5744    0.6410    0.2273 C.3     1  UNL1        0.0261
     18 C           4.4448    2.1018    0.5468 C.3     1  UNL1       -0.0109
     19 C           5.7425    2.5133    1.2540 C.3     1  UNL1        0.0493
     20 O           6.7709    2.3641    0.3443 O.3     1  UNL1       -0.3796
     21 C           6.9804    1.0087    0.0727 C.3     1  UNL1        0.0493
     22 C           5.7908    0.4042   -0.6425 C.3     1  UNL1       -0.0109
     23 C           1.0810   -0.6131   -0.0619 C.ar    1  UNL1       -0.0112
     24 N          -2.4329   -0.7822   -0.2807 N.ar    1  UNL1       -0.2435
     25 C          -2.7674    0.5763   -0.0369 C.ar    1  UNL1        0.0535
     26 C          -4.0290    0.8882    0.4305 C.ar    1  UNL1       -0.0370
     27 C          -4.4259    2.1834    0.6901 C.ar    1  UNL1       -0.0521
     28 C          -3.5103    3.1881    0.4665 C.ar    1  UNL1       -0.0178
     29 C          -3.8511    4.5097    0.7091 C.ar    1  UNL1       -0.0540
     30 C          -2.9538    5.5326    0.4936 C.ar    1  UNL1       -0.0612
     31 C          -1.6789    5.2827    0.0274 C.ar    1  UNL1       -0.0612
     32 C          -1.3319    3.9703   -0.2164 C.ar    1  UNL1       -0.0540
     33 C          -2.2422    2.9388    0.0027 C.ar    1  UNL1       -0.0159
     34 C          -1.8997    1.6175   -0.2404 C.ar    1  UNL1       -0.0299
     35 H          -3.2747   -4.0268   -2.4340 H       1  UNL1        0.0570
     36 H          -1.4300   -5.3548   -2.3611 H       1  UNL1        0.0309
     37 H          -1.0590   -4.9949   -0.5919 H       1  UNL1        0.0309
     38 H          -1.9908   -7.2340   -0.5146 H       1  UNL1        0.0560
     39 H          -3.1230   -6.8381   -1.9150 H       1  UNL1        0.0560
     40 H          -4.9874   -4.8444   -1.1240 H       1  UNL1        0.0581
     41 H          -4.1997   -4.1499    0.3146 H       1  UNL1        0.0581
     42 H          -1.0456   -0.2297    2.5079 H       1  UNL1        0.0640
     43 H           0.9754    0.8009    3.4228 H       1  UNL1        0.0830
     44 H           3.3930   -0.3765   -1.2671 H       1  UNL1        0.1477
     45 H           4.8010    0.1257    1.2028 H       1  UNL1        0.0499
     46 H           3.5763    2.2476    1.2058 H       1  UNL1        0.0305
     47 H           4.3289    2.7064   -0.3894 H       1  UNL1        0.0305
     48 H           5.8857    1.8016    2.0893 H       1  UNL1        0.0560
     49 H           5.6778    3.5617    1.5962 H       1  UNL1        0.0560
     50 H           7.1483    0.4162    0.9954 H       1  UNL1        0.0560
     51 H           7.8547    0.9501   -0.6095 H       1  UNL1        0.0560
     52 H           5.9548   -0.6948   -0.6770 H       1  UNL1        0.0305
     53 H           5.6695    0.7697   -1.6619 H       1  UNL1        0.0305
     54 H           1.1118   -1.0196   -1.0640 H       1  UNL1        0.0659
     55 H          -4.7206    0.0613    0.5930 H       1  UNL1        0.0638
     56 H          -5.4135    2.4225    1.0555 H       1  UNL1        0.0624
     57 H          -4.8663    4.6852    1.0782 H       1  UNL1        0.0624
     58 H          -3.2358    6.5645    0.6886 H       1  UNL1        0.0618
     59 H          -0.9625    6.0900   -0.1455 H       1  UNL1        0.0618
     60 H          -0.3458    3.7304   -0.5814 H       1  UNL1        0.0624
     61 H          -0.9218    1.4139   -0.5991 H       1  UNL1        0.0644
@<TRIPOS>BOND
     1     1     2    2
     2     2     3   ar
     3     3     4    1
     4     4     5    1
     5     5     6    1
     6     6     7    1
     7     7     8    1
     8     3     9   ar
     9     9    10   ar
    10    10    11    1
    11    11    12   ar
    12    12    13   ar
    13    13    14   ar
    14    14    15   ar
    15    15    16    1
    16    16    17    1
    17    17    18    1
    18    18    19    1
    19    19    20    1
    20    20    21    1
    21    21    22    1
    22    15    23   ar
    23    10    24   ar
    24    24    25    1
    25    25    26   ar
    26    26    27   ar
    27    27    28   ar
    28    28    29   ar
    29    29    30   ar
    30    30    31   ar
    31    31    32   ar
    32    32    33   ar
    33    33    34   ar
    34    24     2   ar
    35    34    25   ar
    36     8     4    1
    37    23    11   ar
    38    33    28   ar
    39    22    17    1
    40     4    35    1
    41     5    36    1
    42     5    37    1
    43     6    38    1
    44     6    39    1
    45     8    40    1
    46     8    41    1
    47    12    42    1
    48    13    43    1
    49    16    44    1
    50    17    45    1
    51    18    46    1
    52    18    47    1
    53    19    48    1
    54    19    49    1
    55    21    50    1
    56    21    51    1
    57    22    52    1
    58    22    53    1
    59    23    54    1
    60    26    55    1
    61    27    56    1
    62    29    57    1
    63    30    58    1
    64    31    59    1
    65    32    60    1
    66    34    61    1
