@<TRIPOS>MOLECULE
*****
 51 54 0 0 0
SMALL
GASTEIGER

@<TRIPOS>ATOM
      1 C           7.2327    0.9657   -1.3699 C.3     1  UNL1        0.0790
      2 O           5.9992    0.4099   -1.7853 O.3     1  UNL1       -0.4915
      3 C           4.9689    0.2112   -0.8755 C.ar    1  UNL1        0.1615
      4 C           5.1441    0.5576    0.4473 C.ar    1  UNL1       -0.0157
      5 C           4.0962    0.3444    1.3195 C.ar    1  UNL1       -0.0503
      6 C           2.8855   -0.2065    0.8874 C.ar    1  UNL1       -0.0127
      7 C           1.7858   -0.4310    1.8040 C.ar    1  UNL1        0.0011
      8 C           2.0376   -0.7440    3.1179 C.ar    1  UNL1        0.0376
      9 N           1.0100   -0.9493    3.9621 N.ar    1  UNL1       -0.2369
     10 C          -0.2804   -0.8700    3.6111 C.ar    1  UNL1        0.1387
     11 N          -1.4638   -1.0259    4.2545 N.ar    1  UNL1       -0.3452
     12 C          -2.4597   -0.8188    3.3766 C.ar    1  UNL1        0.0118
     13 C          -1.9458   -0.5224    2.1377 C.ar    1  UNL1        0.0088
     14 C          -2.7131   -0.2415    0.9329 C.ar    1  UNL1       -0.0121
     15 C          -2.3616   -0.8749   -0.2550 C.ar    1  UNL1       -0.0503
     16 C          -3.0519   -0.6390   -1.4154 C.ar    1  UNL1       -0.0157
     17 C          -4.1110    0.2441   -1.3891 C.ar    1  UNL1        0.1615
     18 O          -4.7967    0.4727   -2.5611 O.3     1  UNL1       -0.4915
     19 C          -4.4392   -0.1793   -3.7838 C.3     1  UNL1        0.0790
     20 C          -4.4760    0.8845   -0.2155 C.ar    1  UNL1        0.1621
     21 O          -5.5602    1.7719   -0.2461 O.3     1  UNL1       -0.4914
     22 C          -5.9873    2.4587    0.9119 C.3     1  UNL1        0.0790
     23 C          -3.7784    0.6412    0.9401 C.ar    1  UNL1       -0.0085
     24 C          -0.5797   -0.5535    2.2815 C.ar    1  UNL1        0.0269
     25 C           0.4757   -0.3379    1.3948 C.ar    1  UNL1       -0.0413
     26 C           2.7695   -0.5332   -0.4484 C.ar    1  UNL1       -0.0085
     27 C           3.7914   -0.3368   -1.3533 C.ar    1  UNL1        0.1621
     28 O           3.6414   -0.6786   -2.6994 O.3     1  UNL1       -0.4914
     29 C           2.4441   -1.2344   -3.1766 C.3     1  UNL1        0.0790
     30 H           7.6928    0.3567   -0.5763 H       1  UNL1        0.0660
     31 H           6.9914    1.9844   -0.9627 H       1  UNL1        0.0660
     32 H           7.8934    1.1279   -2.2413 H       1  UNL1        0.0660
     33 H           6.0911    0.9849    0.7686 H       1  UNL1        0.0655
     34 H           4.2356    0.6163    2.3532 H       1  UNL1        0.0625
     35 H           3.0426   -0.8326    3.5023 H       1  UNL1        0.0836
     36 H          -1.5334   -1.2662    5.2617 H       1  UNL1        0.1668
     37 H          -3.5090   -0.8775    3.6134 H       1  UNL1        0.0814
     38 H          -1.5104   -1.5754   -0.2318 H       1  UNL1        0.0625
     39 H          -2.7393   -1.1597   -2.3244 H       1  UNL1        0.0655
     40 H          -5.1330    0.0756   -4.5872 H       1  UNL1        0.0660
     41 H          -3.4327    0.2364   -4.0527 H       1  UNL1        0.0660
     42 H          -4.3240   -1.2592   -3.6125 H       1  UNL1        0.0660
     43 H          -5.3092    3.2765    1.2135 H       1  UNL1        0.0660
     44 H          -7.0252    2.8150    0.6937 H       1  UNL1        0.0660
     45 H          -6.0432    1.7431    1.7590 H       1  UNL1        0.0660
     46 H          -4.0558    1.1385    1.8701 H       1  UNL1        0.0661
     47 H           0.2568   -0.0932    0.3775 H       1  UNL1        0.0631
     48 H           1.8410   -0.9596   -0.7955 H       1  UNL1        0.0661
     49 H           2.4045   -1.2138   -4.2861 H       1  UNL1        0.0660
     50 H           2.2845   -2.2752   -2.7879 H       1  UNL1        0.0660
     51 H           1.6042   -0.6276   -2.7925 H       1  UNL1        0.0660
@<TRIPOS>BOND
     1     1     2    1
     2     2     3    1
     3     3     4   ar
     4     4     5   ar
     5     5     6   ar
     6     6     7    1
     7     7     8   ar
     8     8     9   ar
     9     9    10   ar
    10    10    11   ar
    11    11    12   ar
    12    12    13   ar
    13    13    14    1
    14    14    15   ar
    15    15    16   ar
    16    16    17   ar
    17    17    18    1
    18    18    19    1
    19    17    20   ar
    20    20    21    1
    21    21    22    1
    22    20    23   ar
    23    13    24   ar
    24    24    25   ar
    25     6    26   ar
    26    26    27   ar
    27    27    28    1
    28    28    29    1
    29    27     3   ar
    30    25     7   ar
    31    24    10   ar
    32    23    14   ar
    33     1    30    1
    34     1    31    1
    35     1    32    1
    36     4    33    1
    37     5    34    1
    38     8    35    1
    39    11    36    1
    40    12    37    1
    41    15    38    1
    42    16    39    1
    43    19    40    1
    44    19    41    1
    45    19    42    1
    46    22    43    1
    47    22    44    1
    48    22    45    1
    49    23    46    1
    50    25    47    1
    51    26    48    1
    52    29    49    1
    53    29    50    1
    54    29    51    1
