
     RDKit          3D

 51 54  0  0  0  0  0  0  0  0999 V2000
    7.2327    0.9657   -1.3699 C   0  0  0  0  0  0  0  0  0  0  0  0
    5.9992    0.4099   -1.7853 O   0  0  0  0  0  0  0  0  0  0  0  0
    4.9689    0.2112   -0.8755 C   0  0  0  0  0  0  0  0  0  0  0  0
    5.1441    0.5576    0.4473 C   0  0  0  0  0  0  0  0  0  0  0  0
    4.0962    0.3444    1.3195 C   0  0  0  0  0  0  0  0  0  0  0  0
    2.8855   -0.2065    0.8874 C   0  0  0  0  0  0  0  0  0  0  0  0
    1.7858   -0.4310    1.8040 C   0  0  0  0  0  0  0  0  0  0  0  0
    2.0376   -0.7440    3.1179 C   0  0  0  0  0  0  0  0  0  0  0  0
    1.0100   -0.9493    3.9621 N   0  0  0  0  0  0  0  0  0  0  0  0
   -0.2804   -0.8700    3.6111 C   0  0  0  0  0  0  0  0  0  0  0  0
   -1.4638   -1.0259    4.2545 N   0  0  0  0  0  0  0  0  0  0  0  0
   -2.4597   -0.8188    3.3766 C   0  0  0  0  0  0  0  0  0  0  0  0
   -1.9458   -0.5224    2.1377 C   0  0  0  0  0  0  0  0  0  0  0  0
   -2.7131   -0.2415    0.9329 C   0  0  0  0  0  0  0  0  0  0  0  0
   -2.3616   -0.8749   -0.2550 C   0  0  0  0  0  0  0  0  0  0  0  0
   -3.0519   -0.6390   -1.4154 C   0  0  0  0  0  0  0  0  0  0  0  0
   -4.1110    0.2441   -1.3891 C   0  0  0  0  0  0  0  0  0  0  0  0
   -4.7967    0.4727   -2.5611 O   0  0  0  0  0  0  0  0  0  0  0  0
   -4.4392   -0.1793   -3.7838 C   0  0  0  0  0  0  0  0  0  0  0  0
   -4.4760    0.8845   -0.2155 C   0  0  0  0  0  0  0  0  0  0  0  0
   -5.5602    1.7719   -0.2461 O   0  0  0  0  0  0  0  0  0  0  0  0
   -5.9873    2.4587    0.9119 C   0  0  0  0  0  0  0  0  0  0  0  0
   -3.7784    0.6412    0.9401 C   0  0  0  0  0  0  0  0  0  0  0  0
   -0.5797   -0.5535    2.2815 C   0  0  0  0  0  0  0  0  0  0  0  0
    0.4757   -0.3379    1.3948 C   0  0  0  0  0  0  0  0  0  0  0  0
    2.7695   -0.5332   -0.4484 C   0  0  0  0  0  0  0  0  0  0  0  0
    3.7914   -0.3368   -1.3533 C   0  0  0  0  0  0  0  0  0  0  0  0
    3.6414   -0.6786   -2.6994 O   0  0  0  0  0  0  0  0  0  0  0  0
    2.4441   -1.2344   -3.1766 C   0  0  0  0  0  0  0  0  0  0  0  0
    7.6928    0.3567   -0.5763 H   0  0  0  0  0  0  0  0  0  0  0  0
    6.9914    1.9844   -0.9627 H   0  0  0  0  0  0  0  0  0  0  0  0
    7.8934    1.1279   -2.2413 H   0  0  0  0  0  0  0  0  0  0  0  0
    6.0911    0.9849    0.7686 H   0  0  0  0  0  0  0  0  0  0  0  0
    4.2356    0.6163    2.3532 H   0  0  0  0  0  0  0  0  0  0  0  0
    3.0426   -0.8326    3.5023 H   0  0  0  0  0  0  0  0  0  0  0  0
   -1.5334   -1.2662    5.2617 H   0  0  0  0  0  0  0  0  0  0  0  0
   -3.5090   -0.8775    3.6134 H   0  0  0  0  0  0  0  0  0  0  0  0
   -1.5104   -1.5754   -0.2318 H   0  0  0  0  0  0  0  0  0  0  0  0
   -2.7393   -1.1597   -2.3244 H   0  0  0  0  0  0  0  0  0  0  0  0
   -5.1330    0.0756   -4.5872 H   0  0  0  0  0  0  0  0  0  0  0  0
   -3.4327    0.2364   -4.0527 H   0  0  0  0  0  0  0  0  0  0  0  0
   -4.3240   -1.2592   -3.6125 H   0  0  0  0  0  0  0  0  0  0  0  0
   -5.3092    3.2765    1.2135 H   0  0  0  0  0  0  0  0  0  0  0  0
   -7.0252    2.8150    0.6937 H   0  0  0  0  0  0  0  0  0  0  0  0
   -6.0432    1.7431    1.7590 H   0  0  0  0  0  0  0  0  0  0  0  0
   -4.0558    1.1385    1.8701 H   0  0  0  0  0  0  0  0  0  0  0  0
    0.2568   -0.0932    0.3775 H   0  0  0  0  0  0  0  0  0  0  0  0
    1.8410   -0.9596   -0.7955 H   0  0  0  0  0  0  0  0  0  0  0  0
    2.4045   -1.2138   -4.2861 H   0  0  0  0  0  0  0  0  0  0  0  0
    2.2845   -2.2752   -2.7879 H   0  0  0  0  0  0  0  0  0  0  0  0
    1.6042   -0.6276   -2.7925 H   0  0  0  0  0  0  0  0  0  0  0  0
  1  2  1  0
  2  3  1  0
  3  4  2  0
  4  5  1  0
  5  6  2  0
  6  7  1  0
  7  8  2  0
  8  9  1  0
  9 10  2  0
 10 11  1  0
 11 12  1  0
 12 13  2  0
 13 14  1  0
 14 15  2  0
 15 16  1  0
 16 17  2  0
 17 18  1  0
 18 19  1  0
 17 20  1  0
 20 21  1  0
 21 22  1  0
 20 23  2  0
 13 24  1  0
 24 25  2  0
  6 26  1  0
 26 27  2  0
 27 28  1  0
 28 29  1  0
 27  3  1  0
 25  7  1  0
 24 10  1  0
 23 14  1  0
  1 30  1  0
  1 31  1  0
  1 32  1  0
  4 33  1  0
  5 34  1  0
  8 35  1  0
 11 36  1  0
 12 37  1  0
 15 38  1  0
 16 39  1  0
 19 40  1  0
 19 41  1  0
 19 42  1  0
 22 43  1  0
 22 44  1  0
 22 45  1  0
 23 46  1  0
 25 47  1  0
 26 48  1  0
 29 49  1  0
 29 50  1  0
 29 51  1  0
M  END
$$$$
