@<TRIPOS>MOLECULE
*****
 59 63 0 0 0
SMALL
GASTEIGER

@<TRIPOS>ATOM
      1 C          -2.9488   -4.9729   -0.2638 C.3     1  UNL1        0.0124
      2 C          -3.9952   -3.9480   -0.3025 C.2     1  UNL1        0.2128
      3 O          -5.1815   -4.2824   -0.1237 O.2     1  UNL1       -0.2759
      4 N          -3.6841   -2.5656   -0.5428 N.am    1  UNL1       -0.2968
      5 C          -4.7320   -1.5794   -0.5709 C.3     1  UNL1        0.0204
      6 C          -4.3502   -0.4341    0.3770 C.3     1  UNL1        0.0055
      7 C          -2.9989    0.0910    0.0700 C.ar    1  UNL1        0.0477
      8 C          -2.0718   -0.7675   -0.4647 C.ar    1  UNL1        0.0324
      9 C          -0.8920   -0.0307   -0.6500 C.ar    1  UNL1        0.1498
     10 N           0.2721   -0.5984   -1.2193 N.pl3   1  UNL1       -0.2975
     11 C           1.6058   -0.3943   -0.8648 C.ar    1  UNL1        0.0354
     12 C           2.3138   -1.5362   -0.4736 C.ar    1  UNL1       -0.0397
     13 C           3.6334   -1.4634   -0.1036 C.ar    1  UNL1       -0.0522
     14 C           4.3058   -0.2413   -0.1075 C.ar    1  UNL1       -0.0146
     15 C           5.7053   -0.2201    0.2805 C.ar    1  UNL1        0.0196
     16 C           6.6115   -1.2680    0.0526 C.ar    1  UNL1        0.0571
     17 N           7.7858   -0.8634    0.5590 N.ar    1  UNL1       -0.1793
     18 N           7.7070    0.3484    1.0887 N.ar    1  UNL1       -0.2739
     19 C           8.8060    1.0693    1.7175 C.3     1  UNL1        0.0302
     20 C           6.4279    0.7411    0.9166 C.ar    1  UNL1        0.0329
     21 C           3.5773    0.8614   -0.4986 C.ar    1  UNL1       -0.0493
     22 C           2.2409    0.8108   -0.8780 C.ar    1  UNL1       -0.0287
     23 C           1.5234    2.0754   -1.2942 C.3     1  UNL1       -0.0379
     24 N          -1.1874    1.1790   -0.2261 N.ar    1  UNL1       -0.1551
     25 N          -2.4267    1.3020    0.2101 N.ar    1  UNL1       -0.2608
     26 C          -2.9673    2.5332    0.7058 C.3     1  UNL1        0.0784
     27 C          -3.6563    3.2781   -0.4125 C.3     1  UNL1       -0.0048
     28 C          -4.9517    3.7025    0.1972 C.3     1  UNL1        0.0498
     29 O          -5.2122    2.8498    1.2329 O.3     1  UNL1       -0.3776
     30 C          -4.0105    2.3670    1.7461 C.3     1  UNL1        0.0701
     31 C          -2.3197   -2.2103   -0.7521 C.3     1  UNL1        0.0447
     32 H          -3.3121   -5.9140   -0.7249 H       1  UNL1        0.0323
     33 H          -2.0489   -4.6670   -0.8351 H       1  UNL1        0.0323
     34 H          -2.6526   -5.1567    0.7817 H       1  UNL1        0.0323
     35 H          -5.6708   -1.9986   -0.1878 H       1  UNL1        0.0468
     36 H          -4.8067   -1.1240   -1.5805 H       1  UNL1        0.0468
     37 H          -4.3031   -0.9455    1.3844 H       1  UNL1        0.0343
     38 H          -5.1573    0.2867    0.3076 H       1  UNL1        0.0343
     39 H           0.1276   -1.2778   -2.0390 H       1  UNL1        0.1536
     40 H           1.8409   -2.5076   -0.4537 H       1  UNL1        0.0636
     41 H           4.1875   -2.3374    0.2000 H       1  UNL1        0.0624
     42 H           6.3475   -2.1823   -0.4366 H       1  UNL1        0.0854
     43 H           9.0396    1.9766    1.1259 H       1  UNL1        0.0473
     44 H           9.7182    0.4390    1.6990 H       1  UNL1        0.0473
     45 H           8.5062    1.3792    2.7179 H       1  UNL1        0.0473
     46 H           6.0462    1.6973    1.2491 H       1  UNL1        0.0832
     47 H           4.0736    1.8055   -0.5082 H       1  UNL1        0.0627
     48 H           1.1760    2.6469   -0.4317 H       1  UNL1        0.0278
     49 H           0.8000    1.8435   -2.0710 H       1  UNL1        0.0278
     50 H           2.2961    2.7431   -1.7852 H       1  UNL1        0.0278
     51 H          -2.1545    3.1774    1.0997 H       1  UNL1        0.0568
     52 H          -3.7563    2.6241   -1.2985 H       1  UNL1        0.0309
     53 H          -3.0658    4.1626   -0.7322 H       1  UNL1        0.0309
     54 H          -5.7310    3.5962   -0.5945 H       1  UNL1        0.0560
     55 H          -4.8672    4.7699    0.4861 H       1  UNL1        0.0560
     56 H          -4.1172    1.3677    2.1802 H       1  UNL1        0.0581
     57 H          -3.7960    3.0504    2.6236 H       1  UNL1        0.0581
     58 H          -1.7165   -2.8498   -0.0529 H       1  UNL1        0.0515
     59 H          -1.9332   -2.4383   -1.7637 H       1  UNL1        0.0515
@<TRIPOS>BOND
     1     1     2    1
     2     2     3    2
     3     2     4   am
     4     4     5    1
     5     5     6    1
     6     6     7    1
     7     7     8   ar
     8     8     9   ar
     9     9    10    1
    10    10    11    1
    11    11    12   ar
    12    12    13   ar
    13    13    14   ar
    14    14    15    1
    15    15    16   ar
    16    16    17   ar
    17    17    18   ar
    18    18    19    1
    19    18    20   ar
    20    14    21   ar
    21    21    22   ar
    22    22    23    1
    23     9    24   ar
    24    24    25   ar
    25    25    26    1
    26    26    27    1
    27    27    28    1
    28    28    29    1
    29    29    30    1
    30     8    31    1
    31    31     4    1
    32    25     7   ar
    33    30    26    1
    34    22    11   ar
    35    20    15   ar
    36     1    32    1
    37     1    33    1
    38     1    34    1
    39     5    35    1
    40     5    36    1
    41     6    37    1
    42     6    38    1
    43    10    39    1
    44    12    40    1
    45    13    41    1
    46    16    42    1
    47    19    43    1
    48    19    44    1
    49    19    45    1
    50    20    46    1
    51    21    47    1
    52    23    48    1
    53    23    49    1
    54    23    50    1
    55    26    51    1
    56    27    52    1
    57    27    53    1
    58    28    54    1
    59    28    55    1
    60    30    56    1
    61    30    57    1
    62    31    58    1
    63    31    59    1
