
     RDKit          3D

 59 63  0  0  0  0  0  0  0  0999 V2000
   -2.9488   -4.9729   -0.2638 C   0  0  0  0  0  0  0  0  0  0  0  0
   -3.9952   -3.9480   -0.3025 C   0  0  0  0  0  0  0  0  0  0  0  0
   -5.1815   -4.2824   -0.1237 O   0  0  0  0  0  0  0  0  0  0  0  0
   -3.6841   -2.5656   -0.5428 N   0  0  0  0  0  0  0  0  0  0  0  0
   -4.7320   -1.5794   -0.5709 C   0  0  0  0  0  0  0  0  0  0  0  0
   -4.3502   -0.4341    0.3770 C   0  0  0  0  0  0  0  0  0  0  0  0
   -2.9989    0.0910    0.0700 C   0  0  0  0  0  0  0  0  0  0  0  0
   -2.0718   -0.7675   -0.4647 C   0  0  0  0  0  0  0  0  0  0  0  0
   -0.8920   -0.0307   -0.6500 C   0  0  0  0  0  0  0  0  0  0  0  0
    0.2721   -0.5984   -1.2193 N   0  0  0  0  0  0  0  0  0  0  0  0
    1.6058   -0.3943   -0.8648 C   0  0  0  0  0  0  0  0  0  0  0  0
    2.3138   -1.5362   -0.4736 C   0  0  0  0  0  0  0  0  0  0  0  0
    3.6334   -1.4634   -0.1036 C   0  0  0  0  0  0  0  0  0  0  0  0
    4.3058   -0.2413   -0.1075 C   0  0  0  0  0  0  0  0  0  0  0  0
    5.7053   -0.2201    0.2805 C   0  0  0  0  0  0  0  0  0  0  0  0
    6.6115   -1.2680    0.0526 C   0  0  0  0  0  0  0  0  0  0  0  0
    7.7858   -0.8634    0.5590 N   0  0  0  0  0  0  0  0  0  0  0  0
    7.7070    0.3484    1.0887 N   0  0  0  0  0  0  0  0  0  0  0  0
    8.8060    1.0693    1.7175 C   0  0  0  0  0  0  0  0  0  0  0  0
    6.4279    0.7411    0.9166 C   0  0  0  0  0  0  0  0  0  0  0  0
    3.5773    0.8614   -0.4986 C   0  0  0  0  0  0  0  0  0  0  0  0
    2.2409    0.8108   -0.8780 C   0  0  0  0  0  0  0  0  0  0  0  0
    1.5234    2.0754   -1.2942 C   0  0  0  0  0  0  0  0  0  0  0  0
   -1.1874    1.1790   -0.2261 N   0  0  0  0  0  0  0  0  0  0  0  0
   -2.4267    1.3020    0.2101 N   0  0  0  0  0  0  0  0  0  0  0  0
   -2.9673    2.5332    0.7058 C   0  0  0  0  0  0  0  0  0  0  0  0
   -3.6563    3.2781   -0.4125 C   0  0  0  0  0  0  0  0  0  0  0  0
   -4.9517    3.7025    0.1972 C   0  0  0  0  0  0  0  0  0  0  0  0
   -5.2122    2.8498    1.2329 O   0  0  0  0  0  0  0  0  0  0  0  0
   -4.0105    2.3670    1.7461 C   0  0  0  0  0  0  0  0  0  0  0  0
   -2.3197   -2.2103   -0.7521 C   0  0  0  0  0  0  0  0  0  0  0  0
   -3.3121   -5.9140   -0.7249 H   0  0  0  0  0  0  0  0  0  0  0  0
   -2.0489   -4.6670   -0.8351 H   0  0  0  0  0  0  0  0  0  0  0  0
   -2.6526   -5.1567    0.7817 H   0  0  0  0  0  0  0  0  0  0  0  0
   -5.6708   -1.9986   -0.1878 H   0  0  0  0  0  0  0  0  0  0  0  0
   -4.8067   -1.1240   -1.5805 H   0  0  0  0  0  0  0  0  0  0  0  0
   -4.3031   -0.9455    1.3844 H   0  0  0  0  0  0  0  0  0  0  0  0
   -5.1573    0.2867    0.3076 H   0  0  0  0  0  0  0  0  0  0  0  0
    0.1276   -1.2778   -2.0390 H   0  0  0  0  0  0  0  0  0  0  0  0
    1.8409   -2.5076   -0.4537 H   0  0  0  0  0  0  0  0  0  0  0  0
    4.1875   -2.3374    0.2000 H   0  0  0  0  0  0  0  0  0  0  0  0
    6.3475   -2.1823   -0.4366 H   0  0  0  0  0  0  0  0  0  0  0  0
    9.0396    1.9766    1.1259 H   0  0  0  0  0  0  0  0  0  0  0  0
    9.7182    0.4390    1.6990 H   0  0  0  0  0  0  0  0  0  0  0  0
    8.5062    1.3792    2.7179 H   0  0  0  0  0  0  0  0  0  0  0  0
    6.0462    1.6973    1.2491 H   0  0  0  0  0  0  0  0  0  0  0  0
    4.0736    1.8055   -0.5082 H   0  0  0  0  0  0  0  0  0  0  0  0
    1.1760    2.6469   -0.4317 H   0  0  0  0  0  0  0  0  0  0  0  0
    0.8000    1.8435   -2.0710 H   0  0  0  0  0  0  0  0  0  0  0  0
    2.2961    2.7431   -1.7852 H   0  0  0  0  0  0  0  0  0  0  0  0
   -2.1545    3.1774    1.0997 H   0  0  0  0  0  0  0  0  0  0  0  0
   -3.7563    2.6241   -1.2985 H   0  0  0  0  0  0  0  0  0  0  0  0
   -3.0658    4.1626   -0.7322 H   0  0  0  0  0  0  0  0  0  0  0  0
   -5.7310    3.5962   -0.5945 H   0  0  0  0  0  0  0  0  0  0  0  0
   -4.8672    4.7699    0.4861 H   0  0  0  0  0  0  0  0  0  0  0  0
   -4.1172    1.3677    2.1802 H   0  0  0  0  0  0  0  0  0  0  0  0
   -3.7960    3.0504    2.6236 H   0  0  0  0  0  0  0  0  0  0  0  0
   -1.7165   -2.8498   -0.0529 H   0  0  0  0  0  0  0  0  0  0  0  0
   -1.9332   -2.4383   -1.7637 H   0  0  0  0  0  0  0  0  0  0  0  0
  1  2  1  0
  2  3  2  0
  2  4  1  0
  4  5  1  0
  5  6  1  0
  6  7  1  0
  7  8  2  0
  8  9  1  0
  9 10  1  0
 10 11  1  0
 11 12  2  0
 12 13  1  0
 13 14  2  0
 14 15  1  0
 15 16  1  0
 16 17  2  0
 17 18  1  0
 18 19  1  0
 18 20  1  0
 14 21  1  0
 21 22  2  0
 22 23  1  0
  9 24  2  0
 24 25  1  0
 25 26  1  0
 26 27  1  0
 27 28  1  0
 28 29  1  0
 29 30  1  0
  8 31  1  0
 31  4  1  0
 25  7  1  0
 30 26  1  0
 22 11  1  0
 20 15  2  0
  1 32  1  0
  1 33  1  0
  1 34  1  0
  5 35  1  0
  5 36  1  0
  6 37  1  0
  6 38  1  0
 10 39  1  0
 12 40  1  0
 13 41  1  0
 16 42  1  0
 19 43  1  0
 19 44  1  0
 19 45  1  0
 20 46  1  0
 21 47  1  0
 23 48  1  0
 23 49  1  0
 23 50  1  0
 26 51  1  0
 27 52  1  0
 27 53  1  0
 28 54  1  0
 28 55  1  0
 30 56  1  0
 30 57  1  0
 31 58  1  0
 31 59  1  0
M  END
$$$$
