@<TRIPOS>MOLECULE
*****
 46 48 0 0 0
SMALL
GASTEIGER

@<TRIPOS>ATOM
      1 C           6.2266   -0.2313   -1.6760 C.3     1  UNL1       -0.0652
      2 C           6.2432    0.8482   -0.6540 C.3     1  UNL1       -0.0544
      3 C           5.0018    1.5765   -0.4248 C.3     1  UNL1       -0.0324
      4 C           3.7857    0.9846    0.1491 C.3     1  UNL1        0.0817
      5 S           3.0451   -0.3097   -0.6930 S.O2    1  UNL1        0.0296
      6 O           2.7329    0.0388   -2.1058 O.2     1  UNL1       -0.1582
      7 O           3.9429   -1.5353   -0.6843 O.2     1  UNL1       -0.1582
      8 N           1.5649   -0.8521    0.0475 N.3     1  UNL1       -0.1913
      9 C           0.5683    0.1617    0.0932 C.3     1  UNL1        0.0318
     10 C          -0.7132   -0.3314   -0.5909 C.3     1  UNL1       -0.0172
     11 C          -1.4771    0.0919    0.6266 C.3     1  UNL1        0.0275
     12 N          -2.4435   -0.8288    1.1541 N.pl3   1  UNL1       -0.3145
     13 C          -2.0257   -2.1655    1.5446 C.3     1  UNL1        0.0023
     14 C          -3.7943   -0.4496    1.3084 C.ar    1  UNL1        0.1337
     15 N          -4.3792   -0.4167    2.5156 N.ar    1  UNL1       -0.2200
     16 C          -5.6573   -0.0574    2.6998 C.ar    1  UNL1        0.1204
     17 N          -6.3981    0.2869    1.6437 N.ar    1  UNL1       -0.2178
     18 C          -5.9031    0.2846    0.4025 C.ar    1  UNL1        0.1432
     19 N          -6.3988    0.5734   -0.8175 N.ar    1  UNL1       -0.3457
     20 C          -5.4627    0.4033   -1.7583 C.ar    1  UNL1        0.0042
     21 C          -4.3271   -0.0092   -1.1174 C.ar    1  UNL1       -0.0318
     22 C          -4.5629   -0.0940    0.2250 C.ar    1  UNL1        0.0585
     23 C          -0.2098    0.2718    1.4006 C.3     1  UNL1       -0.0172
     24 H           5.4051   -0.1886   -2.3826 H       1  UNL1        0.0230
     25 H           7.1608   -0.0901   -2.3600 H       1  UNL1        0.0230
     26 H           6.4479   -1.2503   -1.2647 H       1  UNL1        0.0230
     27 H           7.0585    1.6020   -0.9462 H       1  UNL1        0.0263
     28 H           6.5857    0.4286    0.3443 H       1  UNL1        0.0263
     29 H           4.7392    2.1094   -1.4326 H       1  UNL1        0.0281
     30 H           5.2921    2.5368    0.1705 H       1  UNL1        0.0281
     31 H           3.0815    1.8510    0.3594 H       1  UNL1        0.0515
     32 H           4.0856    0.5972    1.1978 H       1  UNL1        0.0515
     33 H           1.7225   -1.2920    0.9618 H       1  UNL1        0.1479
     34 H           0.8246    1.1424   -0.3261 H       1  UNL1        0.0478
     35 H          -0.9500    0.1961   -1.5337 H       1  UNL1        0.0299
     36 H          -0.7276   -1.4232   -0.7703 H       1  UNL1        0.0299
     37 H          -1.9287    1.1037    0.4315 H       1  UNL1        0.0501
     38 H          -1.0490   -2.1786    2.0648 H       1  UNL1        0.0428
     39 H          -1.9051   -2.8293    0.6541 H       1  UNL1        0.0428
     40 H          -2.7666   -2.5601    2.2694 H       1  UNL1        0.0428
     41 H          -6.0670   -0.0513    3.6906 H       1  UNL1        0.1048
     42 H          -7.3875    0.8897   -1.0051 H       1  UNL1        0.1668
     43 H          -5.5632    0.5573   -2.8313 H       1  UNL1        0.0807
     44 H          -3.3971   -0.2327   -1.5942 H       1  UNL1        0.0640
     45 H           0.0429   -0.4621    2.1623 H       1  UNL1        0.0299
     46 H          -0.0635    1.3033    1.8379 H       1  UNL1        0.0299
@<TRIPOS>BOND
     1     1     2    1
     2     2     3    1
     3     3     4    1
     4     4     5    1
     5     5     6    2
     6     5     7    2
     7     5     8    1
     8     8     9    1
     9     9    10    1
    10    10    11    1
    11    11    12    1
    12    12    13    1
    13    12    14    1
    14    14    15   ar
    15    15    16   ar
    16    16    17   ar
    17    17    18   ar
    18    18    19   ar
    19    19    20   ar
    20    20    21   ar
    21    21    22   ar
    22    11    23    1
    23    23     9    1
    24    22    14   ar
    25    22    18   ar
    26     1    24    1
    27     1    25    1
    28     1    26    1
    29     2    27    1
    30     2    28    1
    31     3    29    1
    32     3    30    1
    33     4    31    1
    34     4    32    1
    35     8    33    1
    36     9    34    1
    37    10    35    1
    38    10    36    1
    39    11    37    1
    40    13    38    1
    41    13    39    1
    42    13    40    1
    43    16    41    1
    44    19    42    1
    45    20    43    1
    46    21    44    1
    47    23    45    1
    48    23    46    1
