@<TRIPOS>MOLECULE
*****
 34 37 0 0 0
SMALL
GASTEIGER

@<TRIPOS>ATOM
      1 O          -0.1408   -3.8278    0.5031 O.2     1  UNL1       -0.2869
      2 C           0.0120   -2.6082    0.3491 C.ar    1  UNL1        0.1966
      3 C           1.2664   -1.9922    0.2666 C.ar    1  UNL1        0.0288
      4 C           1.3680   -0.6354    0.0955 C.ar    1  UNL1        0.1393
      5 C           2.6527    0.0574    0.0032 C.ar    1  UNL1        0.0174
      6 C           3.8700   -0.5749    0.0779 C.ar    1  UNL1       -0.0511
      7 C           5.0803    0.0945   -0.0112 C.ar    1  UNL1       -0.0611
      8 C           5.0990    1.4567   -0.1826 C.ar    1  UNL1       -0.0617
      9 C           3.8857    2.1224   -0.2614 C.ar    1  UNL1       -0.0611
     10 C           2.6928    1.4458   -0.1715 C.ar    1  UNL1       -0.0511
     11 O           0.2690    0.0653    0.0118 O.2     1  UNL1       -0.4538
     12 C          -0.9276   -0.4559    0.0822 C.ar    1  UNL1        0.1534
     13 C          -2.0491    0.3693   -0.0171 C.ar    1  UNL1        0.0596
     14 C          -3.3131   -0.1752    0.0565 C.ar    1  UNL1        0.1351
     15 C          -3.4827   -1.5553    0.2307 C.ar    1  UNL1        0.0231
     16 C          -2.3826   -2.3732    0.3292 C.ar    1  UNL1        0.1347
     17 O          -2.5607   -3.7391    0.5017 O.3     1  UNL1       -0.5058
     18 C          -1.1218   -1.8083    0.2531 C.ar    1  UNL1        0.1061
     19 O          -4.3994    0.6605   -0.0443 O.3     1  UNL1       -0.4871
     20 C          -4.3477    2.0500   -0.2193 C.3     1  UNL1        0.1082
     21 C          -2.9580    2.5631   -0.2894 C.2     1  UNL1       -0.0463
     22 C          -1.8998    1.8101   -0.1989 C.2     1  UNL1       -0.0483
     23 H           2.1395   -2.6121    0.3411 H       1  UNL1        0.0693
     24 H           3.8992   -1.6481    0.2127 H       1  UNL1        0.0625
     25 H           6.0243   -0.4224    0.0500 H       1  UNL1        0.0618
     26 H           5.9973    2.0314   -0.2585 H       1  UNL1        0.0618
     27 H           3.8194    3.2022   -0.3970 H       1  UNL1        0.0618
     28 H           1.7490    1.9752   -0.2343 H       1  UNL1        0.0625
     29 H          -4.5029   -1.9392    0.2831 H       1  UNL1        0.0691
     30 H          -2.2857   -4.3311   -0.2782 H       1  UNL1        0.2922
     31 H          -4.8272    2.5686    0.6533 H       1  UNL1        0.0742
     32 H          -4.8937    2.3710   -1.1284 H       1  UNL1        0.0742
     33 H          -2.8389    3.6445   -0.4259 H       1  UNL1        0.0606
     34 H          -0.8931    2.2104   -0.2533 H       1  UNL1        0.0624
@<TRIPOS>BOND
     1     1     2    2
     2     2     3   ar
     3     3     4   ar
     4     4     5    1
     5     5     6   ar
     6     6     7   ar
     7     7     8   ar
     8     8     9   ar
     9     9    10   ar
    10     4    11   ar
    11    11    12   ar
    12    12    13   ar
    13    13    14   ar
    14    14    15   ar
    15    15    16   ar
    16    16    17    1
    17    16    18   ar
    18    14    19    1
    19    19    20    1
    20    20    21    1
    21    21    22    2
    22    18     2   ar
    23    10     5   ar
    24    18    12   ar
    25    22    13    1
    26     3    23    1
    27     6    24    1
    28     7    25    1
    29     8    26    1
    30     9    27    1
    31    10    28    1
    32    15    29    1
    33    17    30    1
    34    20    31    1
    35    20    32    1
    36    21    33    1
    37    22    34    1
