
     RDKit          3D

 34 37  0  0  0  0  0  0  0  0999 V2000
   -0.1408   -3.8278    0.5031 O   0  0  0  0  0  0  0  0  0  0  0  0
    0.0120   -2.6082    0.3491 C   0  0  0  0  0  0  0  0  0  0  0  0
    1.2664   -1.9922    0.2666 C   0  0  0  0  0  0  0  0  0  0  0  0
    1.3680   -0.6354    0.0955 C   0  0  0  0  0  0  0  0  0  0  0  0
    2.6527    0.0574    0.0032 C   0  0  0  0  0  0  0  0  0  0  0  0
    3.8700   -0.5749    0.0779 C   0  0  0  0  0  0  0  0  0  0  0  0
    5.0803    0.0945   -0.0112 C   0  0  0  0  0  0  0  0  0  0  0  0
    5.0990    1.4567   -0.1826 C   0  0  0  0  0  0  0  0  0  0  0  0
    3.8857    2.1224   -0.2614 C   0  0  0  0  0  0  0  0  0  0  0  0
    2.6928    1.4458   -0.1715 C   0  0  0  0  0  0  0  0  0  0  0  0
    0.2690    0.0653    0.0118 O   0  0  0  0  0  0  0  0  0  0  0  0
   -0.9276   -0.4559    0.0822 C   0  0  0  0  0  0  0  0  0  0  0  0
   -2.0491    0.3693   -0.0171 C   0  0  0  0  0  0  0  0  0  0  0  0
   -3.3131   -0.1752    0.0565 C   0  0  0  0  0  0  0  0  0  0  0  0
   -3.4827   -1.5553    0.2307 C   0  0  0  0  0  0  0  0  0  0  0  0
   -2.3826   -2.3732    0.3292 C   0  0  0  0  0  0  0  0  0  0  0  0
   -2.5607   -3.7391    0.5017 O   0  0  0  0  0  0  0  0  0  0  0  0
   -1.1218   -1.8083    0.2531 C   0  0  0  0  0  0  0  0  0  0  0  0
   -4.3994    0.6605   -0.0443 O   0  0  0  0  0  0  0  0  0  0  0  0
   -4.3477    2.0500   -0.2193 C   0  0  0  0  0  0  0  0  0  0  0  0
   -2.9580    2.5631   -0.2894 C   0  0  0  0  0  0  0  0  0  0  0  0
   -1.8998    1.8101   -0.1989 C   0  0  0  0  0  0  0  0  0  0  0  0
    2.1395   -2.6121    0.3411 H   0  0  0  0  0  0  0  0  0  0  0  0
    3.8992   -1.6481    0.2127 H   0  0  0  0  0  0  0  0  0  0  0  0
    6.0243   -0.4224    0.0500 H   0  0  0  0  0  0  0  0  0  0  0  0
    5.9973    2.0314   -0.2585 H   0  0  0  0  0  0  0  0  0  0  0  0
    3.8194    3.2022   -0.3970 H   0  0  0  0  0  0  0  0  0  0  0  0
    1.7490    1.9752   -0.2343 H   0  0  0  0  0  0  0  0  0  0  0  0
   -4.5029   -1.9392    0.2831 H   0  0  0  0  0  0  0  0  0  0  0  0
   -2.2857   -4.3311   -0.2782 H   0  0  0  0  0  0  0  0  0  0  0  0
   -4.8272    2.5686    0.6533 H   0  0  0  0  0  0  0  0  0  0  0  0
   -4.8937    2.3710   -1.1284 H   0  0  0  0  0  0  0  0  0  0  0  0
   -2.8389    3.6445   -0.4259 H   0  0  0  0  0  0  0  0  0  0  0  0
   -0.8931    2.2104   -0.2533 H   0  0  0  0  0  0  0  0  0  0  0  0
  1  2  2  0
  2  3  1  0
  3  4  2  0
  4  5  1  0
  5  6  2  0
  6  7  1  0
  7  8  2  0
  8  9  1  0
  9 10  2  0
  4 11  1  0
 11 12  1  0
 12 13  2  0
 13 14  1  0
 14 15  2  0
 15 16  1  0
 16 17  1  0
 16 18  2  0
 14 19  1  0
 19 20  1  0
 20 21  1  0
 21 22  2  0
 18  2  1  0
 10  5  1  0
 18 12  1  0
 22 13  1  0
  3 23  1  0
  6 24  1  0
  7 25  1  0
  8 26  1  0
  9 27  1  0
 10 28  1  0
 15 29  1  0
 17 30  1  0
 20 31  1  0
 20 32  1  0
 21 33  1  0
 22 34  1  0
M  END
$$$$
