@<TRIPOS>MOLECULE
*****
 31 33 0 0 0
SMALL
GASTEIGER

@<TRIPOS>ATOM
      1 O           1.0747    0.8578    0.8036 O.2     1  UNL1       -0.2696
      2 C           0.6958    0.0143   -0.0910 C.2     1  UNL1        0.2552
      3 N           1.6447   -0.7222   -0.8197 N.am    1  UNL1       -0.2813
      4 C           3.0348   -0.4826   -0.5130 C.ar    1  UNL1        0.0338
      5 C           3.6694   -1.2235    0.4559 C.ar    1  UNL1       -0.0378
      6 C           4.9747   -1.0285    0.7731 C.ar    1  UNL1       -0.0247
      7 C           5.6902   -0.0454    0.0930 C.ar    1  UNL1        0.1235
      8 F           6.9971    0.1333    0.4268 F       1  UNL1       -0.2055
      9 C           5.0851    0.7107   -0.8792 C.ar    1  UNL1       -0.0247
     10 C           3.7562    0.4835   -1.1742 C.ar    1  UNL1       -0.0378
     11 C          -0.7285   -0.1423   -0.3126 C.ar    1  UNL1        0.1219
     12 C          -1.6244    0.6278    0.4533 C.ar    1  UNL1       -0.0320
     13 C          -2.9807    0.5545    0.3213 C.ar    1  UNL1        0.0183
     14 C          -3.8511    1.3162    1.0795 C.ar    1  UNL1       -0.0511
     15 C          -5.2174    1.2326    0.9364 C.ar    1  UNL1       -0.0610
     16 C          -5.7235    0.3404   -0.0141 C.ar    1  UNL1       -0.0582
     17 C          -4.8397   -0.4112   -0.7612 C.ar    1  UNL1       -0.0186
     18 C          -3.4690   -0.3345   -0.6251 C.ar    1  UNL1        0.1391
     19 O          -2.6572   -1.0577   -1.3455 O.2     1  UNL1       -0.4216
     20 C          -1.3304   -0.9806   -1.2109 C.ar    1  UNL1        0.3495
     21 O          -0.6052   -1.7090   -1.9402 O.2     1  UNL1       -0.2443
     22 H           1.4476   -1.4166   -1.5514 H       1  UNL1        0.1551
     23 H           3.1189   -2.0027    1.0014 H       1  UNL1        0.0637
     24 H           5.4884   -1.6001    1.5299 H       1  UNL1        0.0647
     25 H           5.6395    1.4757   -1.4094 H       1  UNL1        0.0647
     26 H           3.3032    1.0966   -1.9479 H       1  UNL1        0.0637
     27 H          -1.2148    1.3064    1.1773 H       1  UNL1        0.0634
     28 H          -3.4329    1.9956    1.8047 H       1  UNL1        0.0625
     29 H          -5.8599    1.8298    1.5324 H       1  UNL1        0.0618
     30 H          -6.8018    0.2721   -0.1295 H       1  UNL1        0.0619
     31 H          -5.2836   -1.0903   -1.4872 H       1  UNL1        0.0654
@<TRIPOS>BOND
     1     1     2    2
     2     2     3   am
     3     3     4    1
     4     4     5   ar
     5     5     6   ar
     6     6     7   ar
     7     7     8    1
     8     7     9   ar
     9     9    10   ar
    10     2    11    1
    11    11    12   ar
    12    12    13   ar
    13    13    14   ar
    14    14    15   ar
    15    15    16   ar
    16    16    17   ar
    17    17    18   ar
    18    18    19   ar
    19    19    20   ar
    20    20    21    2
    21    10     4   ar
    22    20    11   ar
    23    18    13   ar
    24     3    22    1
    25     5    23    1
    26     6    24    1
    27     9    25    1
    28    10    26    1
    29    12    27    1
    30    14    28    1
    31    15    29    1
    32    16    30    1
    33    17    31    1
