
     RDKit          3D

 31 33  0  0  0  0  0  0  0  0999 V2000
    1.0747    0.8578    0.8036 O   0  0  0  0  0  0  0  0  0  0  0  0
    0.6958    0.0143   -0.0910 C   0  0  0  0  0  0  0  0  0  0  0  0
    1.6447   -0.7222   -0.8197 N   0  0  0  0  0  0  0  0  0  0  0  0
    3.0348   -0.4826   -0.5130 C   0  0  0  0  0  0  0  0  0  0  0  0
    3.6694   -1.2235    0.4559 C   0  0  0  0  0  0  0  0  0  0  0  0
    4.9747   -1.0285    0.7731 C   0  0  0  0  0  0  0  0  0  0  0  0
    5.6902   -0.0454    0.0930 C   0  0  0  0  0  0  0  0  0  0  0  0
    6.9971    0.1333    0.4268 F   0  0  0  0  0  0  0  0  0  0  0  0
    5.0851    0.7107   -0.8792 C   0  0  0  0  0  0  0  0  0  0  0  0
    3.7562    0.4835   -1.1742 C   0  0  0  0  0  0  0  0  0  0  0  0
   -0.7285   -0.1423   -0.3126 C   0  0  0  0  0  0  0  0  0  0  0  0
   -1.6244    0.6278    0.4533 C   0  0  0  0  0  0  0  0  0  0  0  0
   -2.9807    0.5545    0.3213 C   0  0  0  0  0  0  0  0  0  0  0  0
   -3.8511    1.3162    1.0795 C   0  0  0  0  0  0  0  0  0  0  0  0
   -5.2174    1.2326    0.9364 C   0  0  0  0  0  0  0  0  0  0  0  0
   -5.7235    0.3404   -0.0141 C   0  0  0  0  0  0  0  0  0  0  0  0
   -4.8397   -0.4112   -0.7612 C   0  0  0  0  0  0  0  0  0  0  0  0
   -3.4690   -0.3345   -0.6251 C   0  0  0  0  0  0  0  0  0  0  0  0
   -2.6572   -1.0577   -1.3455 O   0  0  0  0  0  0  0  0  0  0  0  0
   -1.3304   -0.9806   -1.2109 C   0  0  0  0  0  0  0  0  0  0  0  0
   -0.6052   -1.7090   -1.9402 O   0  0  0  0  0  0  0  0  0  0  0  0
    1.4476   -1.4166   -1.5514 H   0  0  0  0  0  0  0  0  0  0  0  0
    3.1189   -2.0027    1.0014 H   0  0  0  0  0  0  0  0  0  0  0  0
    5.4884   -1.6001    1.5299 H   0  0  0  0  0  0  0  0  0  0  0  0
    5.6395    1.4757   -1.4094 H   0  0  0  0  0  0  0  0  0  0  0  0
    3.3032    1.0966   -1.9479 H   0  0  0  0  0  0  0  0  0  0  0  0
   -1.2148    1.3064    1.1773 H   0  0  0  0  0  0  0  0  0  0  0  0
   -3.4329    1.9956    1.8047 H   0  0  0  0  0  0  0  0  0  0  0  0
   -5.8599    1.8298    1.5324 H   0  0  0  0  0  0  0  0  0  0  0  0
   -6.8018    0.2721   -0.1295 H   0  0  0  0  0  0  0  0  0  0  0  0
   -5.2836   -1.0903   -1.4872 H   0  0  0  0  0  0  0  0  0  0  0  0
  1  2  2  0
  2  3  1  0
  3  4  1  0
  4  5  2  0
  5  6  1  0
  6  7  2  0
  7  8  1  0
  7  9  1  0
  9 10  2  0
  2 11  1  0
 11 12  2  0
 12 13  1  0
 13 14  2  0
 14 15  1  0
 15 16  2  0
 16 17  1  0
 17 18  2  0
 18 19  1  0
 19 20  1  0
 20 21  2  0
 10  4  1  0
 20 11  1  0
 18 13  1  0
  3 22  1  0
  5 23  1  0
  6 24  1  0
  9 25  1  0
 10 26  1  0
 12 27  1  0
 14 28  1  0
 15 29  1  0
 16 30  1  0
 17 31  1  0
M  END
$$$$
