@<TRIPOS>MOLECULE
*****
 31 31 0 0 0
SMALL
GASTEIGER

@<TRIPOS>ATOM
      1 O          -0.8820   -1.4418   -2.1935 O.2     1  UNL1       -0.1482
      2 N           0.1080   -0.8338   -1.9932 N.2     1  UNL1       -0.0559
      3 C           0.4181   -0.4687   -0.6508 C.3     1  UNL1        0.1713
      4 C          -0.4912    0.6083   -0.1164 C.3     1  UNL1        0.0067
      5 C          -1.9021    0.2446   -0.0979 C.ar    1  UNL1       -0.0435
      6 C          -2.4397   -0.3663    1.0137 C.ar    1  UNL1       -0.0550
      7 C          -3.7773   -0.7301    1.0755 C.ar    1  UNL1       -0.0188
      8 C          -4.5811   -0.4661   -0.0158 C.ar    1  UNL1        0.1308
      9 O          -5.9170   -0.8335    0.0557 O.3     1  UNL1       -0.5057
     10 C          -4.0878    0.1351   -1.1307 C.ar    1  UNL1        0.0595
     11 BR         -5.2788    0.4562   -2.5838 Br      1  UNL1       -0.0465
     12 C          -2.7525    0.4829   -1.1565 C.ar    1  UNL1       -0.0410
     13 C           1.8351    0.0417   -0.5677 C.2     1  UNL1        0.2413
     14 O           2.4904    0.0982   -1.6189 O.2     1  UNL1       -0.2733
     15 N           2.4203    0.4463    0.6445 N.am    1  UNL1       -0.3127
     16 C           3.7262    0.9348    0.8987 C.3     1  UNL1        0.0204
     17 C           4.8941    0.0702    0.6555 C.3     1  UNL1        0.0063
     18 S           5.0526   -0.4259   -1.0579 S.3     1  UNL1       -0.1767
     19 H           0.3839   -1.3912   -0.0364 H       1  UNL1        0.0679
     20 H          -0.3375    1.5017   -0.7908 H       1  UNL1        0.0340
     21 H          -0.0931    0.9261    0.8670 H       1  UNL1        0.0340
     22 H          -1.7987   -0.5629    1.8513 H       1  UNL1        0.0621
     23 H          -4.1381   -1.2027    1.9678 H       1  UNL1        0.0654
     24 H          -6.6347   -0.1117   -0.0028 H       1  UNL1        0.2922
     25 H          -2.3803    0.9572   -2.0460 H       1  UNL1        0.0632
     26 H           1.7541    0.3589    1.4879 H       1  UNL1        0.1488
     27 H           3.9306    1.9026    0.3350 H       1  UNL1        0.0470
     28 H           3.7600    1.2758    1.9834 H       1  UNL1        0.0470
     29 H           4.9463   -0.8099    1.3552 H       1  UNL1        0.0389
     30 H           5.8091    0.7000    0.8880 H       1  UNL1        0.0389
     31 H           5.9632   -1.4960   -1.1414 H       1  UNL1        0.1017
@<TRIPOS>BOND
     1     1     2    2
     2     2     3    1
     3     3     4    1
     4     4     5    1
     5     5     6   ar
     6     6     7   ar
     7     7     8   ar
     8     8     9    1
     9     8    10   ar
    10    10    11    1
    11    10    12   ar
    12     3    13    1
    13    13    14    2
    14    13    15   am
    15    15    16    1
    16    16    17    1
    17    17    18    1
    18    12     5   ar
    19     3    19    1
    20     4    20    1
    21     4    21    1
    22     6    22    1
    23     7    23    1
    24     9    24    1
    25    12    25    1
    26    15    26    1
    27    16    27    1
    28    16    28    1
    29    17    29    1
    30    17    30    1
    31    18    31    1
