@<TRIPOS>MOLECULE
*****
 72 75 0 0 0
SMALL
GASTEIGER

@<TRIPOS>ATOM
      1 C          -7.6834   -4.2012   -0.3107 C.3     1  UNL1       -0.0652
      2 C          -6.1947   -4.3012   -0.4987 C.3     1  UNL1       -0.0545
      3 C          -5.4843   -3.7793    0.7375 C.3     1  UNL1       -0.0376
      4 C          -5.8251   -2.3431    1.0102 C.3     1  UNL1        0.0118
      5 N          -5.4670   -1.4548   -0.0545 N.pl3   1  UNL1       -0.3134
      6 C          -4.1268   -1.2706   -0.5216 C.ar    1  UNL1        0.2169
      7 N          -3.6078   -2.0217   -1.5031 N.ar    1  UNL1       -0.2222
      8 C          -2.3613   -1.8820   -1.9621 C.ar    1  UNL1        0.0436
      9 C          -1.4962   -0.9027   -1.4187 C.ar    1  UNL1        0.0584
     10 C          -0.0982   -0.9561   -1.8062 C.ar    1  UNL1        0.0807
     11 C           0.9478   -0.4060   -1.1700 C.ar    1  UNL1        0.0046
     12 C           2.2951   -0.5952   -1.5686 C.ar    1  UNL1        0.1267
     13 N           3.3441   -0.0035   -0.8570 N.pl3   1  UNL1       -0.2993
     14 C           4.7124   -0.0435   -1.1646 C.ar    1  UNL1        0.0326
     15 C           5.1973   -0.3538   -2.4087 C.ar    1  UNL1       -0.0405
     16 C           6.5734   -0.4002   -2.6868 C.ar    1  UNL1       -0.0597
     17 C           7.4640   -0.1240   -1.6753 C.ar    1  UNL1       -0.0582
     18 C           7.0248    0.1939   -0.4068 C.ar    1  UNL1       -0.0430
     19 C           8.0222    0.4841    0.6511 C.3     1  UNL1       -0.0215
     20 C           7.9430   -0.5458    1.7749 C.3     1  UNL1       -0.0586
     21 C           7.8253    1.8429    1.2821 C.3     1  UNL1       -0.0586
     22 C           5.6845    0.2226   -0.1983 C.ar    1  UNL1       -0.0371
     23 N           2.4844   -1.3711   -2.6356 N.ar    1  UNL1       -0.2206
     24 C           1.4732   -1.9479   -3.3061 C.ar    1  UNL1        0.1187
     25 N           0.2337   -1.7378   -2.8931 N.ar    1  UNL1       -0.2351
     26 C          -2.0298   -0.1477   -0.4384 C.ar    1  UNL1        0.1333
     27 N          -1.3595    1.0042    0.0240 N.pl3   1  UNL1       -0.3256
     28 C          -1.8750    1.6812    1.1973 C.3     1  UNL1        0.0221
     29 C          -1.0114    2.9005    1.5534 C.3     1  UNL1       -0.0322
     30 C          -1.2691    3.9722    0.5196 C.3     1  UNL1       -0.0252
     31 C          -2.6668    4.4998    0.7361 C.3     1  UNL1        0.0554
     32 O          -2.6086    5.6594    1.5041 O.3     1  UNL1       -0.3918
     33 C          -3.5581    3.5173    1.4554 C.3     1  UNL1       -0.0252
     34 C          -3.3164    2.0980    1.0158 C.3     1  UNL1       -0.0322
     35 N          -3.3332   -0.3410    0.0011 N.ar    1  UNL1       -0.1991
     36 H          -8.1684   -4.9818   -0.9532 H       1  UNL1        0.0230
     37 H          -8.0508   -3.1993   -0.5944 H       1  UNL1        0.0230
     38 H          -7.9146   -4.3423    0.7545 H       1  UNL1        0.0230
     39 H          -5.9514   -5.3739   -0.6342 H       1  UNL1        0.0263
     40 H          -5.8304   -3.7141   -1.3587 H       1  UNL1        0.0263
     41 H          -4.4062   -3.9615    0.7129 H       1  UNL1        0.0280
     42 H          -5.8901   -4.3720    1.6016 H       1  UNL1        0.0280
     43 H          -6.8547   -2.2495    1.3462 H       1  UNL1        0.0462
     44 H          -5.1877   -2.0413    1.8942 H       1  UNL1        0.0462
     45 H          -6.2094   -0.9046   -0.5265 H       1  UNL1        0.1489
     46 H          -1.9509   -2.4909   -2.7547 H       1  UNL1        0.0838
     47 H           0.8233    0.1615   -0.2698 H       1  UNL1        0.0673
     48 H           3.0844    0.5437    0.0219 H       1  UNL1        0.1536
     49 H           4.5116   -0.5639   -3.2202 H       1  UNL1        0.0636
     50 H           6.9017   -0.6509   -3.6836 H       1  UNL1        0.0618
     51 H           8.5398   -0.1595   -1.8913 H       1  UNL1        0.0620
     52 H           9.0600    0.4328    0.2711 H       1  UNL1        0.0343
     53 H           7.8183   -1.5721    1.3571 H       1  UNL1        0.0235
     54 H           7.1278   -0.2847    2.4813 H       1  UNL1        0.0235
     55 H           8.8930   -0.4476    2.3504 H       1  UNL1        0.0235
     56 H           7.5292    2.5515    0.4985 H       1  UNL1        0.0235
     57 H           7.0902    1.7736    2.1134 H       1  UNL1        0.0235
     58 H           8.7926    2.1248    1.7504 H       1  UNL1        0.0235
     59 H           5.3195    0.4706    0.7932 H       1  UNL1        0.0639
     60 H           1.6528   -2.5788   -4.1750 H       1  UNL1        0.1048
     61 H          -0.5775    1.4427   -0.4477 H       1  UNL1        0.1478
     62 H          -1.8294    1.0373    2.0999 H       1  UNL1        0.0498
     63 H           0.0508    2.5684    1.5387 H       1  UNL1        0.0284
     64 H          -1.3226    3.2922    2.5348 H       1  UNL1        0.0284
     65 H          -1.1331    3.5779   -0.5124 H       1  UNL1        0.0291
     66 H          -0.5524    4.8066    0.7103 H       1  UNL1        0.0291
     67 H          -3.1165    4.8053   -0.2467 H       1  UNL1        0.0593
     68 H          -2.4300    6.4349    0.9284 H       1  UNL1        0.2098
     69 H          -3.5132    3.6439    2.5570 H       1  UNL1        0.0291
     70 H          -4.6093    3.7671    1.1622 H       1  UNL1        0.0291
     71 H          -3.9760    1.4498    1.6253 H       1  UNL1        0.0284
     72 H          -3.5726    2.0579   -0.0752 H       1  UNL1        0.0284
@<TRIPOS>BOND
     1     1     2    1
     2     2     3    1
     3     3     4    1
     4     4     5    1
     5     5     6    1
     6     6     7   ar
     7     7     8   ar
     8     8     9   ar
     9     9    10    1
    10    10    11   ar
    11    11    12   ar
    12    12    13    1
    13    13    14    1
    14    14    15   ar
    15    15    16   ar
    16    16    17   ar
    17    17    18   ar
    18    18    19    1
    19    19    20    1
    20    19    21    1
    21    18    22   ar
    22    12    23   ar
    23    23    24   ar
    24    24    25   ar
    25     9    26   ar
    26    26    27    1
    27    27    28    1
    28    28    29    1
    29    29    30    1
    30    30    31    1
    31    31    32    1
    32    31    33    1
    33    33    34    1
    34    26    35   ar
    35    35     6   ar
    36    25    10   ar
    37    34    28    1
    38    22    14   ar
    39     1    36    1
    40     1    37    1
    41     1    38    1
    42     2    39    1
    43     2    40    1
    44     3    41    1
    45     3    42    1
    46     4    43    1
    47     4    44    1
    48     5    45    1
    49     8    46    1
    50    11    47    1
    51    13    48    1
    52    15    49    1
    53    16    50    1
    54    17    51    1
    55    19    52    1
    56    20    53    1
    57    20    54    1
    58    20    55    1
    59    21    56    1
    60    21    57    1
    61    21    58    1
    62    22    59    1
    63    24    60    1
    64    27    61    1
    65    28    62    1
    66    29    63    1
    67    29    64    1
    68    30    65    1
    69    30    66    1
    70    31    67    1
    71    32    68    1
    72    33    69    1
    73    33    70    1
    74    34    71    1
    75    34    72    1
