@<TRIPOS>MOLECULE
*****
 61 65 0 0 0
SMALL
GASTEIGER

@<TRIPOS>ATOM
      1 O           6.4798    3.9265   -1.0102 O.2     1  UNL1       -0.2451
      2 C           6.2374    2.7480   -1.3478 C.2     1  UNL1        0.3369
      3 O           7.1104    2.0500   -2.1472 O.3     1  UNL1       -0.4771
      4 C           5.0054    2.1248   -0.8753 C.ar    1  UNL1        0.0617
      5 C           4.1255    2.8268   -0.0700 C.ar    1  UNL1       -0.0458
      6 C           2.9715    2.2012    0.3555 C.ar    1  UNL1       -0.0369
      7 C           2.6532    0.9096    0.0164 C.ar    1  UNL1        0.0691
      8 N           1.4796    0.2691    0.4470 N.am    1  UNL1       -0.2815
      9 C           0.2533    0.2909   -0.2591 C.2     1  UNL1        0.2405
     10 O           0.1996    0.9224   -1.3382 O.2     1  UNL1       -0.2732
     11 C          -0.9030   -0.4437    0.3291 C.3     1  UNL1        0.1154
     12 C          -0.5203   -1.8743    0.4255 C.3     1  UNL1       -0.0116
     13 C          -0.1223   -2.5488   -0.8618 C.3     1  UNL1       -0.0479
     14 C          -0.3719   -4.0243   -0.6968 C.3     1  UNL1       -0.0527
     15 C           0.2271   -4.4377    0.6309 C.3     1  UNL1       -0.0530
     16 C          -0.4881   -3.8901    1.8175 C.3     1  UNL1       -0.0527
     17 C          -1.3523   -2.7141    1.3509 C.3     1  UNL1       -0.0479
     18 N          -2.1553    0.0645    0.0196 N.ar    1  UNL1       -0.3112
     19 C          -2.4299    1.3822    0.3961 C.ar    1  UNL1        0.1425
     20 C          -1.5863    2.3079    1.0866 C.ar    1  UNL1        0.0176
     21 C          -1.3111    2.2358    2.4333 C.ar    1  UNL1       -0.0497
     22 C          -0.5162    3.1030    3.1140 C.ar    1  UNL1       -0.0427
     23 C           0.0762    4.1519    2.4199 C.ar    1  UNL1        0.0410
     24 CL          1.1109    5.2997    3.2492 Cl      1  UNL1       -0.0835
     25 C          -0.1608    4.2800    1.0636 C.ar    1  UNL1       -0.0427
     26 C          -0.9741    3.3786    0.4092 C.ar    1  UNL1       -0.0497
     27 N          -3.6645    1.6153   -0.0198 N.ar    1  UNL1       -0.2274
     28 C          -4.1897    0.5427   -0.6305 C.ar    1  UNL1        0.0926
     29 C          -5.4145    0.2951   -1.2208 C.ar    1  UNL1        0.0039
     30 C          -5.6957   -0.9284   -1.7886 C.ar    1  UNL1        0.1605
     31 F          -6.9163   -1.1581   -2.3706 F       1  UNL1       -0.2024
     32 C          -4.7150   -1.8988   -1.7490 C.ar    1  UNL1        0.1605
     33 F          -5.0260   -3.1101   -2.3244 F       1  UNL1       -0.2024
     34 C          -3.4844   -1.6901   -1.1707 C.ar    1  UNL1        0.0021
     35 C          -3.2207   -0.4588   -0.6072 C.ar    1  UNL1        0.0727
     36 C           3.5308    0.2162   -0.7840 C.ar    1  UNL1        0.1453
     37 F           3.3259   -1.0637   -1.1851 F       1  UNL1       -0.2035
     38 C           4.7108    0.8166   -1.2351 C.ar    1  UNL1       -0.0106
     39 H           8.0126    2.4255   -2.4603 H       1  UNL1        0.2954
     40 H           4.3670    3.8530    0.2061 H       1  UNL1        0.0626
     41 H           2.3100    2.7675    0.9768 H       1  UNL1        0.0637
     42 H           1.5429   -0.2583    1.3706 H       1  UNL1        0.1549
     43 H          -0.7615   -0.1764    1.4812 H       1  UNL1        0.0627
     44 H           0.5047   -1.9417    0.9959 H       1  UNL1        0.0325
     45 H           0.9971   -2.4825   -1.0657 H       1  UNL1        0.0269
     46 H          -0.5347   -2.0999   -1.7757 H       1  UNL1        0.0269
     47 H          -1.3960   -4.3527   -0.8306 H       1  UNL1        0.0265
     48 H           0.2495   -4.5549   -1.4769 H       1  UNL1        0.0265
     49 H           0.2832   -5.5332    0.7303 H       1  UNL1        0.0265
     50 H           1.2964   -4.0819    0.6134 H       1  UNL1        0.0265
     51 H           0.2338   -3.4592    2.5521 H       1  UNL1        0.0265
     52 H          -1.1480   -4.6223    2.3213 H       1  UNL1        0.0265
     53 H          -2.2388   -3.1795    0.9650 H       1  UNL1        0.0269
     54 H          -1.6072   -2.0574    2.2152 H       1  UNL1        0.0269
     55 H          -1.7795    1.4257    2.9337 H       1  UNL1        0.0625
     56 H          -0.3292    3.0003    4.1891 H       1  UNL1        0.0632
     57 H           0.3195    5.1101    0.5617 H       1  UNL1        0.0632
     58 H          -1.1183    3.5355   -0.6518 H       1  UNL1        0.0625
     59 H          -6.1289    1.1111   -1.2093 H       1  UNL1        0.0669
     60 H          -2.7625   -2.4363   -1.1522 H       1  UNL1        0.0668
     61 H           5.4089    0.2897   -1.8617 H       1  UNL1        0.0655
@<TRIPOS>BOND
     1     1     2    2
     2     2     3    1
     3     2     4    1
     4     4     5   ar
     5     5     6   ar
     6     6     7   ar
     7     7     8    1
     8     8     9   am
     9     9    10    2
    10     9    11    1
    11    11    12    1
    12    12    13    1
    13    13    14    1
    14    14    15    1
    15    15    16    1
    16    16    17    1
    17    11    18    1
    18    18    19   ar
    19    19    20    1
    20    20    21   ar
    21    21    22   ar
    22    22    23   ar
    23    23    24    1
    24    23    25   ar
    25    25    26   ar
    26    19    27   ar
    27    27    28   ar
    28    28    29   ar
    29    29    30   ar
    30    30    31    1
    31    30    32   ar
    32    32    33    1
    33    32    34   ar
    34    34    35   ar
    35     7    36   ar
    36    36    37    1
    37    36    38   ar
    38    38     4   ar
    39    17    12    1
    40    35    18   ar
    41    26    20   ar
    42    35    28   ar
    43     3    39    1
    44     5    40    1
    45     6    41    1
    46     8    42    1
    47    11    43    1
    48    12    44    1
    49    13    45    1
    50    13    46    1
    51    14    47    1
    52    14    48    1
    53    15    49    1
    54    15    50    1
    55    16    51    1
    56    16    52    1
    57    17    53    1
    58    17    54    1
    59    21    55    1
    60    22    56    1
    61    25    57    1
    62    26    58    1
    63    29    59    1
    64    34    60    1
    65    38    61    1
