@<TRIPOS>MOLECULE
*****
 76 82 0 0 0
SMALL
GASTEIGER

@<TRIPOS>ATOM
      1 C          -9.4289    1.0180   -1.0715 C.3     1  UNL1        0.0032
      2 N          -8.0674    1.3411   -0.7178 N.am    1  UNL1       -0.3024
      3 C          -7.8381    2.3712    0.2697 C.3     1  UNL1        0.0032
      4 C          -6.9599    0.6997   -1.3051 C.2     1  UNL1        0.2627
      5 O          -7.1392   -0.1797   -2.1719 O.2     1  UNL1       -0.2684
      6 C          -5.5887    1.0379   -0.9258 C.ar    1  UNL1        0.1070
      7 C          -4.7743    1.9431   -1.6253 C.ar    1  UNL1       -0.0209
      8 C          -3.5499    2.0390   -1.0141 C.ar    1  UNL1        0.0378
      9 C          -2.3876    2.7475   -1.2376 C.ar    1  UNL1        0.0419
     10 N          -1.3102    2.6368   -0.4380 N.ar    1  UNL1       -0.2219
     11 C          -1.3732    1.8037    0.6161 C.ar    1  UNL1        0.2224
     12 N          -0.2937    1.6326    1.5210 N.pl3   1  UNL1       -0.2684
     13 C           0.9296    1.0952    1.0099 C.ar    1  UNL1        0.1251
     14 C           1.0945    0.7714   -0.3108 C.ar    1  UNL1       -0.0197
     15 C           2.2918    0.2527   -0.7910 C.ar    1  UNL1       -0.0354
     16 C           3.3634    0.0431    0.0493 C.ar    1  UNL1        0.0578
     17 N           4.6018   -0.4722   -0.3802 N.am    1  UNL1       -0.2320
     18 C           5.7296   -0.7292    0.4925 C.3     1  UNL1        0.0631
     19 C           6.9087   -0.7798   -0.4234 C.3     1  UNL1        0.1340
     20 C           7.5205    0.5879   -0.5624 C.3     1  UNL1        0.0043
     21 C           8.9976    0.6021   -0.7619 C.3     1  UNL1        0.0116
     22 C           9.7341    0.7329    0.5680 C.3     1  UNL1       -0.0360
     23 C           9.7531   -0.6709    1.1340 C.3     1  UNL1       -0.0360
     24 C           9.3042   -1.4972   -0.0603 C.3     1  UNL1        0.0116
     25 C           7.8602   -1.8139    0.1276 C.3     1  UNL1        0.0043
     26 N           9.4748   -0.6715   -1.2270 N.3     1  UNL1       -0.3103
     27 O           6.3498   -1.2264   -1.6432 O.3     1  UNL1       -0.4418
     28 C           5.0094   -0.8414   -1.6667 C.2     1  UNL1        0.4079
     29 O           4.3465   -0.8548   -2.7270 O.2     1  UNL1       -0.2259
     30 C           3.1456    0.3869    1.3813 C.ar    1  UNL1        0.0512
     31 N           1.9881    0.8866    1.8338 N.ar    1  UNL1       -0.2383
     32 N          -2.5048    1.1086    0.8414 N.ar    1  UNL1       -0.1962
     33 C          -3.5975    1.1973    0.0624 C.ar    1  UNL1        0.1466
     34 N          -4.8359    0.6075    0.0920 N.ar    1  UNL1       -0.3180
     35 C          -5.1497   -0.3203    1.1312 C.3     1  UNL1        0.0366
     36 C          -4.1050   -1.4439    1.0768 C.3     1  UNL1       -0.0320
     37 C          -4.7661   -2.6800    0.5033 C.3     1  UNL1       -0.0512
     38 C          -5.8562   -3.2179    1.3816 C.3     1  UNL1       -0.0529
     39 C          -6.4690   -2.0639    2.1467 C.3     1  UNL1       -0.0512
     40 C          -6.5171   -0.8807    1.1484 C.3     1  UNL1       -0.0320
     41 H          -9.6624    1.4898   -2.0689 H       1  UNL1        0.0428
     42 H          -9.6123   -0.0633   -1.2081 H       1  UNL1        0.0428
     43 H         -10.1576    1.4778   -0.3653 H       1  UNL1        0.0428
     44 H          -7.6723    3.3734   -0.1580 H       1  UNL1        0.0428
     45 H          -6.9288    2.1544    0.9005 H       1  UNL1        0.0428
     46 H          -8.6976    2.4627    0.9646 H       1  UNL1        0.0428
     47 H          -5.0978    2.4605   -2.4991 H       1  UNL1        0.0647
     48 H          -2.3493    3.4024   -2.0755 H       1  UNL1        0.0838
     49 H          -0.4328    1.8997    2.5038 H       1  UNL1        0.1564
     50 H           0.2780    0.9163   -1.0243 H       1  UNL1        0.0652
     51 H           2.3997    0.0038   -1.8385 H       1  UNL1        0.0638
     52 H           5.8060    0.1524    1.1882 H       1  UNL1        0.0509
     53 H           5.5732   -1.6474    1.0788 H       1  UNL1        0.0509
     54 H           7.1962    1.2744    0.2718 H       1  UNL1        0.0319
     55 H           7.0631    1.0419   -1.4914 H       1  UNL1        0.0319
     56 H           9.3200    1.4093   -1.4582 H       1  UNL1        0.0462
     57 H           9.1757    1.4251    1.2007 H       1  UNL1        0.0281
     58 H          10.7726    1.0362    0.3480 H       1  UNL1        0.0281
     59 H           9.0265   -0.7730    1.9706 H       1  UNL1        0.0281
     60 H          10.7521   -0.9843    1.4580 H       1  UNL1        0.0281
     61 H           9.8941   -2.4351   -0.1171 H       1  UNL1        0.0462
     62 H           7.6563   -2.0014    1.1902 H       1  UNL1        0.0319
     63 H           7.6457   -2.7753   -0.4069 H       1  UNL1        0.0319
     64 H           8.8514   -1.0222   -1.9772 H       1  UNL1        0.1225
     65 H           3.9924    0.2222    2.0673 H       1  UNL1        0.0849
     66 H          -4.9680    0.2120    2.1011 H       1  UNL1        0.0528
     67 H          -3.2700   -1.1793    0.4026 H       1  UNL1        0.0285
     68 H          -3.6715   -1.6288    2.0746 H       1  UNL1        0.0285
     69 H          -5.2116   -2.3909   -0.4694 H       1  UNL1        0.0266
     70 H          -4.0030   -3.4594    0.2543 H       1  UNL1        0.0266
     71 H          -6.6787   -3.6747    0.7856 H       1  UNL1        0.0265
     72 H          -5.4906   -4.0072    2.0744 H       1  UNL1        0.0265
     73 H          -5.8320   -1.7580    3.0112 H       1  UNL1        0.0266
     74 H          -7.4577   -2.3139    2.5313 H       1  UNL1        0.0266
     75 H          -6.8218   -1.3558    0.2013 H       1  UNL1        0.0285
     76 H          -7.2779   -0.1429    1.5124 H       1  UNL1        0.0285
@<TRIPOS>BOND
     1     1     2    1
     2     2     3    1
     3     2     4   am
     4     4     5    2
     5     4     6    1
     6     6     7   ar
     7     7     8   ar
     8     8     9   ar
     9     9    10   ar
    10    10    11   ar
    11    11    12    1
    12    12    13    1
    13    13    14   ar
    14    14    15   ar
    15    15    16   ar
    16    16    17    1
    17    17    18    1
    18    18    19    1
    19    19    20    1
    20    20    21    1
    21    21    22    1
    22    22    23    1
    23    23    24    1
    24    24    25    1
    25    24    26    1
    26    19    27    1
    27    27    28    1
    28    28    29    2
    29    16    30   ar
    30    30    31   ar
    31    11    32   ar
    32    32    33   ar
    33    33    34   ar
    34    34    35    1
    35    35    36    1
    36    36    37    1
    37    37    38    1
    38    38    39    1
    39    39    40    1
    40    34     6   ar
    41    40    35    1
    42    33     8   ar
    43    31    13   ar
    44    28    17   am
    45    25    19    1
    46    26    21    1
    47     1    41    1
    48     1    42    1
    49     1    43    1
    50     3    44    1
    51     3    45    1
    52     3    46    1
    53     7    47    1
    54     9    48    1
    55    12    49    1
    56    14    50    1
    57    15    51    1
    58    18    52    1
    59    18    53    1
    60    20    54    1
    61    20    55    1
    62    21    56    1
    63    22    57    1
    64    22    58    1
    65    23    59    1
    66    23    60    1
    67    24    61    1
    68    25    62    1
    69    25    63    1
    70    26    64    1
    71    30    65    1
    72    35    66    1
    73    36    67    1
    74    36    68    1
    75    37    69    1
    76    37    70    1
    77    38    71    1
    78    38    72    1
    79    39    73    1
    80    39    74    1
    81    40    75    1
    82    40    76    1
