
     RDKit          3D

 76 82  0  0  0  0  0  0  0  0999 V2000
   -9.4289    1.0180   -1.0715 C   0  0  0  0  0  0  0  0  0  0  0  0
   -8.0674    1.3411   -0.7178 N   0  0  0  0  0  0  0  0  0  0  0  0
   -7.8381    2.3712    0.2697 C   0  0  0  0  0  0  0  0  0  0  0  0
   -6.9599    0.6997   -1.3051 C   0  0  0  0  0  0  0  0  0  0  0  0
   -7.1392   -0.1797   -2.1719 O   0  0  0  0  0  0  0  0  0  0  0  0
   -5.5887    1.0379   -0.9258 C   0  0  0  0  0  0  0  0  0  0  0  0
   -4.7743    1.9431   -1.6253 C   0  0  0  0  0  0  0  0  0  0  0  0
   -3.5499    2.0390   -1.0141 C   0  0  0  0  0  0  0  0  0  0  0  0
   -2.3876    2.7475   -1.2376 C   0  0  0  0  0  0  0  0  0  0  0  0
   -1.3102    2.6368   -0.4380 N   0  0  0  0  0  0  0  0  0  0  0  0
   -1.3732    1.8037    0.6161 C   0  0  0  0  0  0  0  0  0  0  0  0
   -0.2937    1.6326    1.5210 N   0  0  0  0  0  0  0  0  0  0  0  0
    0.9296    1.0952    1.0099 C   0  0  0  0  0  0  0  0  0  0  0  0
    1.0945    0.7714   -0.3108 C   0  0  0  0  0  0  0  0  0  0  0  0
    2.2918    0.2527   -0.7910 C   0  0  0  0  0  0  0  0  0  0  0  0
    3.3634    0.0431    0.0493 C   0  0  0  0  0  0  0  0  0  0  0  0
    4.6018   -0.4722   -0.3802 N   0  0  0  0  0  0  0  0  0  0  0  0
    5.7296   -0.7292    0.4925 C   0  0  0  0  0  0  0  0  0  0  0  0
    6.9087   -0.7798   -0.4234 C   0  0  0  0  0  0  0  0  0  0  0  0
    7.5205    0.5879   -0.5624 C   0  0  0  0  0  0  0  0  0  0  0  0
    8.9976    0.6021   -0.7619 C   0  0  0  0  0  0  0  0  0  0  0  0
    9.7341    0.7329    0.5680 C   0  0  0  0  0  0  0  0  0  0  0  0
    9.7531   -0.6709    1.1340 C   0  0  0  0  0  0  0  0  0  0  0  0
    9.3042   -1.4972   -0.0603 C   0  0  0  0  0  0  0  0  0  0  0  0
    7.8602   -1.8139    0.1276 C   0  0  0  0  0  0  0  0  0  0  0  0
    9.4748   -0.6715   -1.2270 N   0  0  0  0  0  0  0  0  0  0  0  0
    6.3498   -1.2264   -1.6432 O   0  0  0  0  0  0  0  0  0  0  0  0
    5.0094   -0.8414   -1.6667 C   0  0  0  0  0  0  0  0  0  0  0  0
    4.3465   -0.8548   -2.7270 O   0  0  0  0  0  0  0  0  0  0  0  0
    3.1456    0.3869    1.3813 C   0  0  0  0  0  0  0  0  0  0  0  0
    1.9881    0.8866    1.8338 N   0  0  0  0  0  0  0  0  0  0  0  0
   -2.5048    1.1086    0.8414 N   0  0  0  0  0  0  0  0  0  0  0  0
   -3.5975    1.1973    0.0624 C   0  0  0  0  0  0  0  0  0  0  0  0
   -4.8359    0.6075    0.0920 N   0  0  0  0  0  0  0  0  0  0  0  0
   -5.1497   -0.3203    1.1312 C   0  0  0  0  0  0  0  0  0  0  0  0
   -4.1050   -1.4439    1.0768 C   0  0  0  0  0  0  0  0  0  0  0  0
   -4.7661   -2.6800    0.5033 C   0  0  0  0  0  0  0  0  0  0  0  0
   -5.8562   -3.2179    1.3816 C   0  0  0  0  0  0  0  0  0  0  0  0
   -6.4690   -2.0639    2.1467 C   0  0  0  0  0  0  0  0  0  0  0  0
   -6.5171   -0.8807    1.1484 C   0  0  0  0  0  0  0  0  0  0  0  0
   -9.6624    1.4898   -2.0689 H   0  0  0  0  0  0  0  0  0  0  0  0
   -9.6123   -0.0633   -1.2081 H   0  0  0  0  0  0  0  0  0  0  0  0
  -10.1576    1.4778   -0.3653 H   0  0  0  0  0  0  0  0  0  0  0  0
   -7.6723    3.3734   -0.1580 H   0  0  0  0  0  0  0  0  0  0  0  0
   -6.9288    2.1544    0.9005 H   0  0  0  0  0  0  0  0  0  0  0  0
   -8.6976    2.4627    0.9646 H   0  0  0  0  0  0  0  0  0  0  0  0
   -5.0978    2.4605   -2.4991 H   0  0  0  0  0  0  0  0  0  0  0  0
   -2.3493    3.4024   -2.0755 H   0  0  0  0  0  0  0  0  0  0  0  0
   -0.4328    1.8997    2.5038 H   0  0  0  0  0  0  0  0  0  0  0  0
    0.2780    0.9163   -1.0243 H   0  0  0  0  0  0  0  0  0  0  0  0
    2.3997    0.0038   -1.8385 H   0  0  0  0  0  0  0  0  0  0  0  0
    5.8060    0.1524    1.1882 H   0  0  0  0  0  0  0  0  0  0  0  0
    5.5732   -1.6474    1.0788 H   0  0  0  0  0  0  0  0  0  0  0  0
    7.1962    1.2744    0.2718 H   0  0  0  0  0  0  0  0  0  0  0  0
    7.0631    1.0419   -1.4914 H   0  0  0  0  0  0  0  0  0  0  0  0
    9.3200    1.4093   -1.4582 H   0  0  0  0  0  0  0  0  0  0  0  0
    9.1757    1.4251    1.2007 H   0  0  0  0  0  0  0  0  0  0  0  0
   10.7726    1.0362    0.3480 H   0  0  0  0  0  0  0  0  0  0  0  0
    9.0265   -0.7730    1.9706 H   0  0  0  0  0  0  0  0  0  0  0  0
   10.7521   -0.9843    1.4580 H   0  0  0  0  0  0  0  0  0  0  0  0
    9.8941   -2.4351   -0.1171 H   0  0  0  0  0  0  0  0  0  0  0  0
    7.6563   -2.0014    1.1902 H   0  0  0  0  0  0  0  0  0  0  0  0
    7.6457   -2.7753   -0.4069 H   0  0  0  0  0  0  0  0  0  0  0  0
    8.8514   -1.0222   -1.9772 H   0  0  0  0  0  0  0  0  0  0  0  0
    3.9924    0.2222    2.0673 H   0  0  0  0  0  0  0  0  0  0  0  0
   -4.9680    0.2120    2.1011 H   0  0  0  0  0  0  0  0  0  0  0  0
   -3.2700   -1.1793    0.4026 H   0  0  0  0  0  0  0  0  0  0  0  0
   -3.6715   -1.6288    2.0746 H   0  0  0  0  0  0  0  0  0  0  0  0
   -5.2116   -2.3909   -0.4694 H   0  0  0  0  0  0  0  0  0  0  0  0
   -4.0030   -3.4594    0.2543 H   0  0  0  0  0  0  0  0  0  0  0  0
   -6.6787   -3.6747    0.7856 H   0  0  0  0  0  0  0  0  0  0  0  0
   -5.4906   -4.0072    2.0744 H   0  0  0  0  0  0  0  0  0  0  0  0
   -5.8320   -1.7580    3.0112 H   0  0  0  0  0  0  0  0  0  0  0  0
   -7.4577   -2.3139    2.5313 H   0  0  0  0  0  0  0  0  0  0  0  0
   -6.8218   -1.3558    0.2013 H   0  0  0  0  0  0  0  0  0  0  0  0
   -7.2779   -0.1429    1.5124 H   0  0  0  0  0  0  0  0  0  0  0  0
  1  2  1  0
  2  3  1  0
  2  4  1  0
  4  5  2  0
  4  6  1  0
  6  7  2  0
  7  8  1  0
  8  9  2  0
  9 10  1  0
 10 11  2  0
 11 12  1  0
 12 13  1  0
 13 14  2  0
 14 15  1  0
 15 16  2  0
 16 17  1  0
 17 18  1  0
 18 19  1  0
 19 20  1  0
 20 21  1  0
 21 22  1  0
 22 23  1  0
 23 24  1  0
 24 25  1  0
 24 26  1  0
 19 27  1  0
 27 28  1  0
 28 29  2  0
 16 30  1  0
 30 31  2  0
 11 32  1  0
 32 33  2  0
 33 34  1  0
 34 35  1  0
 35 36  1  0
 36 37  1  0
 37 38  1  0
 38 39  1  0
 39 40  1  0
 34  6  1  0
 40 35  1  0
 33  8  1  0
 31 13  1  0
 28 17  1  0
 25 19  1  0
 26 21  1  0
  1 41  1  0
  1 42  1  0
  1 43  1  0
  3 44  1  0
  3 45  1  0
  3 46  1  0
  7 47  1  0
  9 48  1  0
 12 49  1  0
 14 50  1  0
 15 51  1  0
 18 52  1  0
 18 53  1  0
 20 54  1  0
 20 55  1  0
 21 56  1  0
 22 57  1  0
 22 58  1  0
 23 59  1  0
 23 60  1  0
 24 61  1  0
 25 62  1  0
 25 63  1  0
 26 64  1  0
 30 65  1  0
 35 66  1  0
 36 67  1  0
 36 68  1  0
 37 69  1  0
 37 70  1  0
 38 71  1  0
 38 72  1  0
 39 73  1  0
 39 74  1  0
 40 75  1  0
 40 76  1  0
M  END
$$$$
