@<TRIPOS>MOLECULE
*****
 37 39 0 0 0
SMALL
GASTEIGER

@<TRIPOS>ATOM
      1 C          -0.9048    3.5487    0.9593 C.3     1  UNL1        0.0817
      2 O          -0.4039    2.3409    0.3748 O.3     1  UNL1       -0.4677
      3 C          -1.2811    1.4118   -0.1961 C.2     1  UNL1        0.3117
      4 O          -2.5014    1.7215   -0.1512 O.2     1  UNL1       -0.2505
      5 C          -0.7914    0.1449   -0.8126 C.3     1  UNL1        0.0773
      6 C          -2.0007   -0.5960   -1.3170 C.3     1  UNL1        0.0486
      7 C          -2.7403   -1.2912   -0.2140 C.3     1  UNL1       -0.0369
      8 C          -2.0380   -2.4854    0.2429 C.3     1  UNL1       -0.0377
      9 C          -0.8679   -2.8283   -0.5990 C.3     1  UNL1        0.0357
     10 C           0.3134   -2.0240   -0.1287 C.3     1  UNL1       -0.0312
     11 C           0.0270   -0.6043    0.1642 C.3     1  UNL1       -0.0007
     12 C           1.3293    0.0894    0.3283 C.ar    1  UNL1       -0.0405
     13 C           1.7372    0.6639    1.5139 C.ar    1  UNL1       -0.0554
     14 C           2.9580    1.3011    1.6258 C.ar    1  UNL1       -0.0233
     15 C           3.7944    1.3616    0.5087 C.ar    1  UNL1        0.1584
     16 F           4.9981    1.9793    0.5855 F       1  UNL1       -0.2025
     17 C           3.4156    0.8032   -0.6712 C.ar    1  UNL1        0.1587
     18 F           4.2485    0.8789   -1.7347 F       1  UNL1       -0.2025
     19 C           2.1727    0.1649   -0.7523 C.ar    1  UNL1       -0.0201
     20 S          -1.3462   -2.0649   -2.1891 S.O     1  UNL1        0.0292
     21 O          -0.1135   -1.6915   -2.9866 O.2     1  UNL1       -0.2566
     22 H          -1.3472    3.3513    1.9554 H       1  UNL1        0.0661
     23 H          -1.7201    3.9889    0.3344 H       1  UNL1        0.0661
     24 H          -0.0957    4.2936    1.0025 H       1  UNL1        0.0661
     25 H          -0.1609    0.4036   -1.6925 H       1  UNL1        0.0431
     26 H          -2.6128    0.0140   -1.9600 H       1  UNL1        0.0445
     27 H          -3.0033   -0.5827    0.6240 H       1  UNL1        0.0277
     28 H          -3.7435   -1.5850   -0.6386 H       1  UNL1        0.0277
     29 H          -2.7203   -3.3838    0.2659 H       1  UNL1        0.0277
     30 H          -1.6790   -2.3978    1.3095 H       1  UNL1        0.0277
     31 H          -0.6184   -3.8722   -0.7017 H       1  UNL1        0.0437
     32 H           0.6721   -2.5093    0.8149 H       1  UNL1        0.0283
     33 H           1.1430   -2.1437   -0.8647 H       1  UNL1        0.0283
     34 H          -0.4822   -0.5410    1.1631 H       1  UNL1        0.0357
     35 H           1.1121    0.6355    2.4023 H       1  UNL1        0.0621
     36 H           3.3155    1.7618    2.5288 H       1  UNL1        0.0647
     37 H           1.9356   -0.2578   -1.7229 H       1  UNL1        0.0650
@<TRIPOS>BOND
     1     1     2    1
     2     2     3    1
     3     3     4    2
     4     3     5    1
     5     5     6    1
     6     6     7    1
     7     7     8    1
     8     8     9    1
     9     9    10    1
    10    10    11    1
    11    11    12    1
    12    12    13   ar
    13    13    14   ar
    14    14    15   ar
    15    15    16    1
    16    15    17   ar
    17    17    18    1
    18    17    19   ar
    19     9    20    1
    20    20    21    2
    21    11     5    1
    22    19    12   ar
    23    20     6    1
    24     1    22    1
    25     1    23    1
    26     1    24    1
    27     5    25    1
    28     6    26    1
    29     7    27    1
    30     7    28    1
    31     8    29    1
    32     8    30    1
    33     9    31    1
    34    10    32    1
    35    10    33    1
    36    11    34    1
    37    13    35    1
    38    14    36    1
    39    19    37    1
