
     RDKit          3D

 37 39  0  0  0  0  0  0  0  0999 V2000
   -0.9048    3.5487    0.9593 C   0  0  0  0  0  0  0  0  0  0  0  0
   -0.4039    2.3409    0.3748 O   0  0  0  0  0  0  0  0  0  0  0  0
   -1.2811    1.4118   -0.1961 C   0  0  0  0  0  0  0  0  0  0  0  0
   -2.5014    1.7215   -0.1512 O   0  0  0  0  0  0  0  0  0  0  0  0
   -0.7914    0.1449   -0.8126 C   0  0  2  0  0  0  0  0  0  0  0  0
   -2.0007   -0.5960   -1.3170 C   0  0  0  0  0  0  0  0  0  0  0  0
   -2.7403   -1.2912   -0.2140 C   0  0  0  0  0  0  0  0  0  0  0  0
   -2.0380   -2.4854    0.2429 C   0  0  0  0  0  0  0  0  0  0  0  0
   -0.8679   -2.8283   -0.5990 C   0  0  0  0  0  0  0  0  0  0  0  0
    0.3134   -2.0240   -0.1287 C   0  0  0  0  0  0  0  0  0  0  0  0
    0.0270   -0.6043    0.1642 C   0  0  1  0  0  0  0  0  0  0  0  0
    1.3293    0.0894    0.3283 C   0  0  0  0  0  0  0  0  0  0  0  0
    1.7372    0.6639    1.5139 C   0  0  0  0  0  0  0  0  0  0  0  0
    2.9580    1.3011    1.6258 C   0  0  0  0  0  0  0  0  0  0  0  0
    3.7944    1.3616    0.5087 C   0  0  0  0  0  0  0  0  0  0  0  0
    4.9981    1.9793    0.5855 F   0  0  0  0  0  0  0  0  0  0  0  0
    3.4156    0.8032   -0.6712 C   0  0  0  0  0  0  0  0  0  0  0  0
    4.2485    0.8789   -1.7347 F   0  0  0  0  0  0  0  0  0  0  0  0
    2.1727    0.1649   -0.7523 C   0  0  0  0  0  0  0  0  0  0  0  0
   -1.3462   -2.0649   -2.1891 S   0  0  0  0  0  4  0  0  0  0  0  0
   -0.1135   -1.6915   -2.9866 O   0  0  0  0  0  0  0  0  0  0  0  0
   -1.3472    3.3513    1.9554 H   0  0  0  0  0  0  0  0  0  0  0  0
   -1.7201    3.9889    0.3344 H   0  0  0  0  0  0  0  0  0  0  0  0
   -0.0957    4.2936    1.0025 H   0  0  0  0  0  0  0  0  0  0  0  0
   -0.1609    0.4036   -1.6925 H   0  0  0  0  0  0  0  0  0  0  0  0
   -2.6128    0.0140   -1.9600 H   0  0  0  0  0  0  0  0  0  0  0  0
   -3.0033   -0.5827    0.6240 H   0  0  0  0  0  0  0  0  0  0  0  0
   -3.7435   -1.5850   -0.6386 H   0  0  0  0  0  0  0  0  0  0  0  0
   -2.7203   -3.3838    0.2659 H   0  0  0  0  0  0  0  0  0  0  0  0
   -1.6790   -2.3978    1.3095 H   0  0  0  0  0  0  0  0  0  0  0  0
   -0.6184   -3.8722   -0.7017 H   0  0  0  0  0  0  0  0  0  0  0  0
    0.6721   -2.5093    0.8149 H   0  0  0  0  0  0  0  0  0  0  0  0
    1.1430   -2.1437   -0.8647 H   0  0  0  0  0  0  0  0  0  0  0  0
   -0.4822   -0.5410    1.1631 H   0  0  0  0  0  0  0  0  0  0  0  0
    1.1121    0.6355    2.4023 H   0  0  0  0  0  0  0  0  0  0  0  0
    3.3155    1.7618    2.5288 H   0  0  0  0  0  0  0  0  0  0  0  0
    1.9356   -0.2578   -1.7229 H   0  0  0  0  0  0  0  0  0  0  0  0
  1  2  1  0
  2  3  1  0
  3  4  2  0
  3  5  1  0
  5  6  1  0
  6  7  1  0
  7  8  1  0
  8  9  1  0
  9 10  1  0
 10 11  1  0
 11 12  1  0
 12 13  2  0
 13 14  1  0
 14 15  2  0
 15 16  1  0
 15 17  1  0
 17 18  1  0
 17 19  2  0
  9 20  1  0
 20 21  2  0
 11  5  1  0
 19 12  1  0
 20  6  1  0
  1 22  1  0
  1 23  1  0
  1 24  1  0
  5 25  1  6
  6 26  1  0
  7 27  1  0
  7 28  1  0
  8 29  1  0
  8 30  1  0
  9 31  1  0
 10 32  1  0
 10 33  1  0
 11 34  1  1
 13 35  1  0
 14 36  1  0
 19 37  1  0
M  END
$$$$
