
     RDKit          3D

 40 43  0  0  0  0  0  0  0  0999 V2000
    5.7373    2.2271   -1.9221 O   0  0  0  0  0  0  0  0  0  0  0  0
    5.1672    1.2388   -1.1371 C   0  0  0  0  0  0  0  0  0  0  0  0
    5.9998    0.3948   -0.4344 C   0  0  0  0  0  0  0  0  0  0  0  0
    5.5052   -0.5983    0.3563 C   0  0  0  0  0  0  0  0  0  0  0  0
    4.1415   -0.7400    0.4374 C   0  0  0  0  0  0  0  0  0  0  0  0
    3.2513    0.0691   -0.2384 C   0  0  0  0  0  0  0  0  0  0  0  0
    1.8037   -0.1178   -0.1299 C   0  0  0  0  0  0  0  0  0  0  0  0
    0.8830    0.8967   -0.2173 C   0  0  0  0  0  0  0  0  0  0  0  0
   -0.4787    0.6906   -0.1164 C   0  0  0  0  0  0  0  0  0  0  0  0
   -0.9125   -0.6066    0.0819 C   0  0  0  0  0  0  0  0  0  0  0  0
   -2.2667   -0.8237    0.1822 C   0  0  0  0  0  0  0  0  0  0  0  0
   -3.2101    0.3044    0.0823 C   0  0  0  0  0  0  0  0  0  0  0  0
   -3.6079    1.0113    1.1879 C   0  0  0  0  0  0  0  0  0  0  0  0
   -4.4888    2.0503    1.0422 C   0  0  0  0  0  0  0  0  0  0  0  0
   -5.0200    2.4452   -0.1874 C   0  0  0  0  0  0  0  0  0  0  0  0
   -4.5944    1.7094   -1.2663 C   0  0  0  0  0  0  0  0  0  0  0  0
   -3.7118    0.6631   -1.1462 C   0  0  0  0  0  0  0  0  0  0  0  0
   -2.7010   -2.1139    0.3779 C   0  0  0  0  0  0  0  0  0  0  0  0
   -4.0487   -2.3396    0.4784 O   0  0  0  0  0  0  0  0  0  0  0  0
   -1.8471   -3.1882    0.4769 C   0  0  0  0  0  0  0  0  0  0  0  0
   -0.4937   -2.9513    0.3741 C   0  0  0  0  0  0  0  0  0  0  0  0
   -0.0209   -1.6787    0.1788 C   0  0  0  0  0  0  0  0  0  0  0  0
    1.3272   -1.4145    0.0709 C   0  0  0  0  0  0  0  0  0  0  0  0
    3.8043    1.0601   -1.0259 C   0  0  0  0  0  0  0  0  0  0  0  0
    6.1073    3.0474   -1.4260 H   0  0  0  0  0  0  0  0  0  0  0  0
    7.0765    0.5137   -0.5039 H   0  0  0  0  0  0  0  0  0  0  0  0
    6.1444   -1.2623    0.9089 H   0  0  0  0  0  0  0  0  0  0  0  0
    3.7485   -1.5313    1.0680 H   0  0  0  0  0  0  0  0  0  0  0  0
    1.2640    1.8933   -0.3723 H   0  0  0  0  0  0  0  0  0  0  0  0
   -1.1837    1.5190   -0.1901 H   0  0  0  0  0  0  0  0  0  0  0  0
   -3.2271    0.7508    2.1784 H   0  0  0  0  0  0  0  0  0  0  0  0
   -4.8369    2.6459    1.8993 H   0  0  0  0  0  0  0  0  0  0  0  0
   -5.7137    3.2672   -0.2879 H   0  0  0  0  0  0  0  0  0  0  0  0
   -4.9703    1.9672   -2.2470 H   0  0  0  0  0  0  0  0  0  0  0  0
   -3.4099    0.1138   -2.0472 H   0  0  0  0  0  0  0  0  0  0  0  0
   -4.4773   -2.6392    1.3200 H   0  0  0  0  0  0  0  0  0  0  0  0
   -2.1806   -4.2043    0.6306 H   0  0  0  0  0  0  0  0  0  0  0  0
    0.2466   -3.7423    0.4420 H   0  0  0  0  0  0  0  0  0  0  0  0
    2.0441   -2.2313    0.1430 H   0  0  0  0  0  0  0  0  0  0  0  0
    3.1501    1.7044   -1.5628 H   0  0  0  0  0  0  0  0  0  0  0  0
  1  2  1  0
  2  3  2  0
  3  4  1  0
  4  5  2  0
  5  6  1  0
  6  7  1  0
  7  8  2  0
  8  9  1  0
  9 10  2  0
 10 11  1  0
 11 12  1  0
 12 13  2  0
 13 14  1  0
 14 15  2  0
 15 16  1  0
 16 17  2  0
 11 18  2  0
 18 19  1  0
 18 20  1  0
 20 21  2  0
 21 22  1  0
 22 23  2  0
  6 24  2  0
 24  2  1  0
 23  7  1  0
 22 10  1  0
 17 12  1  0
  1 25  1  0
  3 26  1  0
  4 27  1  0
  5 28  1  0
  8 29  1  0
  9 30  1  0
 13 31  1  0
 14 32  1  0
 15 33  1  0
 16 34  1  0
 17 35  1  0
 19 36  1  0
 20 37  1  0
 21 38  1  0
 23 39  1  0
 24 40  1  0
M  END
$$$$
