@<TRIPOS>MOLECULE
*****
 40 43 0 0 0
SMALL
GASTEIGER

@<TRIPOS>ATOM
      1 O           5.7373    2.2271   -1.9221 O.3     1  UNL1       -0.5067
      2 C           5.1672    1.2388   -1.1371 C.ar    1  UNL1        0.1174
      3 C           5.9998    0.3948   -0.4344 C.ar    1  UNL1       -0.0201
      4 C           5.5052   -0.5983    0.3563 C.ar    1  UNL1       -0.0577
      5 C           4.1415   -0.7400    0.4374 C.ar    1  UNL1       -0.0538
      6 C           3.2513    0.0691   -0.2384 C.ar    1  UNL1       -0.0144
      7 C           1.8037   -0.1178   -0.1299 C.ar    1  UNL1       -0.0172
      8 C           0.8830    0.8967   -0.2173 C.ar    1  UNL1       -0.0534
      9 C          -0.4787    0.6906   -0.1164 C.ar    1  UNL1       -0.0528
     10 C          -0.9125   -0.6066    0.0819 C.ar    1  UNL1       -0.0067
     11 C          -2.2667   -0.8237    0.1822 C.ar    1  UNL1        0.0312
     12 C          -3.2101    0.3044    0.0823 C.ar    1  UNL1       -0.0138
     13 C          -3.6079    1.0113    1.1879 C.ar    1  UNL1       -0.0539
     14 C          -4.4888    2.0503    1.0422 C.ar    1  UNL1       -0.0612
     15 C          -5.0200    2.4452   -0.1874 C.ar    1  UNL1       -0.0617
     16 C          -4.5944    1.7094   -1.2663 C.ar    1  UNL1       -0.0612
     17 C          -3.7118    0.6631   -1.1462 C.ar    1  UNL1       -0.0539
     18 C          -2.7010   -2.1139    0.3779 C.ar    1  UNL1        0.1251
     19 O          -4.0487   -2.3396    0.4784 O.3     1  UNL1       -0.5061
     20 C          -1.8471   -3.1882    0.4769 C.ar    1  UNL1       -0.0190
     21 C          -0.4937   -2.9513    0.3741 C.ar    1  UNL1       -0.0505
     22 C          -0.0209   -1.6787    0.1788 C.ar    1  UNL1       -0.0165
     23 C           1.3272   -1.4145    0.0709 C.ar    1  UNL1       -0.0463
     24 C           3.8043    1.0601   -1.0259 C.ar    1  UNL1       -0.0125
     25 H           6.1073    3.0474   -1.4260 H       1  UNL1        0.2921
     26 H           7.0765    0.5137   -0.5039 H       1  UNL1        0.0654
     27 H           6.1444   -1.2623    0.9089 H       1  UNL1        0.0619
     28 H           3.7485   -1.5313    1.0680 H       1  UNL1        0.0624
     29 H           1.2640    1.8933   -0.3723 H       1  UNL1        0.0624
     30 H          -1.1837    1.5190   -0.1901 H       1  UNL1        0.0624
     31 H          -3.2271    0.7508    2.1784 H       1  UNL1        0.0624
     32 H          -4.8369    2.6459    1.8993 H       1  UNL1        0.0618
     33 H          -5.7137    3.2672   -0.2879 H       1  UNL1        0.0618
     34 H          -4.9703    1.9672   -2.2470 H       1  UNL1        0.0618
     35 H          -3.4099    0.1138   -2.0472 H       1  UNL1        0.0624
     36 H          -4.4773   -2.6392    1.3200 H       1  UNL1        0.2922
     37 H          -2.1806   -4.2043    0.6306 H       1  UNL1        0.0654
     38 H           0.2466   -3.7423    0.4420 H       1  UNL1        0.0625
     39 H           2.0441   -2.2313    0.1430 H       1  UNL1        0.0630
     40 H           3.1501    1.7044   -1.5628 H       1  UNL1        0.0660
@<TRIPOS>BOND
     1     1     2    1
     2     2     3   ar
     3     3     4   ar
     4     4     5   ar
     5     5     6   ar
     6     6     7    1
     7     7     8   ar
     8     8     9   ar
     9     9    10   ar
    10    10    11   ar
    11    11    12    1
    12    12    13   ar
    13    13    14   ar
    14    14    15   ar
    15    15    16   ar
    16    16    17   ar
    17    11    18   ar
    18    18    19    1
    19    18    20   ar
    20    20    21   ar
    21    21    22   ar
    22    22    23   ar
    23     6    24   ar
    24    24     2   ar
    25    23     7   ar
    26    22    10   ar
    27    17    12   ar
    28     1    25    1
    29     3    26    1
    30     4    27    1
    31     5    28    1
    32     8    29    1
    33     9    30    1
    34    13    31    1
    35    14    32    1
    36    15    33    1
    37    16    34    1
    38    17    35    1
    39    19    36    1
    40    20    37    1
    41    21    38    1
    42    23    39    1
    43    24    40    1
