@<TRIPOS>MOLECULE
*****
 33 34 0 0 0
SMALL
GASTEIGER

@<TRIPOS>ATOM
      1 C           5.8570    1.2566    0.0560 C.3     1  UNL1        0.0788
      2 O           5.1741    0.0422    0.1194 O.3     1  UNL1       -0.4951
      3 C           3.7955   -0.1116    0.2012 C.ar    1  UNL1        0.1207
      4 C           2.8061    0.8720    0.2380 C.ar    1  UNL1       -0.0122
      5 C           1.5050    0.4886    0.3199 C.ar    1  UNL1       -0.0144
      6 C           1.0850   -0.8272    0.3704 C.ar    1  UNL1       -0.0174
      7 C           2.0618   -1.8022    0.3343 C.ar    1  UNL1       -0.0506
      8 C           3.3878   -1.4480    0.2514 C.ar    1  UNL1       -0.0194
      9 C          -0.2214   -1.2038    0.4527 C.ar    1  UNL1       -0.0508
     10 C          -1.1880   -0.2442    0.4888 C.ar    1  UNL1       -0.0464
     11 C          -2.6515   -0.4569    0.5761 C.3     1  UNL1       -0.0210
     12 C          -3.2014   -0.5522   -0.8170 C.3     1  UNL1        0.0095
     13 C          -4.6767   -0.7658   -0.7183 C.2     1  UNL1        0.1306
     14 C          -5.5588    0.4251   -0.9499 C.3     1  UNL1       -0.0061
     15 O          -5.1265   -1.8631   -0.4607 O.2     1  UNL1       -0.2977
     16 C          -0.7874    1.0918    0.4390 C.ar    1  UNL1       -0.0580
     17 C           0.5494    1.4870    0.3546 C.ar    1  UNL1       -0.0537
     18 H           6.1511    1.6447    1.0502 H       1  UNL1        0.0660
     19 H           6.8336    1.0487   -0.4664 H       1  UNL1        0.0660
     20 H           5.3361    1.9889   -0.5803 H       1  UNL1        0.0660
     21 H           3.2016    1.8580    0.1954 H       1  UNL1        0.0660
     22 H           1.7527   -2.8447    0.3725 H       1  UNL1        0.0625
     23 H           4.0909   -2.2891    0.2284 H       1  UNL1        0.0654
     24 H          -0.5655   -2.2184    0.4926 H       1  UNL1        0.0626
     25 H          -2.8869   -1.4154    1.1141 H       1  UNL1        0.0317
     26 H          -3.1523    0.3391    1.1787 H       1  UNL1        0.0317
     27 H          -2.6981   -1.4179   -1.2994 H       1  UNL1        0.0345
     28 H          -2.9766    0.3803   -1.3752 H       1  UNL1        0.0345
     29 H          -5.1920    0.9425   -1.8581 H       1  UNL1        0.0306
     30 H          -5.4125    1.0599   -0.0480 H       1  UNL1        0.0306
     31 H          -6.6113    0.1068   -1.0716 H       1  UNL1        0.0306
     32 H          -1.5086    1.9070    0.4635 H       1  UNL1        0.0620
     33 H           0.8279    2.5214    0.3183 H       1  UNL1        0.0624
@<TRIPOS>BOND
     1     1     2    1
     2     2     3    1
     3     3     4   ar
     4     4     5   ar
     5     5     6   ar
     6     6     7   ar
     7     7     8   ar
     8     6     9   ar
     9     9    10   ar
    10    10    11    1
    11    11    12    1
    12    12    13    1
    13    13    14    1
    14    13    15    2
    15    10    16   ar
    16    16    17   ar
    17     8     3   ar
    18    17     5   ar
    19     1    18    1
    20     1    19    1
    21     1    20    1
    22     4    21    1
    23     7    22    1
    24     8    23    1
    25     9    24    1
    26    11    25    1
    27    11    26    1
    28    12    27    1
    29    12    28    1
    30    14    29    1
    31    14    30    1
    32    14    31    1
    33    16    32    1
    34    17    33    1
