
     RDKit          3D

 33 34  0  0  0  0  0  0  0  0999 V2000
    5.8570    1.2566    0.0560 C   0  0  0  0  0  0  0  0  0  0  0  0
    5.1741    0.0422    0.1194 O   0  0  0  0  0  0  0  0  0  0  0  0
    3.7955   -0.1116    0.2012 C   0  0  0  0  0  0  0  0  0  0  0  0
    2.8061    0.8720    0.2380 C   0  0  0  0  0  0  0  0  0  0  0  0
    1.5050    0.4886    0.3199 C   0  0  0  0  0  0  0  0  0  0  0  0
    1.0850   -0.8272    0.3704 C   0  0  0  0  0  0  0  0  0  0  0  0
    2.0618   -1.8022    0.3343 C   0  0  0  0  0  0  0  0  0  0  0  0
    3.3878   -1.4480    0.2514 C   0  0  0  0  0  0  0  0  0  0  0  0
   -0.2214   -1.2038    0.4527 C   0  0  0  0  0  0  0  0  0  0  0  0
   -1.1880   -0.2442    0.4888 C   0  0  0  0  0  0  0  0  0  0  0  0
   -2.6515   -0.4569    0.5761 C   0  0  0  0  0  0  0  0  0  0  0  0
   -3.2014   -0.5522   -0.8170 C   0  0  0  0  0  0  0  0  0  0  0  0
   -4.6767   -0.7658   -0.7183 C   0  0  0  0  0  0  0  0  0  0  0  0
   -5.5588    0.4251   -0.9499 C   0  0  0  0  0  0  0  0  0  0  0  0
   -5.1265   -1.8631   -0.4607 O   0  0  0  0  0  0  0  0  0  0  0  0
   -0.7874    1.0918    0.4390 C   0  0  0  0  0  0  0  0  0  0  0  0
    0.5494    1.4870    0.3546 C   0  0  0  0  0  0  0  0  0  0  0  0
    6.1511    1.6447    1.0502 H   0  0  0  0  0  0  0  0  0  0  0  0
    6.8336    1.0487   -0.4664 H   0  0  0  0  0  0  0  0  0  0  0  0
    5.3361    1.9889   -0.5803 H   0  0  0  0  0  0  0  0  0  0  0  0
    3.2016    1.8580    0.1954 H   0  0  0  0  0  0  0  0  0  0  0  0
    1.7527   -2.8447    0.3725 H   0  0  0  0  0  0  0  0  0  0  0  0
    4.0909   -2.2891    0.2284 H   0  0  0  0  0  0  0  0  0  0  0  0
   -0.5655   -2.2184    0.4926 H   0  0  0  0  0  0  0  0  0  0  0  0
   -2.8869   -1.4154    1.1141 H   0  0  0  0  0  0  0  0  0  0  0  0
   -3.1523    0.3391    1.1787 H   0  0  0  0  0  0  0  0  0  0  0  0
   -2.6981   -1.4179   -1.2994 H   0  0  0  0  0  0  0  0  0  0  0  0
   -2.9766    0.3803   -1.3752 H   0  0  0  0  0  0  0  0  0  0  0  0
   -5.1920    0.9425   -1.8581 H   0  0  0  0  0  0  0  0  0  0  0  0
   -5.4125    1.0599   -0.0480 H   0  0  0  0  0  0  0  0  0  0  0  0
   -6.6113    0.1068   -1.0716 H   0  0  0  0  0  0  0  0  0  0  0  0
   -1.5086    1.9070    0.4635 H   0  0  0  0  0  0  0  0  0  0  0  0
    0.8279    2.5214    0.3183 H   0  0  0  0  0  0  0  0  0  0  0  0
  1  2  1  0
  2  3  1  0
  3  4  2  0
  4  5  1  0
  5  6  2  0
  6  7  1  0
  7  8  2  0
  6  9  1  0
  9 10  2  0
 10 11  1  0
 11 12  1  0
 12 13  1  0
 13 14  1  0
 13 15  2  0
 10 16  1  0
 16 17  2  0
  8  3  1  0
 17  5  1  0
  1 18  1  0
  1 19  1  0
  1 20  1  0
  4 21  1  0
  7 22  1  0
  8 23  1  0
  9 24  1  0
 11 25  1  0
 11 26  1  0
 12 27  1  0
 12 28  1  0
 14 29  1  0
 14 30  1  0
 14 31  1  0
 16 32  1  0
 17 33  1  0
M  END
$$$$
