
     RDKit          3D

 59 61  0  0  0  0  0  0  0  0999 V2000
   -1.0375    0.5094    3.0656 C   0  0  0  0  0  0  0  0  0  0  0  0
   -1.2439    0.3761    1.6823 O   0  0  0  0  0  0  0  0  0  0  0  0
   -0.2156    0.6268    0.8054 C   0  0  0  0  0  0  0  0  0  0  0  0
    1.0481    1.0151    1.2662 C   0  0  0  0  0  0  0  0  0  0  0  0
    2.0956    1.2692    0.4051 C   0  0  0  0  0  0  0  0  0  0  0  0
    3.3986    1.6967    0.9132 C   0  0  0  0  0  0  0  0  0  0  0  0
    4.4033    0.6950    1.1926 C   0  0  0  0  0  0  0  0  0  0  0  0
    5.6290    1.1826    1.6800 C   0  0  0  0  0  0  0  0  0  0  0  0
    6.6402    0.3583    1.9741 N   0  0  0  0  0  0  0  0  0  0  0  0
    6.5417   -0.9719    1.8213 C   0  0  0  0  0  0  0  0  0  0  0  0
    7.6334   -1.8428    2.1401 N   0  0  0  0  0  0  0  0  0  0  0  0
    5.3813   -1.4455    1.3590 N   0  0  0  0  0  0  0  0  0  0  0  0
    4.3264   -0.6547    1.0461 C   0  0  0  0  0  0  0  0  0  0  0  0
    3.1191   -1.2327    0.5562 N   0  0  0  0  0  0  0  0  0  0  0  0
    1.8229    1.1151   -0.9397 C   0  0  0  0  0  0  0  0  0  0  0  0
    0.5619    0.7251   -1.4133 C   0  0  0  0  0  0  0  0  0  0  0  0
   -0.4613    0.4834   -0.5428 C   0  0  0  0  0  0  0  0  0  0  0  0
   -1.7977    0.1808   -0.9851 N   0  0  0  0  0  0  0  0  0  0  0  0
   -2.9653    0.3671   -0.1706 C   0  0  0  0  0  0  0  0  0  0  0  0
   -3.6561   -0.8958    0.2651 C   0  0  0  0  0  0  0  0  0  0  0  0
   -4.7871   -0.5189    1.0684 O   0  0  0  0  0  0  0  0  0  0  0  0
   -5.6365   -1.4344    1.6258 C   0  0  0  0  0  0  0  0  0  0  0  0
   -6.7985   -0.9996    2.4531 C   0  0  0  0  0  0  0  0  0  0  0  0
   -5.4150   -2.6551    1.4251 O   0  0  0  0  0  0  0  0  0  0  0  0
   -1.9398   -0.3205   -2.3476 C   0  0  0  0  0  0  0  0  0  0  0  0
   -2.1659   -1.8075   -2.3609 C   0  0  0  0  0  0  0  0  0  0  0  0
   -3.1558    0.3462   -2.9982 C   0  0  0  0  0  0  0  0  0  0  0  0
   -0.8009   -0.0134   -3.2127 C   0  0  0  0  0  0  0  0  0  0  0  0
    0.3657    0.4628   -2.8351 C   0  0  0  0  0  0  0  0  0  0  0  0
    1.4910    0.7478   -3.7585 C   0  0  0  0  0  0  0  0  0  0  0  0
   -1.9818    0.3875    3.6404 H   0  0  0  0  0  0  0  0  0  0  0  0
   -0.3398   -0.2830    3.4173 H   0  0  0  0  0  0  0  0  0  0  0  0
   -0.6043    1.4956    3.3115 H   0  0  0  0  0  0  0  0  0  0  0  0
    1.1987    1.1161    2.3318 H   0  0  0  0  0  0  0  0  0  0  0  0
    3.2883    2.3160    1.8635 H   0  0  0  0  0  0  0  0  0  0  0  0
    3.8837    2.4537    0.2147 H   0  0  0  0  0  0  0  0  0  0  0  0
    5.7725    2.2355    1.8254 H   0  0  0  0  0  0  0  0  0  0  0  0
    8.4897   -1.8650    1.5331 H   0  0  0  0  0  0  0  0  0  0  0  0
    7.6381   -2.4821    2.9633 H   0  0  0  0  0  0  0  0  0  0  0  0
    3.0368   -1.3948   -0.4687 H   0  0  0  0  0  0  0  0  0  0  0  0
    2.3792   -1.4789    1.2408 H   0  0  0  0  0  0  0  0  0  0  0  0
    2.6026    1.2995   -1.6473 H   0  0  0  0  0  0  0  0  0  0  0  0
   -2.9605    1.1895    0.5383 H   0  0  0  0  0  0  0  0  0  0  0  0
   -3.7270    0.7867   -0.9378 H   0  0  0  0  0  0  0  0  0  0  0  0
   -4.1265   -1.4270   -0.5993 H   0  0  0  0  0  0  0  0  0  0  0  0
   -3.0167   -1.6299    0.7586 H   0  0  0  0  0  0  0  0  0  0  0  0
   -7.7213   -1.4988    2.1531 H   0  0  0  0  0  0  0  0  0  0  0  0
   -6.9369    0.0988    2.3066 H   0  0  0  0  0  0  0  0  0  0  0  0
   -6.6177   -1.1517    3.5356 H   0  0  0  0  0  0  0  0  0  0  0  0
   -1.4471   -2.2748   -3.0574 H   0  0  0  0  0  0  0  0  0  0  0  0
   -2.0114   -2.2488   -1.3441 H   0  0  0  0  0  0  0  0  0  0  0  0
   -3.1728   -2.0159   -2.7148 H   0  0  0  0  0  0  0  0  0  0  0  0
   -4.0900   -0.1613   -2.7143 H   0  0  0  0  0  0  0  0  0  0  0  0
   -3.1543    1.4285   -2.8813 H   0  0  0  0  0  0  0  0  0  0  0  0
   -3.0304    0.1407   -4.1022 H   0  0  0  0  0  0  0  0  0  0  0  0
   -0.9559   -0.2080   -4.2879 H   0  0  0  0  0  0  0  0  0  0  0  0
    1.9866    1.7201   -3.5518 H   0  0  0  0  0  0  0  0  0  0  0  0
    2.1704   -0.1126   -3.7214 H   0  0  0  0  0  0  0  0  0  0  0  0
    1.0666    0.7827   -4.7862 H   0  0  0  0  0  0  0  0  0  0  0  0
  1  2  1  0
  2  3  1  0
  3  4  2  0
  4  5  1  0
  5  6  1  0
  6  7  1  0
  7  8  2  0
  8  9  1  0
  9 10  2  0
 10 11  1  0
 10 12  1  0
 12 13  2  0
 13 14  1  0
  5 15  2  0
 15 16  1  0
 16 17  2  0
 17 18  1  0
 18 19  1  0
 19 20  1  0
 20 21  1  0
 21 22  1  0
 22 23  1  0
 22 24  2  0
 18 25  1  0
 25 26  1  0
 25 27  1  0
 25 28  1  0
 28 29  2  0
 29 30  1  0
 17  3  1  0
 13  7  1  0
 29 16  1  0
  1 31  1  0
  1 32  1  0
  1 33  1  0
  4 34  1  0
  6 35  1  0
  6 36  1  0
  8 37  1  0
 11 38  1  0
 11 39  1  0
 14 40  1  0
 14 41  1  0
 15 42  1  0
 19 43  1  0
 19 44  1  0
 20 45  1  0
 20 46  1  0
 23 47  1  0
 23 48  1  0
 23 49  1  0
 26 50  1  0
 26 51  1  0
 26 52  1  0
 27 53  1  0
 27 54  1  0
 27 55  1  0
 28 56  1  0
 30 57  1  0
 30 58  1  0
 30 59  1  0
M  END
$$$$
