@<TRIPOS>MOLECULE
*****
 59 61 0 0 0
SMALL
GASTEIGER

@<TRIPOS>ATOM
      1 C          -1.0375    0.5094    3.0656 C.3     1  UNL1        0.0789
      2 O          -1.2439    0.3761    1.6823 O.3     1  UNL1       -0.4932
      3 C          -0.2156    0.6268    0.8054 C.ar    1  UNL1        0.1419
      4 C           1.0481    1.0151    1.2662 C.ar    1  UNL1       -0.0146
      5 C           2.0956    1.2692    0.4051 C.ar    1  UNL1       -0.0388
      6 C           3.3986    1.6967    0.9132 C.3     1  UNL1        0.0024
      7 C           4.4033    0.6950    1.1926 C.ar    1  UNL1        0.0146
      8 C           5.6290    1.1826    1.6800 C.ar    1  UNL1        0.0379
      9 N           6.6402    0.3583    1.9741 N.ar    1  UNL1       -0.2227
     10 C           6.5417   -0.9719    1.8213 C.ar    1  UNL1        0.2142
     11 N           7.6334   -1.8428    2.1401 N.pl3   1  UNL1       -0.3274
     12 N           5.3813   -1.4455    1.3590 N.ar    1  UNL1       -0.1999
     13 C           4.3264   -0.6547    1.0461 C.ar    1  UNL1        0.1247
     14 N           3.1191   -1.2327    0.5562 N.pl3   1  UNL1       -0.3428
     15 C           1.8229    1.1151   -0.9397 C.ar    1  UNL1       -0.0489
     16 C           0.5619    0.7251   -1.4133 C.ar    1  UNL1        0.0026
     17 C          -0.4613    0.4834   -0.5428 C.ar    1  UNL1        0.0802
     18 N          -1.7977    0.1808   -0.9851 N.pl3   1  UNL1       -0.3147
     19 C          -2.9653    0.3671   -0.1706 C.3     1  UNL1        0.0474
     20 C          -3.6561   -0.8958    0.2651 C.3     1  UNL1        0.1081
     21 O          -4.7871   -0.5189    1.0684 O.3     1  UNL1       -0.4632
     22 C          -5.6365   -1.4344    1.6258 C.2     1  UNL1        0.3040
     23 C          -6.7985   -0.9996    2.4531 C.3     1  UNL1        0.0332
     24 O          -5.4150   -2.6551    1.4251 O.2     1  UNL1       -0.2512
     25 C          -1.9398   -0.3205   -2.3476 C.3     1  UNL1        0.0484
     26 C          -2.1659   -1.8075   -2.3609 C.3     1  UNL1       -0.0402
     27 C          -3.1558    0.3462   -2.9982 C.3     1  UNL1       -0.0402
     28 C          -0.8009   -0.0134   -3.2127 C.2     1  UNL1       -0.0578
     29 C           0.3657    0.4628   -2.8351 C.2     1  UNL1       -0.0433
     30 C           1.4910    0.7478   -3.7585 C.3     1  UNL1       -0.0393
     31 H          -1.9818    0.3875    3.6404 H       1  UNL1        0.0660
     32 H          -0.3398   -0.2830    3.4173 H       1  UNL1        0.0660
     33 H          -0.6043    1.4956    3.3115 H       1  UNL1        0.0660
     34 H           1.1987    1.1161    2.3318 H       1  UNL1        0.0657
     35 H           3.2883    2.3160    1.8635 H       1  UNL1        0.0363
     36 H           3.8837    2.4537    0.2147 H       1  UNL1        0.0363
     37 H           5.7725    2.2355    1.8254 H       1  UNL1        0.0834
     38 H           8.4897   -1.8650    1.5331 H       1  UNL1        0.1452
     39 H           7.6381   -2.4821    2.9633 H       1  UNL1        0.1452
     40 H           3.0368   -1.3948   -0.4687 H       1  UNL1        0.1437
     41 H           2.3792   -1.4789    1.2408 H       1  UNL1        0.1437
     42 H           2.6026    1.2995   -1.6473 H       1  UNL1        0.0627
     43 H          -2.9605    1.1895    0.5383 H       1  UNL1        0.0497
     44 H          -3.7270    0.7867   -0.9378 H       1  UNL1        0.0497
     45 H          -4.1265   -1.4270   -0.5993 H       1  UNL1        0.0713
     46 H          -3.0167   -1.6299    0.7586 H       1  UNL1        0.0713
     47 H          -7.7213   -1.4988    2.1531 H       1  UNL1        0.0342
     48 H          -6.9369    0.0988    2.3066 H       1  UNL1        0.0342
     49 H          -6.6177   -1.1517    3.5356 H       1  UNL1        0.0342
     50 H          -1.4471   -2.2748   -3.0574 H       1  UNL1        0.0253
     51 H          -2.0114   -2.2488   -1.3441 H       1  UNL1        0.0253
     52 H          -3.1728   -2.0159   -2.7148 H       1  UNL1        0.0253
     53 H          -4.0900   -0.1613   -2.7143 H       1  UNL1        0.0253
     54 H          -3.1543    1.4285   -2.8813 H       1  UNL1        0.0253
     55 H          -3.0304    0.1407   -4.1022 H       1  UNL1        0.0253
     56 H          -0.9559   -0.2080   -4.2879 H       1  UNL1        0.0596
     57 H           1.9866    1.7201   -3.5518 H       1  UNL1        0.0278
     58 H           2.1704   -0.1126   -3.7214 H       1  UNL1        0.0278
     59 H           1.0666    0.7827   -4.7862 H       1  UNL1        0.0278
@<TRIPOS>BOND
     1     1     2    1
     2     2     3    1
     3     3     4   ar
     4     4     5   ar
     5     5     6    1
     6     6     7    1
     7     7     8   ar
     8     8     9   ar
     9     9    10   ar
    10    10    11    1
    11    10    12   ar
    12    12    13   ar
    13    13    14    1
    14     5    15   ar
    15    15    16   ar
    16    16    17   ar
    17    17    18    1
    18    18    19    1
    19    19    20    1
    20    20    21    1
    21    21    22    1
    22    22    23    1
    23    22    24    2
    24    18    25    1
    25    25    26    1
    26    25    27    1
    27    25    28    1
    28    28    29    2
    29    29    30    1
    30    17     3   ar
    31    13     7   ar
    32    29    16    1
    33     1    31    1
    34     1    32    1
    35     1    33    1
    36     4    34    1
    37     6    35    1
    38     6    36    1
    39     8    37    1
    40    11    38    1
    41    11    39    1
    42    14    40    1
    43    14    41    1
    44    15    42    1
    45    19    43    1
    46    19    44    1
    47    20    45    1
    48    20    46    1
    49    23    47    1
    50    23    48    1
    51    23    49    1
    52    26    50    1
    53    26    51    1
    54    26    52    1
    55    27    53    1
    56    27    54    1
    57    27    55    1
    58    28    56    1
    59    30    57    1
    60    30    58    1
    61    30    59    1
