@<TRIPOS>MOLECULE
*****
 51 54 0 0 0
SMALL
GASTEIGER

@<TRIPOS>ATOM
      1 N          -4.1358    1.4207   -0.8227 N.3     1  UNL1       -0.3265
      2 C          -2.7873    0.8390   -0.7164 C.3     1  UNL1        0.0172
      3 C          -1.8638    1.9341   -0.2982 C.3     1  UNL1        0.0396
      4 C          -0.4683    1.5343   -0.1441 C.2     1  UNL1        0.2177
      5 O          -0.1338    0.3500   -0.3742 O.2     1  UNL1       -0.2755
      6 N           0.5112    2.4595    0.2598 N.am    1  UNL1       -0.2897
      7 C           0.2231    3.8610    0.5512 C.3     1  UNL1        0.0155
      8 C           1.1723    4.2255    1.6804 C.3     1  UNL1       -0.0350
      9 C           2.0786    3.0240    1.8458 C.3     1  UNL1       -0.0241
     10 C           1.9260    2.3346    0.4845 C.3     1  UNL1        0.1048
     11 C           2.4054    0.9405    0.5916 C.ar    1  UNL1        0.2482
     12 N           3.4823    0.3938    0.0042 N.ar    1  UNL1       -0.1884
     13 C           3.5770   -0.8853    0.3473 C.ar    1  UNL1        0.2204
     14 C           4.5809   -1.8772   -0.0456 C.ar    1  UNL1        0.1111
     15 C           5.5408   -1.5355   -0.9741 C.ar    1  UNL1       -0.0325
     16 C           6.5182   -2.4386   -1.3832 C.ar    1  UNL1       -0.0582
     17 C           6.5201   -3.7044   -0.8425 C.ar    1  UNL1       -0.0436
     18 C           5.5462   -4.0100    0.0819 C.ar    1  UNL1        0.0284
     19 N           4.6139   -3.1200    0.4601 N.ar    1  UNL1       -0.2517
     20 N           2.5326   -1.1251    1.1639 N.ar    1  UNL1       -0.0544
     21 O           1.8609   -0.0228    1.2862 O.2     1  UNL1       -0.3357
     22 C          -2.8998   -0.2780    0.2810 C.3     1  UNL1       -0.0092
     23 C          -3.8932   -1.2621   -0.2446 C.ar    1  UNL1       -0.0078
     24 C          -5.1820   -1.3510    0.2497 C.ar    1  UNL1       -0.0176
     25 C          -6.0868   -2.2605   -0.2433 C.ar    1  UNL1        0.1588
     26 F          -7.3537   -2.3510    0.2404 F       1  UNL1       -0.2025
     27 C          -5.7335   -3.1258   -1.2611 C.ar    1  UNL1        0.1611
     28 F          -6.6007   -4.0357   -1.7709 F       1  UNL1       -0.2024
     29 C          -4.4601   -3.0578   -1.7694 C.ar    1  UNL1        0.0119
     30 C          -3.5536   -2.1319   -1.2608 C.ar    1  UNL1        0.1295
     31 F          -2.2981   -2.0763   -1.7729 F       1  UNL1       -0.2051
     32 H          -4.8025    0.6717   -1.1167 H       1  UNL1        0.1185
     33 H          -4.3999    1.6929    0.1485 H       1  UNL1        0.1185
     34 H          -2.5344    0.4380   -1.7164 H       1  UNL1        0.0466
     35 H          -1.9067    2.7343   -1.0669 H       1  UNL1        0.0374
     36 H          -2.2600    2.4215    0.6398 H       1  UNL1        0.0374
     37 H           0.5010    4.5028   -0.3200 H       1  UNL1        0.0465
     38 H          -0.8079    4.0062    0.8852 H       1  UNL1        0.0465
     39 H           1.8387    5.0829    1.4000 H       1  UNL1        0.0281
     40 H           0.6316    4.4563    2.6187 H       1  UNL1        0.0281
     41 H           1.7405    2.3445    2.6573 H       1  UNL1        0.0288
     42 H           3.1410    3.3295    1.9567 H       1  UNL1        0.0288
     43 H           2.5313    2.9292   -0.2237 H       1  UNL1        0.0599
     44 H           5.5710   -0.5484   -1.4210 H       1  UNL1        0.0640
     45 H           7.2760   -2.1520   -2.1237 H       1  UNL1        0.0619
     46 H           7.2782   -4.4441   -1.1431 H       1  UNL1        0.0633
     47 H           5.5705   -5.0190    0.4940 H       1  UNL1        0.0830
     48 H          -3.3414    0.1038    1.2379 H       1  UNL1        0.0329
     49 H          -1.9682   -0.7827    0.5202 H       1  UNL1        0.0329
     50 H          -5.5066   -0.6970    1.0444 H       1  UNL1        0.0651
     51 H          -4.1911   -3.7384   -2.5658 H       1  UNL1        0.0676
@<TRIPOS>BOND
     1     1     2    1
     2     2     3    1
     3     3     4    1
     4     4     5    2
     5     4     6   am
     6     6     7    1
     7     7     8    1
     8     8     9    1
     9     9    10    1
    10    10    11    1
    11    11    12   ar
    12    12    13   ar
    13    13    14    1
    14    14    15   ar
    15    15    16   ar
    16    16    17   ar
    17    17    18   ar
    18    18    19   ar
    19    13    20   ar
    20    20    21   ar
    21     2    22    1
    22    22    23    1
    23    23    24   ar
    24    24    25   ar
    25    25    26    1
    26    25    27   ar
    27    27    28    1
    28    27    29   ar
    29    29    30   ar
    30    30    31    1
    31    10     6    1
    32    21    11   ar
    33    30    23   ar
    34    19    14   ar
    35     1    32    1
    36     1    33    1
    37     2    34    1
    38     3    35    1
    39     3    36    1
    40     7    37    1
    41     7    38    1
    42     8    39    1
    43     8    40    1
    44     9    41    1
    45     9    42    1
    46    10    43    1
    47    15    44    1
    48    16    45    1
    49    17    46    1
    50    18    47    1
    51    22    48    1
    52    22    49    1
    53    24    50    1
    54    29    51    1
