
     RDKit          3D

 51 54  0  0  0  0  0  0  0  0999 V2000
   -4.1358    1.4207   -0.8227 N   0  0  0  0  0  0  0  0  0  0  0  0
   -2.7873    0.8390   -0.7164 C   0  0  1  0  0  0  0  0  0  0  0  0
   -1.8638    1.9341   -0.2982 C   0  0  0  0  0  0  0  0  0  0  0  0
   -0.4683    1.5343   -0.1441 C   0  0  0  0  0  0  0  0  0  0  0  0
   -0.1338    0.3500   -0.3742 O   0  0  0  0  0  0  0  0  0  0  0  0
    0.5112    2.4595    0.2598 N   0  0  0  0  0  0  0  0  0  0  0  0
    0.2231    3.8610    0.5512 C   0  0  0  0  0  0  0  0  0  0  0  0
    1.1723    4.2255    1.6804 C   0  0  0  0  0  0  0  0  0  0  0  0
    2.0786    3.0240    1.8458 C   0  0  0  0  0  0  0  0  0  0  0  0
    1.9260    2.3346    0.4845 C   0  0  1  0  0  0  0  0  0  0  0  0
    2.4054    0.9405    0.5916 C   0  0  0  0  0  0  0  0  0  0  0  0
    3.4823    0.3938    0.0042 N   0  0  0  0  0  0  0  0  0  0  0  0
    3.5770   -0.8853    0.3473 C   0  0  0  0  0  0  0  0  0  0  0  0
    4.5809   -1.8772   -0.0456 C   0  0  0  0  0  0  0  0  0  0  0  0
    5.5408   -1.5355   -0.9741 C   0  0  0  0  0  0  0  0  0  0  0  0
    6.5182   -2.4386   -1.3832 C   0  0  0  0  0  0  0  0  0  0  0  0
    6.5201   -3.7044   -0.8425 C   0  0  0  0  0  0  0  0  0  0  0  0
    5.5462   -4.0100    0.0819 C   0  0  0  0  0  0  0  0  0  0  0  0
    4.6139   -3.1200    0.4601 N   0  0  0  0  0  0  0  0  0  0  0  0
    2.5326   -1.1251    1.1639 N   0  0  0  0  0  0  0  0  0  0  0  0
    1.8609   -0.0228    1.2862 O   0  0  0  0  0  0  0  0  0  0  0  0
   -2.8998   -0.2780    0.2810 C   0  0  0  0  0  0  0  0  0  0  0  0
   -3.8932   -1.2621   -0.2446 C   0  0  0  0  0  0  0  0  0  0  0  0
   -5.1820   -1.3510    0.2497 C   0  0  0  0  0  0  0  0  0  0  0  0
   -6.0868   -2.2605   -0.2433 C   0  0  0  0  0  0  0  0  0  0  0  0
   -7.3537   -2.3510    0.2404 F   0  0  0  0  0  0  0  0  0  0  0  0
   -5.7335   -3.1258   -1.2611 C   0  0  0  0  0  0  0  0  0  0  0  0
   -6.6007   -4.0357   -1.7709 F   0  0  0  0  0  0  0  0  0  0  0  0
   -4.4601   -3.0578   -1.7694 C   0  0  0  0  0  0  0  0  0  0  0  0
   -3.5536   -2.1319   -1.2608 C   0  0  0  0  0  0  0  0  0  0  0  0
   -2.2981   -2.0763   -1.7729 F   0  0  0  0  0  0  0  0  0  0  0  0
   -4.8025    0.6717   -1.1167 H   0  0  0  0  0  0  0  0  0  0  0  0
   -4.3999    1.6929    0.1485 H   0  0  0  0  0  0  0  0  0  0  0  0
   -2.5344    0.4380   -1.7164 H   0  0  0  0  0  0  0  0  0  0  0  0
   -1.9067    2.7343   -1.0669 H   0  0  0  0  0  0  0  0  0  0  0  0
   -2.2600    2.4215    0.6398 H   0  0  0  0  0  0  0  0  0  0  0  0
    0.5010    4.5028   -0.3200 H   0  0  0  0  0  0  0  0  0  0  0  0
   -0.8079    4.0062    0.8852 H   0  0  0  0  0  0  0  0  0  0  0  0
    1.8387    5.0829    1.4000 H   0  0  0  0  0  0  0  0  0  0  0  0
    0.6316    4.4563    2.6187 H   0  0  0  0  0  0  0  0  0  0  0  0
    1.7405    2.3445    2.6573 H   0  0  0  0  0  0  0  0  0  0  0  0
    3.1410    3.3295    1.9567 H   0  0  0  0  0  0  0  0  0  0  0  0
    2.5313    2.9292   -0.2237 H   0  0  0  0  0  0  0  0  0  0  0  0
    5.5710   -0.5484   -1.4210 H   0  0  0  0  0  0  0  0  0  0  0  0
    7.2760   -2.1520   -2.1237 H   0  0  0  0  0  0  0  0  0  0  0  0
    7.2782   -4.4441   -1.1431 H   0  0  0  0  0  0  0  0  0  0  0  0
    5.5705   -5.0190    0.4940 H   0  0  0  0  0  0  0  0  0  0  0  0
   -3.3414    0.1038    1.2379 H   0  0  0  0  0  0  0  0  0  0  0  0
   -1.9682   -0.7827    0.5202 H   0  0  0  0  0  0  0  0  0  0  0  0
   -5.5066   -0.6970    1.0444 H   0  0  0  0  0  0  0  0  0  0  0  0
   -4.1911   -3.7384   -2.5658 H   0  0  0  0  0  0  0  0  0  0  0  0
  1  2  1  0
  2  3  1  0
  3  4  1  0
  4  5  2  0
  4  6  1  0
  6  7  1  0
  7  8  1  0
  8  9  1  0
  9 10  1  0
 10 11  1  0
 11 12  2  0
 12 13  1  0
 13 14  1  0
 14 15  2  0
 15 16  1  0
 16 17  2  0
 17 18  1  0
 18 19  2  0
 13 20  2  0
 20 21  1  0
  2 22  1  0
 22 23  1  0
 23 24  2  0
 24 25  1  0
 25 26  1  0
 25 27  2  0
 27 28  1  0
 27 29  1  0
 29 30  2  0
 30 31  1  0
 10  6  1  0
 21 11  1  0
 30 23  1  0
 19 14  1  0
  1 32  1  0
  1 33  1  0
  2 34  1  6
  3 35  1  0
  3 36  1  0
  7 37  1  0
  7 38  1  0
  8 39  1  0
  8 40  1  0
  9 41  1  0
  9 42  1  0
 10 43  1  6
 15 44  1  0
 16 45  1  0
 17 46  1  0
 18 47  1  0
 22 48  1  0
 22 49  1  0
 24 50  1  0
 29 51  1  0
M  END
$$$$
