@<TRIPOS>MOLECULE
*****
 36 38 0 0 0
SMALL
GASTEIGER

@<TRIPOS>ATOM
      1 C           2.8852   -2.3061   -0.1138 C.3     1  UNL1       -0.0465
      2 C           1.8852   -1.5765   -0.8476 C.2     1  UNL1       -0.0852
      3 C           1.0378   -0.7237   -0.3073 C.2     1  UNL1       -0.0422
      4 C           1.0626   -0.4553    1.1306 C.3     1  UNL1        0.0058
      5 C           1.1275    1.0446    1.2837 C.2     1  UNL1       -0.0774
      6 C           0.9625    1.8658    0.2779 C.2     1  UNL1       -0.0736
      7 C           1.4399    3.2676    0.4246 C.3     1  UNL1       -0.0437
      8 C           0.3268    1.5016   -1.0165 C.3     1  UNL1       -0.0057
      9 C           0.0061    0.0240   -1.0854 C.3     1  UNL1        0.0694
     10 N           0.0017   -0.3422   -2.4845 N.3     1  UNL1       -0.3174
     11 C          -1.2993   -0.2675   -0.4264 C.ar    1  UNL1       -0.0038
     12 C          -2.4670   -0.1265   -1.1721 C.ar    1  UNL1       -0.0497
     13 C          -3.6736   -0.3902   -0.5817 C.ar    1  UNL1        0.0031
     14 C          -3.7600   -0.7909    0.7299 C.ar    1  UNL1        0.2489
     15 O          -4.8809   -1.0333    1.2696 O.2     1  UNL1       -0.2679
     16 N          -2.6202   -0.9185    1.4243 N.ar    1  UNL1       -0.3259
     17 C          -1.3987   -0.6711    0.8915 C.ar    1  UNL1        0.0252
     18 C          -0.2444   -0.8607    1.7956 C.3     1  UNL1       -0.0020
     19 H           3.1319   -3.2575   -0.6345 H       1  UNL1        0.0272
     20 H           3.8487   -1.7158   -0.1368 H       1  UNL1        0.0272
     21 H           2.7035   -2.5481    0.9280 H       1  UNL1        0.0272
     22 H           1.8102   -1.7273   -1.9212 H       1  UNL1        0.0570
     23 H           1.8751   -0.8546    1.7027 H       1  UNL1        0.0392
     24 H           1.3207    1.3980    2.2903 H       1  UNL1        0.0578
     25 H           1.7843    3.6308   -0.5604 H       1  UNL1        0.0274
     26 H           0.5427    3.8574    0.7754 H       1  UNL1        0.0274
     27 H           2.1875    3.3743    1.2237 H       1  UNL1        0.0274
     28 H          -0.6398    2.0566   -1.1742 H       1  UNL1        0.0334
     29 H           1.0583    1.7600   -1.8293 H       1  UNL1        0.0334
     30 H          -0.6005    0.3902   -2.9663 H       1  UNL1        0.1193
     31 H           0.9796   -0.1062   -2.8336 H       1  UNL1        0.1193
     32 H          -2.4775    0.1825   -2.2018 H       1  UNL1        0.0623
     33 H          -4.5972   -0.2888   -1.1379 H       1  UNL1        0.0672
     34 H          -2.7177   -1.2253    2.4211 H       1  UNL1        0.1686
     35 H          -0.1690   -1.9200    2.1616 H       1  UNL1        0.0336
     36 H          -0.4319   -0.2472    2.7012 H       1  UNL1        0.0336
@<TRIPOS>BOND
     1     1     2    1
     2     2     3    2
     3     3     4    1
     4     4     5    1
     5     5     6    2
     6     6     7    1
     7     6     8    1
     8     8     9    1
     9     9    10    1
    10     9    11    1
    11    11    12   ar
    12    12    13   ar
    13    13    14   ar
    14    14    15    2
    15    14    16   ar
    16    16    17   ar
    17    17    18    1
    18     9     3    1
    19    17    11   ar
    20    18     4    1
    21     1    19    1
    22     1    20    1
    23     1    21    1
    24     2    22    1
    25     4    23    1
    26     5    24    1
    27     7    25    1
    28     7    26    1
    29     7    27    1
    30     8    28    1
    31     8    29    1
    32    10    30    1
    33    10    31    1
    34    12    32    1
    35    13    33    1
    36    16    34    1
    37    18    35    1
    38    18    36    1
