
     RDKit          3D

 36 38  0  0  0  0  0  0  0  0999 V2000
    2.8852   -2.3061   -0.1138 C   0  0  0  0  0  0  0  0  0  0  0  0
    1.8852   -1.5765   -0.8476 C   0  0  0  0  0  0  0  0  0  0  0  0
    1.0378   -0.7237   -0.3073 C   0  0  0  0  0  0  0  0  0  0  0  0
    1.0626   -0.4553    1.1306 C   0  0  0  0  0  0  0  0  0  0  0  0
    1.1275    1.0446    1.2837 C   0  0  0  0  0  0  0  0  0  0  0  0
    0.9625    1.8658    0.2779 C   0  0  0  0  0  0  0  0  0  0  0  0
    1.4399    3.2676    0.4246 C   0  0  0  0  0  0  0  0  0  0  0  0
    0.3268    1.5016   -1.0165 C   0  0  0  0  0  0  0  0  0  0  0  0
    0.0061    0.0240   -1.0854 C   0  0  0  0  0  0  0  0  0  0  0  0
    0.0017   -0.3422   -2.4845 N   0  0  0  0  0  0  0  0  0  0  0  0
   -1.2993   -0.2675   -0.4264 C   0  0  0  0  0  0  0  0  0  0  0  0
   -2.4670   -0.1265   -1.1721 C   0  0  0  0  0  0  0  0  0  0  0  0
   -3.6736   -0.3902   -0.5817 C   0  0  0  0  0  0  0  0  0  0  0  0
   -3.7600   -0.7909    0.7299 C   0  0  0  0  0  0  0  0  0  0  0  0
   -4.8809   -1.0333    1.2696 O   0  0  0  0  0  0  0  0  0  0  0  0
   -2.6202   -0.9185    1.4243 N   0  0  0  0  0  0  0  0  0  0  0  0
   -1.3987   -0.6711    0.8915 C   0  0  0  0  0  0  0  0  0  0  0  0
   -0.2444   -0.8607    1.7956 C   0  0  0  0  0  0  0  0  0  0  0  0
    3.1319   -3.2575   -0.6345 H   0  0  0  0  0  0  0  0  0  0  0  0
    3.8487   -1.7158   -0.1368 H   0  0  0  0  0  0  0  0  0  0  0  0
    2.7035   -2.5481    0.9280 H   0  0  0  0  0  0  0  0  0  0  0  0
    1.8102   -1.7273   -1.9212 H   0  0  0  0  0  0  0  0  0  0  0  0
    1.8751   -0.8546    1.7027 H   0  0  0  0  0  0  0  0  0  0  0  0
    1.3207    1.3980    2.2903 H   0  0  0  0  0  0  0  0  0  0  0  0
    1.7843    3.6308   -0.5604 H   0  0  0  0  0  0  0  0  0  0  0  0
    0.5427    3.8574    0.7754 H   0  0  0  0  0  0  0  0  0  0  0  0
    2.1875    3.3743    1.2237 H   0  0  0  0  0  0  0  0  0  0  0  0
   -0.6398    2.0566   -1.1742 H   0  0  0  0  0  0  0  0  0  0  0  0
    1.0583    1.7600   -1.8293 H   0  0  0  0  0  0  0  0  0  0  0  0
   -0.6005    0.3902   -2.9663 H   0  0  0  0  0  0  0  0  0  0  0  0
    0.9796   -0.1062   -2.8336 H   0  0  0  0  0  0  0  0  0  0  0  0
   -2.4775    0.1825   -2.2018 H   0  0  0  0  0  0  0  0  0  0  0  0
   -4.5972   -0.2888   -1.1379 H   0  0  0  0  0  0  0  0  0  0  0  0
   -2.7177   -1.2253    2.4211 H   0  0  0  0  0  0  0  0  0  0  0  0
   -0.1690   -1.9200    2.1616 H   0  0  0  0  0  0  0  0  0  0  0  0
   -0.4319   -0.2472    2.7012 H   0  0  0  0  0  0  0  0  0  0  0  0
  1  2  1  0
  2  3  2  0
  3  4  1  0
  4  5  1  0
  5  6  2  0
  6  7  1  0
  6  8  1  0
  8  9  1  0
  9 10  1  0
  9 11  1  0
 11 12  1  0
 12 13  2  0
 13 14  1  0
 14 15  2  0
 14 16  1  0
 16 17  1  0
 17 18  1  0
  9  3  1  0
 17 11  2  0
 18  4  1  0
  1 19  1  0
  1 20  1  0
  1 21  1  0
  2 22  1  0
  4 23  1  0
  5 24  1  0
  7 25  1  0
  7 26  1  0
  7 27  1  0
  8 28  1  0
  8 29  1  0
 10 30  1  0
 10 31  1  0
 12 32  1  0
 13 33  1  0
 16 34  1  0
 18 35  1  0
 18 36  1  0
M  END
$$$$
