
     RDKit          3D

 30 32  0  0  0  0  0  0  0  0999 V2000
   -0.0555   -0.1438   -1.6787 O   0  0  0  0  0  0  0  0  0  0  0  0
   -0.4643   -0.0468   -0.4949 C   0  0  0  0  0  0  0  0  0  0  0  0
    0.4618    0.0135    0.5232 C   0  0  0  0  0  0  0  0  0  0  0  0
    1.8811   -0.0374    0.1930 C   0  0  0  0  0  0  0  0  0  0  0  0
    2.7400   -0.8419    0.9147 C   0  0  0  0  0  0  0  0  0  0  0  0
    4.0896   -0.9175    0.6332 C   0  0  0  0  0  0  0  0  0  0  0  0
    4.6439   -0.1826   -0.3944 C   0  0  0  0  0  0  0  0  0  0  0  0
    6.0017   -0.2466   -0.6920 O   0  0  0  0  0  0  0  0  0  0  0  0
    3.7908    0.6235   -1.1196 C   0  0  0  0  0  0  0  0  0  0  0  0
    2.4422    0.6950   -0.8335 C   0  0  0  0  0  0  0  0  0  0  0  0
   -0.0358    0.1196    1.8050 C   0  0  0  0  0  0  0  0  0  0  0  0
   -1.3284    0.1621    2.0566 O   0  0  0  0  0  0  0  0  0  0  0  0
   -2.2341    0.1073    1.1156 C   0  0  0  0  0  0  0  0  0  0  0  0
   -3.6014    0.1554    1.4219 C   0  0  0  0  0  0  0  0  0  0  0  0
   -4.4712    0.0917    0.3711 C   0  0  0  0  0  0  0  0  0  0  0  0
   -5.8487    0.1384    0.6575 O   0  0  0  0  0  0  0  0  0  0  0  0
   -4.0582   -0.0154   -0.9444 C   0  0  0  0  0  0  0  0  0  0  0  0
   -2.7141   -0.0610   -1.2241 C   0  0  0  0  0  0  0  0  0  0  0  0
   -2.2408   -0.1674   -2.5155 O   0  0  0  0  0  0  0  0  0  0  0  0
   -1.8098    0.0005   -0.1933 C   0  0  0  0  0  0  0  0  0  0  0  0
    2.3006   -1.4238    1.7286 H   0  0  0  0  0  0  0  0  0  0  0  0
    4.7244   -1.5611    1.2249 H   0  0  0  0  0  0  0  0  0  0  0  0
    6.6345    0.5464   -0.5365 H   0  0  0  0  0  0  0  0  0  0  0  0
    4.2134    1.2175   -1.9432 H   0  0  0  0  0  0  0  0  0  0  0  0
    1.7743    1.3361   -1.4131 H   0  0  0  0  0  0  0  0  0  0  0  0
    0.6842    0.1680    2.6185 H   0  0  0  0  0  0  0  0  0  0  0  0
   -3.8806    0.2391    2.4606 H   0  0  0  0  0  0  0  0  0  0  0  0
   -6.1763    1.0213    1.0582 H   0  0  0  0  0  0  0  0  0  0  0  0
   -4.8222   -0.0599   -1.7157 H   0  0  0  0  0  0  0  0  0  0  0  0
   -2.6408   -0.9301   -3.0837 H   0  0  0  0  0  0  0  0  0  0  0  0
  1  2  2  0
  2  3  1  0
  3  4  1  0
  4  5  2  0
  5  6  1  0
  6  7  2  0
  7  8  1  0
  7  9  1  0
  9 10  2  0
  3 11  2  0
 11 12  1  0
 12 13  1  0
 13 14  2  0
 14 15  1  0
 15 16  1  0
 15 17  2  0
 17 18  1  0
 18 19  1  0
 18 20  2  0
 20  2  1  0
 10  4  1  0
 20 13  1  0
  5 21  1  0
  6 22  1  0
  8 23  1  0
  9 24  1  0
 10 25  1  0
 11 26  1  0
 14 27  1  0
 16 28  1  0
 17 29  1  0
 19 30  1  0
M  END
$$$$
