@<TRIPOS>MOLECULE
*****
 30 32 0 0 0
SMALL
GASTEIGER

@<TRIPOS>ATOM
      1 O          -0.0555   -0.1438   -1.6787 O.2     1  UNL1       -0.2863
      2 C          -0.4643   -0.0468   -0.4949 C.ar    1  UNL1        0.2037
      3 C           0.4618    0.0135    0.5232 C.ar    1  UNL1        0.0644
      4 C           1.8811   -0.0374    0.1930 C.ar    1  UNL1       -0.0110
      5 C           2.7400   -0.8419    0.9147 C.ar    1  UNL1       -0.0504
      6 C           4.0896   -0.9175    0.6332 C.ar    1  UNL1       -0.0196
      7 C           4.6439   -0.1826   -0.3944 C.ar    1  UNL1        0.1169
      8 O           6.0017   -0.2466   -0.6920 O.3     1  UNL1       -0.5068
      9 C           3.7908    0.6235   -1.1196 C.ar    1  UNL1       -0.0196
     10 C           2.4422    0.6950   -0.8335 C.ar    1  UNL1       -0.0504
     11 C          -0.0358    0.1196    1.8050 C.ar    1  UNL1        0.1038
     12 O          -1.3284    0.1621    2.0566 O.2     1  UNL1       -0.4618
     13 C          -2.2341    0.1073    1.1156 C.ar    1  UNL1        0.1454
     14 C          -3.6014    0.1554    1.4219 C.ar    1  UNL1        0.0231
     15 C          -4.4712    0.0917    0.3711 C.ar    1  UNL1        0.1239
     16 O          -5.8487    0.1384    0.6575 O.3     1  UNL1       -0.5065
     17 C          -4.0582   -0.0154   -0.9444 C.ar    1  UNL1        0.0223
     18 C          -2.7141   -0.0610   -1.2241 C.ar    1  UNL1        0.1347
     19 O          -2.2408   -0.1674   -2.5155 O.3     1  UNL1       -0.5058
     20 C          -1.8098    0.0005   -0.1933 C.ar    1  UNL1        0.1060
     21 H           2.3006   -1.4238    1.7286 H       1  UNL1        0.0625
     22 H           4.7244   -1.5611    1.2249 H       1  UNL1        0.0654
     23 H           6.6345    0.5464   -0.5365 H       1  UNL1        0.2921
     24 H           4.2134    1.2175   -1.9432 H       1  UNL1        0.0654
     25 H           1.7743    1.3361   -1.4131 H       1  UNL1        0.0625
     26 H           0.6842    0.1680    2.6185 H       1  UNL1        0.1037
     27 H          -3.8806    0.2391    2.4606 H       1  UNL1        0.0691
     28 H          -6.1763    1.0213    1.0582 H       1  UNL1        0.2921
     29 H          -4.8222   -0.0599   -1.7157 H       1  UNL1        0.0691
     30 H          -2.6408   -0.9301   -3.0837 H       1  UNL1        0.2922
@<TRIPOS>BOND
     1     1     2    2
     2     2     3   ar
     3     3     4    1
     4     4     5   ar
     5     5     6   ar
     6     6     7   ar
     7     7     8    1
     8     7     9   ar
     9     9    10   ar
    10     3    11   ar
    11    11    12   ar
    12    12    13   ar
    13    13    14   ar
    14    14    15   ar
    15    15    16    1
    16    15    17   ar
    17    17    18   ar
    18    18    19    1
    19    18    20   ar
    20    20     2   ar
    21    10     4   ar
    22    20    13   ar
    23     5    21    1
    24     6    22    1
    25     8    23    1
    26     9    24    1
    27    10    25    1
    28    11    26    1
    29    14    27    1
    30    16    28    1
    31    17    29    1
    32    19    30    1
