
     RDKit          3D

 41 44  0  0  0  0  0  0  0  0999 V2000
   -1.0038   -2.7542   -0.9003 C   0  0  0  0  0  0  0  0  0  0  0  0
    0.1385   -1.8822   -0.5832 N   0  0  0  0  0  0  0  0  0  0  0  0
   -0.0114   -0.7003    0.0362 C   0  0  0  0  0  0  0  0  0  0  0  0
   -1.3146   -0.2460    0.3890 N   0  0  0  0  0  0  0  0  0  0  0  0
   -1.5058    0.1731    1.7648 C   0  0  0  0  0  0  0  0  0  0  0  0
   -2.9237    0.0693    2.2409 C   0  0  0  0  0  0  0  0  0  0  0  0
   -3.8604    0.4477    1.2982 O   0  0  0  0  0  0  0  0  0  0  0  0
   -3.3079    0.9739    0.1576 C   0  0  2  0  0  0  0  0  0  0  0  0
   -4.2248    1.1809   -0.9906 C   0  0  0  0  0  0  0  0  0  0  0  0
   -3.3872    1.2352   -2.0989 O   0  0  0  0  0  0  0  0  0  0  0  0
   -2.2226    0.5059   -1.7994 C   0  0  0  0  0  0  0  0  0  0  0  0
   -2.4419   -0.1507   -0.4609 C   0  0  1  0  0  0  0  0  0  0  0  0
    1.0758    0.0752    0.3270 N   0  0  0  0  0  0  0  0  0  0  0  0
    2.3393   -0.2759    0.0232 C   0  0  0  0  0  0  0  0  0  0  0  0
    3.4605    0.6268    0.3813 C   0  0  0  0  0  0  0  0  0  0  0  0
    4.7526    0.3064    0.0862 C   0  0  0  0  0  0  0  0  0  0  0  0
    5.7975    1.1443    0.4252 C   0  0  0  0  0  0  0  0  0  0  0  0
    5.4853    2.2900    1.0595 N   0  0  0  0  0  0  0  0  0  0  0  0
    4.2253    2.6311    1.3624 C   0  0  0  0  0  0  0  0  0  0  0  0
    3.1625    1.8230    1.0404 C   0  0  0  0  0  0  0  0  0  0  0  0
    1.8651    2.0939    1.3105 F   0  0  0  0  0  0  0  0  0  0  0  0
    2.5104   -1.4789   -0.6101 C   0  0  0  0  0  0  0  0  0  0  0  0
    1.3873   -2.2582   -0.8981 C   0  0  0  0  0  0  0  0  0  0  0  0
    1.5321   -3.3757   -1.4849 O   0  0  0  0  0  0  0  0  0  0  0  0
   -1.5470   -2.4489   -1.7897 H   0  0  0  0  0  0  0  0  0  0  0  0
   -0.6113   -3.7890   -1.1306 H   0  0  0  0  0  0  0  0  0  0  0  0
   -1.5982   -2.8723    0.0072 H   0  0  0  0  0  0  0  0  0  0  0  0
   -1.0757    1.1924    1.9601 H   0  0  0  0  0  0  0  0  0  0  0  0
   -0.9031   -0.5201    2.3920 H   0  0  0  0  0  0  0  0  0  0  0  0
   -3.1838   -0.9424    2.6125 H   0  0  0  0  0  0  0  0  0  0  0  0
   -3.0328    0.7601    3.1100 H   0  0  0  0  0  0  0  0  0  0  0  0
   -2.6648    1.8403    0.3135 H   0  0  0  0  0  0  0  0  0  0  0  0
   -4.9586    0.3210   -1.0723 H   0  0  0  0  0  0  0  0  0  0  0  0
   -4.8146    2.1072   -0.8745 H   0  0  0  0  0  0  0  0  0  0  0  0
   -2.0948   -0.2712   -2.5916 H   0  0  0  0  0  0  0  0  0  0  0  0
   -1.3675    1.1939   -1.8151 H   0  0  0  0  0  0  0  0  0  0  0  0
   -3.0465   -1.0673   -0.5667 H   0  0  0  0  0  0  0  0  0  0  0  0
    5.0136   -0.6110   -0.4238 H   0  0  0  0  0  0  0  0  0  0  0  0
    6.8410    0.8854    0.1899 H   0  0  0  0  0  0  0  0  0  0  0  0
    4.0173    3.5740    1.8781 H   0  0  0  0  0  0  0  0  0  0  0  0
    3.4989   -1.8064   -0.8754 H   0  0  0  0  0  0  0  0  0  0  0  0
  1  2  1  0
  2  3  1  0
  3  4  1  0
  4  5  1  0
  5  6  1  0
  6  7  1  0
  7  8  1  0
  8  9  1  0
  9 10  1  0
 10 11  1  0
 11 12  1  0
  3 13  2  0
 13 14  1  0
 14 15  1  0
 15 16  2  0
 16 17  1  0
 17 18  2  0
 18 19  1  0
 19 20  2  0
 20 21  1  0
 14 22  2  0
 22 23  1  0
 23 24  2  0
 23  2  1  0
 12  4  1  0
 20 15  1  0
 12  8  1  0
  1 25  1  0
  1 26  1  0
  1 27  1  0
  5 28  1  0
  5 29  1  0
  6 30  1  0
  6 31  1  0
  8 32  1  1
  9 33  1  0
  9 34  1  0
 11 35  1  0
 11 36  1  0
 12 37  1  6
 16 38  1  0
 17 39  1  0
 19 40  1  0
 22 41  1  0
M  END
$$$$
