@<TRIPOS>MOLECULE
*****
 41 44 0 0 0
SMALL
GASTEIGER

@<TRIPOS>ATOM
      1 C          -1.0038   -2.7542   -0.9003 C.3     1  UNL1        0.0178
      2 N           0.1385   -1.8822   -0.5832 N.ar    1  UNL1       -0.2839
      3 C          -0.0114   -0.7003    0.0362 C.ar    1  UNL1        0.2016
      4 N          -1.3146   -0.2460    0.3890 N.pl3   1  UNL1       -0.2909
      5 C          -1.5058    0.1731    1.7648 C.3     1  UNL1        0.0387
      6 C          -2.9237    0.0693    2.2409 C.3     1  UNL1        0.0640
      7 O          -3.8604    0.4477    1.2982 O.3     1  UNL1       -0.3708
      8 C          -3.3079    0.9739    0.1576 C.3     1  UNL1        0.1026
      9 C          -4.2248    1.1809   -0.9906 C.3     1  UNL1        0.0757
     10 O          -3.3872    1.2352   -2.0989 O.3     1  UNL1       -0.3752
     11 C          -2.2226    0.5059   -1.7994 C.3     1  UNL1        0.0688
     12 C          -2.4419   -0.1507   -0.4609 C.3     1  UNL1        0.0778
     13 N           1.0758    0.0752    0.3270 N.ar    1  UNL1       -0.2154
     14 C           2.3393   -0.2759    0.0232 C.ar    1  UNL1        0.0825
     15 C           3.4605    0.6268    0.3813 C.ar    1  UNL1        0.0387
     16 C           4.7526    0.3064    0.0862 C.ar    1  UNL1       -0.0316
     17 C           5.7975    1.1443    0.4252 C.ar    1  UNL1        0.0284
     18 N           5.4853    2.2900    1.0595 N.ar    1  UNL1       -0.2604
     19 C           4.2253    2.6311    1.3624 C.ar    1  UNL1        0.0634
     20 C           3.1625    1.8230    1.0404 C.ar    1  UNL1        0.1505
     21 F           1.8651    2.0939    1.3105 F       1  UNL1       -0.2032
     22 C           2.5104   -1.4789   -0.6101 C.ar    1  UNL1        0.0292
     23 C           1.3873   -2.2582   -0.8981 C.ar    1  UNL1        0.2555
     24 O           1.5321   -3.3757   -1.4849 O.2     1  UNL1       -0.2675
     25 H          -1.5470   -2.4489   -1.7897 H       1  UNL1        0.0458
     26 H          -0.6113   -3.7890   -1.1306 H       1  UNL1        0.0458
     27 H          -1.5982   -2.8723    0.0072 H       1  UNL1        0.0458
     28 H          -1.0757    1.1924    1.9601 H       1  UNL1        0.0487
     29 H          -0.9031   -0.5201    2.3920 H       1  UNL1        0.0487
     30 H          -3.1838   -0.9424    2.6125 H       1  UNL1        0.0575
     31 H          -3.0328    0.7601    3.1100 H       1  UNL1        0.0575
     32 H          -2.6648    1.8403    0.3135 H       1  UNL1        0.0638
     33 H          -4.9586    0.3210   -1.0723 H       1  UNL1        0.0586
     34 H          -4.8146    2.1072   -0.8745 H       1  UNL1        0.0586
     35 H          -2.0948   -0.2712   -2.5916 H       1  UNL1        0.0579
     36 H          -1.3675    1.1939   -1.8151 H       1  UNL1        0.0579
     37 H          -3.0465   -1.0673   -0.5667 H       1  UNL1        0.0550
     38 H           5.0136   -0.6110   -0.4238 H       1  UNL1        0.0640
     39 H           6.8410    0.8854    0.1899 H       1  UNL1        0.0830
     40 H           4.0173    3.5740    1.8781 H       1  UNL1        0.0859
     41 H           3.4989   -1.8064   -0.8754 H       1  UNL1        0.0693
@<TRIPOS>BOND
     1     1     2    1
     2     2     3   ar
     3     3     4    1
     4     4     5    1
     5     5     6    1
     6     6     7    1
     7     7     8    1
     8     8     9    1
     9     9    10    1
    10    10    11    1
    11    11    12    1
    12     3    13   ar
    13    13    14   ar
    14    14    15    1
    15    15    16   ar
    16    16    17   ar
    17    17    18   ar
    18    18    19   ar
    19    19    20   ar
    20    20    21    1
    21    14    22   ar
    22    22    23   ar
    23    23    24    2
    24    23     2   ar
    25    12     4    1
    26    20    15   ar
    27    12     8    1
    28     1    25    1
    29     1    26    1
    30     1    27    1
    31     5    28    1
    32     5    29    1
    33     6    30    1
    34     6    31    1
    35     8    32    1
    36     9    33    1
    37     9    34    1
    38    11    35    1
    39    11    36    1
    40    12    37    1
    41    16    38    1
    42    17    39    1
    43    19    40    1
    44    22    41    1
