@<TRIPOS>MOLECULE
*****
 43 45 0 0 0
SMALL
GASTEIGER

@<TRIPOS>ATOM
      1 C          -2.7130    0.3713   -2.5154 C.3     1  UNL1       -0.0106
      2 S          -2.0850   -0.8555   -1.3327 S.3     1  UNL1       -0.0892
      3 C          -0.5947   -0.2831   -0.5427 C.ar    1  UNL1        0.1960
      4 N           0.6257   -0.4921   -1.1272 N.ar    1  UNL1       -0.2003
      5 C           1.5905    0.0167   -0.3668 C.ar    1  UNL1        0.1829
      6 C           3.0271    0.0238   -0.6007 C.ar    1  UNL1        0.0211
      7 C           3.7770   -1.0572   -0.2339 C.ar    1  UNL1       -0.0475
      8 C           5.1562   -1.0354   -0.4630 C.ar    1  UNL1       -0.0190
      9 C           5.7706    0.0562   -1.0514 C.ar    1  UNL1        0.1300
     10 O           7.1373    0.0939   -1.2857 O.3     1  UNL1       -0.4057
     11 C           8.0205    0.6070   -0.3109 C.3     1  UNL1        0.5752
     12 F           9.3261    0.5604   -0.7216 F       1  UNL1       -0.1328
     13 F           7.8536   -0.2103    0.8131 F       1  UNL1       -0.1328
     14 F           7.6564    1.8842    0.0623 F       1  UNL1       -0.1328
     15 C           4.9686    1.1302   -1.4069 C.ar    1  UNL1       -0.0190
     16 C           3.5946    1.1218   -1.1846 C.ar    1  UNL1       -0.0475
     17 N           0.9726    0.5425    0.6924 N.ar    1  UNL1       -0.1403
     18 N          -0.3881    0.3587    0.5906 N.ar    1  UNL1       -0.1571
     19 C          -1.2884    0.7985    1.5745 C.2     1  UNL1        0.3437
     20 O          -0.6382    1.4297    2.5546 O.2     1  UNL1       -0.2471
     21 N          -2.6365    0.7442    1.7845 N.am    1  UNL1       -0.2549
     22 C          -3.1126    1.3835    3.0758 C.3     1  UNL1        0.0100
     23 C          -3.7376    0.2214    1.0813 C.ar    1  UNL1        0.0377
     24 C          -4.4481    1.0070    0.2187 C.ar    1  UNL1       -0.0402
     25 C          -5.5476    0.4912   -0.4218 C.ar    1  UNL1       -0.0600
     26 C          -5.9369   -0.8047   -0.2020 C.ar    1  UNL1       -0.0616
     27 C          -5.2486   -1.6171    0.6543 C.ar    1  UNL1       -0.0600
     28 C          -4.1465   -1.0902    1.2920 C.ar    1  UNL1       -0.0402
     29 H          -2.1286    0.2545   -3.4530 H       1  UNL1        0.0345
     30 H          -3.7644    0.1303   -2.7559 H       1  UNL1        0.0345
     31 H          -2.6426    1.4051   -2.1375 H       1  UNL1        0.0345
     32 H           3.3495   -1.9491    0.2352 H       1  UNL1        0.0626
     33 H           5.7297   -1.9044   -0.1642 H       1  UNL1        0.0654
     34 H           5.4671    1.9807   -1.8685 H       1  UNL1        0.0654
     35 H           3.0206    1.9862   -1.4830 H       1  UNL1        0.0626
     36 H          -2.2953    1.9757    3.4784 H       1  UNL1        0.0433
     37 H          -3.9698    2.0028    2.8043 H       1  UNL1        0.0433
     38 H          -3.4723    0.5606    3.7303 H       1  UNL1        0.0433
     39 H          -4.1411    2.0303    0.0446 H       1  UNL1        0.0636
     40 H          -6.1103    1.1291   -1.1087 H       1  UNL1        0.0618
     41 H          -6.8046   -1.1727   -0.7238 H       1  UNL1        0.0618
     42 H          -5.5924   -2.6407    0.8007 H       1  UNL1        0.0618
     43 H          -3.6007   -1.7436    1.9739 H       1  UNL1        0.0636
@<TRIPOS>BOND
     1     1     2    1
     2     2     3    1
     3     3     4   ar
     4     4     5   ar
     5     5     6    1
     6     6     7   ar
     7     7     8   ar
     8     8     9   ar
     9     9    10    1
    10    10    11    1
    11    11    12    1
    12    11    13    1
    13    11    14    1
    14     9    15   ar
    15    15    16   ar
    16     5    17   ar
    17    17    18   ar
    18    18    19   am
    19    19    20    2
    20    19    21   am
    21    21    22    1
    22    21    23    1
    23    23    24   ar
    24    24    25   ar
    25    25    26   ar
    26    26    27   ar
    27    27    28   ar
    28    18     3   ar
    29    28    23   ar
    30    16     6   ar
    31     1    29    1
    32     1    30    1
    33     1    31    1
    34     7    32    1
    35     8    33    1
    36    15    34    1
    37    16    35    1
    38    22    36    1
    39    22    37    1
    40    22    38    1
    41    24    39    1
    42    25    40    1
    43    26    41    1
    44    27    42    1
    45    28    43    1
