
     RDKit          3D

112116  0  0  0  0  0  0  0  0999 V2000
   16.9058   -0.6944    0.6281 C   0  0  0  0  0  0  0  0  0  0  0  0
   17.1640    0.0463   -0.4945 O   0  0  0  0  0  0  0  0  0  0  0  0
   16.0524    0.3582   -1.2292 C   0  0  0  0  0  0  0  0  0  0  0  0
   15.3124   -0.8311   -1.7468 C   0  0  0  0  0  0  0  0  0  0  0  0
   14.1899   -0.4738   -2.4942 O   0  0  0  0  0  0  0  0  0  0  0  0
   13.2708    0.2894   -1.8142 C   0  0  0  0  0  0  0  0  0  0  0  0
   12.7856   -0.4640   -0.5753 C   0  0  0  0  0  0  0  0  0  0  0  0
   11.8708    0.3228    0.0845 O   0  0  0  0  0  0  0  0  0  0  0  0
   11.4012   -0.2464    1.2398 C   0  0  0  0  0  0  0  0  0  0  0  0
   10.6881   -1.5460    1.0350 C   0  0  0  0  0  0  0  0  0  0  0  0
    9.5252   -1.4830    0.1934 N   0  0  0  0  0  0  0  0  0  0  0  0
    8.4108   -0.6617    0.4919 C   0  0  0  0  0  0  0  0  0  0  0  0
    8.4884    0.0448    1.5485 O   0  0  0  0  0  0  0  0  0  0  0  0
    7.2023   -0.5708   -0.3089 C   0  0  0  0  0  0  0  0  0  0  0  0
    6.2533    0.3739    0.0008 C   0  0  0  0  0  0  0  0  0  0  0  0
    5.0517    0.5096   -0.6680 C   0  0  0  0  0  0  0  0  0  0  0  0
    4.1076    1.4932   -0.3367 N   0  0  0  0  0  0  0  0  0  0  0  0
    2.7258    1.1300   -0.2535 C   0  0  0  0  0  0  0  0  0  0  0  0
    1.7581    2.0620    0.0604 C   0  0  0  0  0  0  0  0  0  0  0  0
    0.4626    1.6854    0.1690 C   0  0  0  0  0  0  0  0  0  0  0  0
   -0.5674    2.5881    0.4852 O   0  0  0  0  0  0  0  0  0  0  0  0
   -1.8044    2.0868    0.8698 C   0  0  0  0  0  0  0  0  0  0  0  0
   -2.9115    2.3260    0.0913 C   0  0  0  0  0  0  0  0  0  0  0  0
   -4.1688    1.8400    0.4489 C   0  0  0  0  0  0  0  0  0  0  0  0
   -4.2764    1.1086    1.6086 C   0  0  0  0  0  0  0  0  0  0  0  0
   -5.5306    0.5906    2.0079 N   0  0  0  0  0  0  0  0  0  0  0  0
   -6.6924    0.5448    1.1740 C   0  0  0  0  0  0  0  0  0  0  0  0
   -6.6758    0.9312    0.0003 O   0  0  0  0  0  0  0  0  0  0  0  0
   -7.9328    0.0496    1.6658 N   0  0  0  0  0  0  0  0  0  0  0  0
   -9.1282   -0.0444    0.9299 C   0  0  0  0  0  0  0  0  0  0  0  0
   -9.2478    0.1072   -0.4152 C   0  0  0  0  0  0  0  0  0  0  0  0
  -10.4709    0.0649   -1.0590 C   0  0  0  0  0  0  0  0  0  0  0  0
  -10.5082    0.2335   -2.5247 C   0  0  0  0  0  0  0  0  0  0  0  0
  -10.4352   -1.1824   -3.1113 C   0  0  0  0  0  0  0  0  0  0  0  0
   -9.2665    0.9507   -3.0329 C   0  0  0  0  0  0  0  0  0  0  0  0
  -11.7568    0.8784   -3.0421 C   0  0  0  0  0  0  0  0  0  0  0  0
  -11.6050   -0.1398   -0.2916 C   0  0  0  0  0  0  0  0  0  0  0  0
  -11.5487   -0.3011    1.0734 C   0  0  0  0  0  0  0  0  0  0  0  0
  -12.7250   -0.5096    1.8477 N   0  0  0  0  0  0  0  0  0  0  0  0
  -14.2872    0.0888    1.5099 S   0  0  0  0  0  6  0  0  0  0  0  0
  -14.9131   -0.5220   -0.0041 C   0  0  0  0  0  0  0  0  0  0  0  0
  -15.2170   -0.3155    2.6297 O   0  0  0  0  0  0  0  0  0  0  0  0
  -14.2949    1.6101    1.4967 O   0  0  0  0  0  0  0  0  0  0  0  0
  -10.3065   -0.2514    1.6675 C   0  0  0  0  0  0  0  0  0  0  0  0
  -10.2633   -0.4167    3.0420 O   0  0  0  0  0  0  0  0  0  0  0  0
  -10.1244   -1.7018    3.6013 C   0  0  0  0  0  0  0  0  0  0  0  0
   -3.1660    0.8370    2.4405 C   0  0  0  0  0  0  0  0  0  0  0  0
   -3.2766    0.1109    3.6009 C   0  0  0  0  0  0  0  0  0  0  0  0
   -2.1777   -0.1281    4.3917 C   0  0  0  0  0  0  0  0  0  0  0  0
   -0.9451    0.3629    4.0236 C   0  0  0  0  0  0  0  0  0  0  0  0
   -0.8539    1.0913    2.8513 C   0  0  0  0  0  0  0  0  0  0  0  0
   -1.9383    1.3466    2.0365 C   0  0  0  0  0  0  0  0  0  0  0  0
    0.1154    0.3513   -0.0388 C   0  0  0  0  0  0  0  0  0  0  0  0
    1.1022   -0.5492   -0.3506 C   0  0  0  0  0  0  0  0  0  0  0  0
    2.3732   -0.1454   -0.4503 N   0  0  0  0  0  0  0  0  0  0  0  0
    4.8163   -0.3566   -1.6940 C   0  0  0  0  0  0  0  0  0  0  0  0
    5.7365   -1.3138   -2.0375 C   0  0  0  0  0  0  0  0  0  0  0  0
    5.4776   -2.1801   -3.0818 O   0  0  0  0  0  0  0  0  0  0  0  0
    4.2899   -2.1077   -3.8104 C   0  0  0  0  0  0  0  0  0  0  0  0
    6.9481   -1.4371   -1.3485 C   0  0  0  0  0  0  0  0  0  0  0  0
   16.4615   -1.6641    0.3437 H   0  0  0  0  0  0  0  0  0  0  0  0
   16.2229   -0.1501    1.3477 H   0  0  0  0  0  0  0  0  0  0  0  0
   17.8774   -0.9214    1.1286 H   0  0  0  0  0  0  0  0  0  0  0  0
   15.3544    0.9401   -0.5522 H   0  0  0  0  0  0  0  0  0  0  0  0
   16.3078    1.0640   -2.0688 H   0  0  0  0  0  0  0  0  0  0  0  0
   15.0400   -1.5581   -0.9811 H   0  0  0  0  0  0  0  0  0  0  0  0
   16.0007   -1.3492   -2.4600 H   0  0  0  0  0  0  0  0  0  0  0  0
   12.3742    0.3602   -2.4726 H   0  0  0  0  0  0  0  0  0  0  0  0
   13.6371    1.2867   -1.5430 H   0  0  0  0  0  0  0  0  0  0  0  0
   13.6346   -0.6629    0.1352 H   0  0  0  0  0  0  0  0  0  0  0  0
   12.3271   -1.4009   -0.9097 H   0  0  0  0  0  0  0  0  0  0  0  0
   12.2809   -0.4055    1.9190 H   0  0  0  0  0  0  0  0  0  0  0  0
   10.7361    0.4870    1.7740 H   0  0  0  0  0  0  0  0  0  0  0  0
   10.3365   -1.9301    2.0244 H   0  0  0  0  0  0  0  0  0  0  0  0
   11.3992   -2.3087    0.6315 H   0  0  0  0  0  0  0  0  0  0  0  0
    9.4369   -2.0492   -0.7025 H   0  0  0  0  0  0  0  0  0  0  0  0
    6.4488    1.0603    0.8132 H   0  0  0  0  0  0  0  0  0  0  0  0
    4.3736    2.4664   -0.1523 H   0  0  0  0  0  0  0  0  0  0  0  0
    2.0416    3.1008    0.2191 H   0  0  0  0  0  0  0  0  0  0  0  0
   -2.8437    2.9098   -0.8415 H   0  0  0  0  0  0  0  0  0  0  0  0
   -4.9923    2.0839   -0.2082 H   0  0  0  0  0  0  0  0  0  0  0  0
   -5.6776    0.2178    2.9617 H   0  0  0  0  0  0  0  0  0  0  0  0
   -7.9441   -0.2793    2.6861 H   0  0  0  0  0  0  0  0  0  0  0  0
   -8.3827    0.2514   -1.0204 H   0  0  0  0  0  0  0  0  0  0  0  0
  -10.2528   -1.1152   -4.1849 H   0  0  0  0  0  0  0  0  0  0  0  0
   -9.6176   -1.7730   -2.6273 H   0  0  0  0  0  0  0  0  0  0  0  0
  -11.4116   -1.6609   -2.9160 H   0  0  0  0  0  0  0  0  0  0  0  0
   -8.9904    1.8333   -2.4481 H   0  0  0  0  0  0  0  0  0  0  0  0
   -8.3813    0.2757   -3.0868 H   0  0  0  0  0  0  0  0  0  0  0  0
   -9.4586    1.2895   -4.0874 H   0  0  0  0  0  0  0  0  0  0  0  0
  -12.6263    0.2144   -2.8585 H   0  0  0  0  0  0  0  0  0  0  0  0
  -11.8603    1.8777   -2.6096 H   0  0  0  0  0  0  0  0  0  0  0  0
  -11.6681    0.9841   -4.1508 H   0  0  0  0  0  0  0  0  0  0  0  0
  -12.5484   -0.1651   -0.8429 H   0  0  0  0  0  0  0  0  0  0  0  0
  -12.5586   -1.1081    2.7156 H   0  0  0  0  0  0  0  0  0  0  0  0
  -16.0127   -0.7717    0.0611 H   0  0  0  0  0  0  0  0  0  0  0  0
  -14.4170   -1.4681   -0.2797 H   0  0  0  0  0  0  0  0  0  0  0  0
  -14.8318    0.2484   -0.8034 H   0  0  0  0  0  0  0  0  0  0  0  0
  -10.9538   -1.8088    4.3369 H   0  0  0  0  0  0  0  0  0  0  0  0
  -10.2353   -2.5209    2.8573 H   0  0  0  0  0  0  0  0  0  0  0  0
   -9.1314   -1.8043    4.0927 H   0  0  0  0  0  0  0  0  0  0  0  0
   -4.1971   -0.2922    3.9271 H   0  0  0  0  0  0  0  0  0  0  0  0
   -2.2157   -0.6936    5.3138 H   0  0  0  0  0  0  0  0  0  0  0  0
   -0.0273    0.2216    4.5897 H   0  0  0  0  0  0  0  0  0  0  0  0
    0.1043    1.5033    2.5502 H   0  0  0  0  0  0  0  0  0  0  0  0
   -0.9224    0.0349    0.0461 H   0  0  0  0  0  0  0  0  0  0  0  0
    0.8700   -1.5982   -0.5240 H   0  0  0  0  0  0  0  0  0  0  0  0
    3.8896   -0.3019   -2.2598 H   0  0  0  0  0  0  0  0  0  0  0  0
    4.3804   -2.7847   -4.6876 H   0  0  0  0  0  0  0  0  0  0  0  0
    4.0937   -1.0559   -4.1375 H   0  0  0  0  0  0  0  0  0  0  0  0
    3.4213   -2.3648   -3.1534 H   0  0  0  0  0  0  0  0  0  0  0  0
    7.6386   -2.1882   -1.6363 H   0  0  0  0  0  0  0  0  0  0  0  0
  1  2  1  0
  2  3  1  0
  3  4  1  0
  4  5  1  0
  5  6  1  0
  6  7  1  0
  7  8  1  0
  8  9  1  0
  9 10  1  0
 10 11  1  0
 11 12  1  0
 12 13  2  0
 12 14  1  0
 14 15  2  0
 15 16  1  0
 16 17  1  0
 17 18  1  0
 18 19  2  0
 19 20  1  0
 20 21  1  0
 21 22  1  0
 22 23  2  0
 23 24  1  0
 24 25  2  0
 25 26  1  0
 26 27  1  0
 27 28  2  0
 27 29  1  0
 29 30  1  0
 30 31  2  0
 31 32  1  0
 32 33  1  0
 33 34  1  0
 33 35  1  0
 33 36  1  0
 32 37  2  0
 37 38  1  0
 38 39  1  0
 39 40  1  0
 40 41  1  0
 40 42  2  0
 40 43  2  0
 38 44  2  0
 44 45  1  0
 45 46  1  0
 25 47  1  0
 47 48  2  0
 48 49  1  0
 49 50  2  0
 50 51  1  0
 51 52  2  0
 20 53  2  0
 53 54  1  0
 54 55  2  0
 16 56  2  0
 56 57  1  0
 57 58  1  0
 58 59  1  0
 57 60  2  0
 60 14  1  0
 55 18  1  0
 52 22  1  0
 44 30  1  0
 52 47  1  0
  1 61  1  0
  1 62  1  0
  1 63  1  0
  3 64  1  0
  3 65  1  0
  4 66  1  0
  4 67  1  0
  6 68  1  0
  6 69  1  0
  7 70  1  0
  7 71  1  0
  9 72  1  0
  9 73  1  0
 10 74  1  0
 10 75  1  0
 11 76  1  0
 15 77  1  0
 17 78  1  0
 19 79  1  0
 23 80  1  0
 24 81  1  0
 26 82  1  0
 29 83  1  0
 31 84  1  0
 34 85  1  0
 34 86  1  0
 34 87  1  0
 35 88  1  0
 35 89  1  0
 35 90  1  0
 36 91  1  0
 36 92  1  0
 36 93  1  0
 37 94  1  0
 39 95  1  0
 41 96  1  0
 41 97  1  0
 41 98  1  0
 46 99  1  0
 46100  1  0
 46101  1  0
 48102  1  0
 49103  1  0
 50104  1  0
 51105  1  0
 53106  1  0
 54107  1  0
 56108  1  0
 59109  1  0
 59110  1  0
 59111  1  0
 60112  1  0
M  END
$$$$
