@<TRIPOS>MOLECULE
*****
 112 116 0 0 0
SMALL
GASTEIGER

@<TRIPOS>ATOM
      1 C          16.9058   -0.6944    0.6281 C.3     1  UNL1        0.0365
      2 O          17.1640    0.0463   -0.4945 O.3     1  UNL1       -0.3807
      3 C          16.0524    0.3582   -1.2292 C.3     1  UNL1        0.0706
      4 C          15.3124   -0.8311   -1.7468 C.3     1  UNL1        0.0711
      5 O          14.1899   -0.4738   -2.4942 O.3     1  UNL1       -0.3752
      6 C          13.2708    0.2894   -1.8142 C.3     1  UNL1        0.0711
      7 C          12.7856   -0.4640   -0.5753 C.3     1  UNL1        0.0711
      8 O          11.8708    0.3228    0.0845 O.3     1  UNL1       -0.3760
      9 C          11.4012   -0.2464    1.2398 C.3     1  UNL1        0.0633
     10 C          10.6881   -1.5460    1.0350 C.3     1  UNL1        0.0353
     11 N           9.5252   -1.4830    0.1934 N.am    1  UNL1       -0.3092
     12 C           8.4108   -0.6617    0.4919 C.2     1  UNL1        0.2443
     13 O           8.4884    0.0448    1.5485 O.2     1  UNL1       -0.2702
     14 C           7.2023   -0.5708   -0.3089 C.ar    1  UNL1        0.0419
     15 C           6.2533    0.3739    0.0008 C.ar    1  UNL1       -0.0282
     16 C           5.0517    0.5096   -0.6680 C.ar    1  UNL1        0.0366
     17 N           4.1076    1.4932   -0.3367 N.pl3   1  UNL1       -0.2992
     18 C           2.7258    1.1300   -0.2535 C.ar    1  UNL1        0.1264
     19 C           1.7581    2.0620    0.0604 C.ar    1  UNL1        0.0208
     20 C           0.4626    1.6854    0.1690 C.ar    1  UNL1        0.1332
     21 O          -0.5674    2.5881    0.4852 O.3     1  UNL1       -0.4553
     22 C          -1.8044    2.0868    0.8698 C.ar    1  UNL1        0.1362
     23 C          -2.9115    2.3260    0.0913 C.ar    1  UNL1       -0.0170
     24 C          -4.1688    1.8400    0.4489 C.ar    1  UNL1       -0.0364
     25 C          -4.2764    1.1086    1.6086 C.ar    1  UNL1        0.0427
     26 N          -5.5306    0.5906    2.0079 N.am    1  UNL1       -0.2686
     27 C          -6.6924    0.5448    1.1740 C.2     1  UNL1        0.3082
     28 O          -6.6758    0.9312    0.0003 O.2     1  UNL1       -0.2521
     29 N          -7.9328    0.0496    1.6658 N.am    1  UNL1       -0.2660
     30 C          -9.1282   -0.0444    0.9299 C.ar    1  UNL1        0.0789
     31 C          -9.2478    0.1072   -0.4152 C.ar    1  UNL1       -0.0330
     32 C         -10.4709    0.0649   -1.0590 C.ar    1  UNL1       -0.0382
     33 C         -10.5082    0.2335   -2.5247 C.3     1  UNL1       -0.0126
     34 C         -10.4352   -1.1824   -3.1113 C.3     1  UNL1       -0.0560
     35 C          -9.2665    0.9507   -3.0329 C.3     1  UNL1       -0.0560
     36 C         -11.7568    0.8784   -3.0421 C.3     1  UNL1       -0.0560
     37 C         -11.6050   -0.1398   -0.2916 C.ar    1  UNL1       -0.0320
     38 C         -11.5487   -0.3011    1.0734 C.ar    1  UNL1        0.0913
     39 N         -12.7250   -0.5096    1.8477 N.pl3   1  UNL1       -0.2173
     40 S         -14.2872    0.0888    1.5099 S.O2    1  UNL1        0.0404
     41 C         -14.9131   -0.5220   -0.0041 C.3     1  UNL1        0.0736
     42 O         -15.2170   -0.3155    2.6297 O.2     1  UNL1       -0.1555
     43 O         -14.2949    1.6101    1.4967 O.2     1  UNL1       -0.1555
     44 C         -10.3065   -0.2514    1.6675 C.ar    1  UNL1        0.1634
     45 O         -10.2633   -0.4167    3.0420 O.3     1  UNL1       -0.4914
     46 C         -10.1244   -1.7018    3.6013 C.3     1  UNL1        0.0790
     47 C          -3.1660    0.8370    2.4405 C.ar    1  UNL1        0.0069
     48 C          -3.2766    0.1109    3.6009 C.ar    1  UNL1       -0.0521
     49 C          -2.1777   -0.1281    4.3917 C.ar    1  UNL1       -0.0611
     50 C          -0.9451    0.3629    4.0236 C.ar    1  UNL1       -0.0611
     51 C          -0.8539    1.0913    2.8513 C.ar    1  UNL1       -0.0505
     52 C          -1.9383    1.3466    2.0365 C.ar    1  UNL1        0.0262
     53 C           0.1154    0.3513   -0.0388 C.ar    1  UNL1       -0.0011
     54 C           1.1022   -0.5492   -0.3506 C.ar    1  UNL1        0.0332
     55 N           2.3732   -0.1454   -0.4503 N.ar    1  UNL1       -0.2400
     56 C           4.8163   -0.3566   -1.6940 C.ar    1  UNL1        0.0013
     57 C           5.7365   -1.3138   -2.0375 C.ar    1  UNL1        0.1226
     58 O           5.4776   -2.1801   -3.0818 O.3     1  UNL1       -0.4950
     59 C           4.2899   -2.1077   -3.8104 C.3     1  UNL1        0.0788
     60 C           6.9481   -1.4371   -1.3485 C.ar    1  UNL1       -0.0077
     61 H          16.4615   -1.6641    0.3437 H       1  UNL1        0.0524
     62 H          16.2229   -0.1501    1.3477 H       1  UNL1        0.0524
     63 H          17.8774   -0.9214    1.1286 H       1  UNL1        0.0524
     64 H          15.3544    0.9401   -0.5522 H       1  UNL1        0.0582
     65 H          16.3078    1.0640   -2.0688 H       1  UNL1        0.0582
     66 H          15.0400   -1.5581   -0.9811 H       1  UNL1        0.0583
     67 H          16.0007   -1.3492   -2.4600 H       1  UNL1        0.0583
     68 H          12.3742    0.3602   -2.4726 H       1  UNL1        0.0583
     69 H          13.6371    1.2867   -1.5430 H       1  UNL1        0.0583
     70 H          13.6346   -0.6629    0.1352 H       1  UNL1        0.0583
     71 H          12.3271   -1.4009   -0.9097 H       1  UNL1        0.0583
     72 H          12.2809   -0.4055    1.9190 H       1  UNL1        0.0575
     73 H          10.7361    0.4870    1.7740 H       1  UNL1        0.0575
     74 H          10.3365   -1.9301    2.0244 H       1  UNL1        0.0485
     75 H          11.3992   -2.3087    0.6315 H       1  UNL1        0.0485
     76 H           9.4369   -2.0492   -0.7025 H       1  UNL1        0.1491
     77 H           6.4488    1.0603    0.8132 H       1  UNL1        0.0644
     78 H           4.3736    2.4664   -0.1523 H       1  UNL1        0.1536
     79 H           2.0416    3.1008    0.2191 H       1  UNL1        0.0689
     80 H          -2.8437    2.9098   -0.8415 H       1  UNL1        0.0655
     81 H          -4.9923    2.0839   -0.2082 H       1  UNL1        0.0637
     82 H          -5.6776    0.2178    2.9617 H       1  UNL1        0.1564
     83 H          -7.9441   -0.2793    2.6861 H       1  UNL1        0.1565
     84 H          -8.3827    0.2514   -1.0204 H       1  UNL1        0.0640
     85 H         -10.2528   -1.1152   -4.1849 H       1  UNL1        0.0238
     86 H          -9.6176   -1.7730   -2.6273 H       1  UNL1        0.0238
     87 H         -11.4116   -1.6609   -2.9160 H       1  UNL1        0.0238
     88 H          -8.9904    1.8333   -2.4481 H       1  UNL1        0.0238
     89 H          -8.3813    0.2757   -3.0868 H       1  UNL1        0.0238
     90 H          -9.4586    1.2895   -4.0874 H       1  UNL1        0.0238
     91 H         -12.6263    0.2144   -2.8585 H       1  UNL1        0.0238
     92 H         -11.8603    1.8777   -2.6096 H       1  UNL1        0.0238
     93 H         -11.6681    0.9841   -4.1508 H       1  UNL1        0.0238
     94 H         -12.5484   -0.1651   -0.8429 H       1  UNL1        0.0641
     95 H         -12.5586   -1.1081    2.7156 H       1  UNL1        0.1734
     96 H         -16.0127   -0.7717    0.0611 H       1  UNL1        0.0482
     97 H         -14.4170   -1.4681   -0.2797 H       1  UNL1        0.0482
     98 H         -14.8318    0.2484   -0.8034 H       1  UNL1        0.0482
     99 H         -10.9538   -1.8088    4.3369 H       1  UNL1        0.0660
    100 H         -10.2353   -2.5209    2.8573 H       1  UNL1        0.0660
    101 H          -9.1314   -1.8043    4.0927 H       1  UNL1        0.0660
    102 H          -4.1971   -0.2922    3.9271 H       1  UNL1        0.0624
    103 H          -2.2157   -0.6936    5.3138 H       1  UNL1        0.0618
    104 H          -0.0273    0.2216    4.5897 H       1  UNL1        0.0618
    105 H           0.1043    1.5033    2.5502 H       1  UNL1        0.0625
    106 H          -0.9224    0.0349    0.0461 H       1  UNL1        0.0669
    107 H           0.8700   -1.5982   -0.5240 H       1  UNL1        0.0831
    108 H           3.8896   -0.3019   -2.2598 H       1  UNL1        0.0673
    109 H           4.3804   -2.7847   -4.6876 H       1  UNL1        0.0660
    110 H           4.0937   -1.0559   -4.1375 H       1  UNL1        0.0660
    111 H           3.4213   -2.3648   -3.1534 H       1  UNL1        0.0660
    112 H           7.6386   -2.1882   -1.6363 H       1  UNL1        0.0662
@<TRIPOS>BOND
     1     1     2    1
     2     2     3    1
     3     3     4    1
     4     4     5    1
     5     5     6    1
     6     6     7    1
     7     7     8    1
     8     8     9    1
     9     9    10    1
    10    10    11    1
    11    11    12   am
    12    12    13    2
    13    12    14    1
    14    14    15   ar
    15    15    16   ar
    16    16    17    1
    17    17    18    1
    18    18    19   ar
    19    19    20   ar
    20    20    21    1
    21    21    22    1
    22    22    23   ar
    23    23    24   ar
    24    24    25   ar
    25    25    26    1
    26    26    27   am
    27    27    28    2
    28    27    29   am
    29    29    30    1
    30    30    31   ar
    31    31    32   ar
    32    32    33    1
    33    33    34    1
    34    33    35    1
    35    33    36    1
    36    32    37   ar
    37    37    38   ar
    38    38    39    1
    39    39    40    1
    40    40    41    1
    41    40    42    2
    42    40    43    2
    43    38    44   ar
    44    44    45    1
    45    45    46    1
    46    25    47   ar
    47    47    48   ar
    48    48    49   ar
    49    49    50   ar
    50    50    51   ar
    51    51    52   ar
    52    20    53   ar
    53    53    54   ar
    54    54    55   ar
    55    16    56   ar
    56    56    57   ar
    57    57    58    1
    58    58    59    1
    59    57    60   ar
    60    60    14   ar
    61    55    18   ar
    62    52    22   ar
    63    44    30   ar
    64    52    47   ar
    65     1    61    1
    66     1    62    1
    67     1    63    1
    68     3    64    1
    69     3    65    1
    70     4    66    1
    71     4    67    1
    72     6    68    1
    73     6    69    1
    74     7    70    1
    75     7    71    1
    76     9    72    1
    77     9    73    1
    78    10    74    1
    79    10    75    1
    80    11    76    1
    81    15    77    1
    82    17    78    1
    83    19    79    1
    84    23    80    1
    85    24    81    1
    86    26    82    1
    87    29    83    1
    88    31    84    1
    89    34    85    1
    90    34    86    1
    91    34    87    1
    92    35    88    1
    93    35    89    1
    94    35    90    1
    95    36    91    1
    96    36    92    1
    97    36    93    1
    98    37    94    1
    99    39    95    1
   100    41    96    1
   101    41    97    1
   102    41    98    1
   103    46    99    1
   104    46   100    1
   105    46   101    1
   106    48   102    1
   107    49   103    1
   108    50   104    1
   109    51   105    1
   110    53   106    1
   111    54   107    1
   112    56   108    1
   113    59   109    1
   114    59   110    1
   115    59   111    1
   116    60   112    1
