
     RDKit          3D

 30 31  0  0  0  0  0  0  0  0999 V2000
    2.6492    1.4944   -0.9555 O   0  0  0  0  0  0  0  0  0  0  0  0
    2.1063    1.7243    0.1450 C   0  0  0  0  0  0  0  0  0  0  0  0
    2.1696    2.9944    0.6800 O   0  0  0  0  0  0  0  0  0  0  0  0
    1.3928    0.6429    0.8842 C   0  0  0  0  0  0  0  0  0  0  0  0
    1.4503   -0.6305    0.1125 C   0  0  0  0  0  0  0  0  0  0  0  0
    2.4422   -1.5206    0.5504 C   0  0  0  0  0  0  0  0  0  0  0  0
    2.5866   -2.7111   -0.1282 C   0  0  0  0  0  0  0  0  0  0  0  0
    1.7742   -3.0172   -1.2105 C   0  0  0  0  0  0  0  0  0  0  0  0
    0.8120   -2.1385   -1.6239 C   0  0  0  0  0  0  0  0  0  0  0  0
    0.6467   -0.9217   -0.9491 C   0  0  0  0  0  0  0  0  0  0  0  0
   -0.3730   -0.0858   -1.4293 N   0  0  0  0  0  0  0  0  0  0  0  0
   -1.5105    0.3953   -0.8025 C   0  0  0  0  0  0  0  0  0  0  0  0
   -1.7895    1.7225   -0.6358 C   0  0  0  0  0  0  0  0  0  0  0  0
   -0.7469    2.9497   -1.2696 Cl  0  0  0  0  0  0  0  0  0  0  0  0
   -2.9375    2.1765    0.0265 C   0  0  0  0  0  0  0  0  0  0  0  0
   -3.8178    1.2564    0.5277 C   0  0  0  0  0  0  0  0  0  0  0  0
   -3.5654   -0.0893    0.3751 C   0  0  0  0  0  0  0  0  0  0  0  0
   -2.4209   -0.5027   -0.2847 C   0  0  0  0  0  0  0  0  0  0  0  0
   -2.1147   -2.1966   -0.4709 Cl  0  0  0  0  0  0  0  0  0  0  0  0
    2.8024    3.7287    0.3441 H   0  0  0  0  0  0  0  0  0  0  0  0
    1.9406    0.5289    1.8577 H   0  0  0  0  0  0  0  0  0  0  0  0
    0.3618    1.0072    1.0550 H   0  0  0  0  0  0  0  0  0  0  0  0
    3.0774   -1.2889    1.3912 H   0  0  0  0  0  0  0  0  0  0  0  0
    3.3603   -3.4226    0.1998 H   0  0  0  0  0  0  0  0  0  0  0  0
    1.8986   -3.9726   -1.7460 H   0  0  0  0  0  0  0  0  0  0  0  0
    0.1752   -2.3919   -2.4793 H   0  0  0  0  0  0  0  0  0  0  0  0
   -0.2398    0.2248   -2.4489 H   0  0  0  0  0  0  0  0  0  0  0  0
   -3.1300    3.2361    0.1443 H   0  0  0  0  0  0  0  0  0  0  0  0
   -4.7246    1.6043    1.0517 H   0  0  0  0  0  0  0  0  0  0  0  0
   -4.2756   -0.7964    0.7789 H   0  0  0  0  0  0  0  0  0  0  0  0
  1  2  2  0
  2  3  1  0
  2  4  1  0
  4  5  1  0
  5  6  2  0
  6  7  1  0
  7  8  2  0
  8  9  1  0
  9 10  2  0
 10 11  1  0
 11 12  1  0
 12 13  2  0
 13 14  1  0
 13 15  1  0
 15 16  2  0
 16 17  1  0
 17 18  2  0
 18 19  1  0
 10  5  1  0
 18 12  1  0
  3 20  1  0
  4 21  1  0
  4 22  1  0
  6 23  1  0
  7 24  1  0
  8 25  1  0
  9 26  1  0
 11 27  1  0
 15 28  1  0
 16 29  1  0
 17 30  1  0
M  END
$$$$
