@<TRIPOS>MOLECULE
*****
 30 31 0 0 0
SMALL
GASTEIGER

@<TRIPOS>ATOM
      1 O           2.6492    1.4944   -0.9555 O.2     1  UNL1       -0.2507
      2 C           2.1063    1.7243    0.1450 C.2     1  UNL1        0.3091
      3 O           2.1696    2.9944    0.6800 O.3     1  UNL1       -0.4804
      4 C           1.3928    0.6429    0.8842 C.3     1  UNL1        0.0716
      5 C           1.4503   -0.6305    0.1125 C.ar    1  UNL1       -0.0156
      6 C           2.4422   -1.5206    0.5504 C.ar    1  UNL1       -0.0563
      7 C           2.5866   -2.7111   -0.1282 C.ar    1  UNL1       -0.0614
      8 C           1.7742   -3.0172   -1.2105 C.ar    1  UNL1       -0.0600
      9 C           0.8120   -2.1385   -1.6239 C.ar    1  UNL1       -0.0403
     10 C           0.6467   -0.9217   -0.9491 C.ar    1  UNL1        0.0351
     11 N          -0.3730   -0.0858   -1.4293 N.pl3   1  UNL1       -0.3120
     12 C          -1.5105    0.3953   -0.8025 C.ar    1  UNL1        0.0684
     13 C          -1.7895    1.7225   -0.6358 C.ar    1  UNL1        0.0635
     14 CL         -0.7469    2.9497   -1.2696 Cl      1  UNL1       -0.0816
     15 C          -2.9375    2.1765    0.0265 C.ar    1  UNL1       -0.0415
     16 C          -3.8178    1.2564    0.5277 C.ar    1  UNL1       -0.0589
     17 C          -3.5654   -0.0893    0.3751 C.ar    1  UNL1       -0.0415
     18 C          -2.4209   -0.5027   -0.2847 C.ar    1  UNL1        0.0635
     19 CL         -2.1147   -2.1966   -0.4709 Cl      1  UNL1       -0.0816
     20 H           2.8024    3.7287    0.3441 H       1  UNL1        0.2951
     21 H           1.9406    0.5289    1.8577 H       1  UNL1        0.0427
     22 H           0.3618    1.0072    1.0550 H       1  UNL1        0.0427
     23 H           3.0774   -1.2889    1.3912 H       1  UNL1        0.0621
     24 H           3.3603   -3.4226    0.1998 H       1  UNL1        0.0618
     25 H           1.8986   -3.9726   -1.7460 H       1  UNL1        0.0618
     26 H           0.1752   -2.3919   -2.4793 H       1  UNL1        0.0636
     27 H          -0.2398    0.2248   -2.4489 H       1  UNL1        0.1522
     28 H          -3.1300    3.2361    0.1443 H       1  UNL1        0.0633
     29 H          -4.7246    1.6043    1.0517 H       1  UNL1        0.0618
     30 H          -4.2756   -0.7964    0.7789 H       1  UNL1        0.0633
@<TRIPOS>BOND
     1     1     2    2
     2     2     3    1
     3     2     4    1
     4     4     5    1
     5     5     6   ar
     6     6     7   ar
     7     7     8   ar
     8     8     9   ar
     9     9    10   ar
    10    10    11    1
    11    11    12    1
    12    12    13   ar
    13    13    14    1
    14    13    15   ar
    15    15    16   ar
    16    16    17   ar
    17    17    18   ar
    18    18    19    1
    19    10     5   ar
    20    18    12   ar
    21     3    20    1
    22     4    21    1
    23     4    22    1
    24     6    23    1
    25     7    24    1
    26     8    25    1
    27     9    26    1
    28    11    27    1
    29    15    28    1
    30    16    29    1
    31    17    30    1
