@<TRIPOS>MOLECULE
*****
 44 47 0 0 0
SMALL
GASTEIGER

@<TRIPOS>ATOM
      1 C          -4.9758    1.5332   -0.9785 C.3     1  UNL1       -0.0201
      2 C          -5.2220    0.0873   -0.7752 C.ar    1  UNL1        0.0703
      3 N          -6.4511   -0.3759   -1.1606 N.ar    1  UNL1       -0.2366
      4 C          -6.8061   -1.6547   -0.9871 C.ar    1  UNL1        0.1475
      5 CL         -8.3649   -2.2955   -1.4627 Cl      1  UNL1       -0.0604
      6 C          -5.8939   -2.5069   -0.4036 C.ar    1  UNL1        0.0653
      7 N          -4.6983   -2.0406   -0.0335 N.ar    1  UNL1       -0.2456
      8 C          -4.3035   -0.7391   -0.1975 C.ar    1  UNL1        0.1466
      9 C          -2.9541   -0.3936    0.2045 C.2     1  UNL1        0.2683
     10 O          -2.3752   -1.1791    1.0600 O.2     1  UNL1       -0.2681
     11 N          -2.1625    0.6815   -0.2043 N.am    1  UNL1       -0.2802
     12 C          -0.8281    0.8430    0.3386 C.ar    1  UNL1        0.0342
     13 C          -0.6325    1.5816    1.4840 C.ar    1  UNL1       -0.0377
     14 C           0.6497    1.7483    2.0227 C.ar    1  UNL1       -0.0243
     15 C           1.7047    1.1402    1.3549 C.ar    1  UNL1        0.1292
     16 F           2.9590    1.3024    1.8806 F       1  UNL1       -0.2051
     17 C           1.5341    0.3961    0.2070 C.ar    1  UNL1        0.0228
     18 C           2.7488   -0.2008   -0.4037 C.3     1  UNL1        0.1603
     19 C           2.4426   -1.0221   -1.6304 C.3     1  UNL1        0.2686
     20 F           1.8462   -0.3196   -2.6403 F       1  UNL1       -0.2062
     21 F           1.6939   -2.1497   -1.2833 F       1  UNL1       -0.2062
     22 N           3.3214   -1.0742    0.5785 N.2     1  UNL1       -0.2194
     23 C           4.4972   -1.0457    1.0511 C.2     1  UNL1        0.2764
     24 N           4.9812   -1.9641    2.0340 N.pl3   1  UNL1       -0.3134
     25 O           5.3652   -0.0690    0.5898 O.2     1  UNL1       -0.4622
     26 C           4.9647    1.0007   -0.2044 C.3     1  UNL1        0.1091
     27 C           4.8449    0.6992   -1.6706 C.3     1  UNL1       -0.0064
     28 C           3.6477    0.9391   -0.8165 C.3     1  UNL1        0.0344
     29 C           0.2592    0.2618   -0.2817 C.ar    1  UNL1       -0.0321
     30 H          -5.9890    2.0737   -1.0497 H       1  UNL1        0.0293
     31 H          -4.5250    1.9803   -0.0822 H       1  UNL1        0.0293
     32 H          -4.5067    1.7874   -1.9421 H       1  UNL1        0.0293
     33 H          -6.1811   -3.5574   -0.2590 H       1  UNL1        0.0860
     34 H          -2.5238    1.3405   -0.9057 H       1  UNL1        0.1552
     35 H          -1.5026    2.0264    1.9500 H       1  UNL1        0.0637
     36 H           0.7884    2.3281    2.9185 H       1  UNL1        0.0647
     37 H           3.4077   -1.4142   -2.0037 H       1  UNL1        0.1047
     38 H           4.3056   -2.3381    2.7375 H       1  UNL1        0.1466
     39 H           5.9818   -2.2458    2.0394 H       1  UNL1        0.1466
     40 H           5.3972    1.9887    0.1087 H       1  UNL1        0.0737
     41 H           5.1121   -0.2960   -2.0463 H       1  UNL1        0.0306
     42 H           5.1943    1.5203   -2.3343 H       1  UNL1        0.0306
     43 H           3.1418    1.9335   -0.9941 H       1  UNL1        0.0366
     44 H           0.1068   -0.3109   -1.1674 H       1  UNL1        0.0640
@<TRIPOS>BOND
     1     1     2    1
     2     2     3   ar
     3     3     4   ar
     4     4     5    1
     5     4     6   ar
     6     6     7   ar
     7     7     8   ar
     8     8     9    1
     9     9    10    2
    10     9    11   am
    11    11    12    1
    12    12    13   ar
    13    13    14   ar
    14    14    15   ar
    15    15    16    1
    16    15    17   ar
    17    17    18    1
    18    18    19    1
    19    19    20    1
    20    19    21    1
    21    18    22    1
    22    22    23    2
    23    23    24    1
    24    23    25    1
    25    25    26    1
    26    26    27    1
    27    27    28    1
    28    17    29   ar
    29     8     2   ar
    30    29    12   ar
    31    28    18    1
    32    28    26    1
    33     1    30    1
    34     1    31    1
    35     1    32    1
    36     6    33    1
    37    11    34    1
    38    13    35    1
    39    14    36    1
    40    19    37    1
    41    24    38    1
    42    24    39    1
    43    26    40    1
    44    27    41    1
    45    27    42    1
    46    28    43    1
    47    29    44    1
