@<TRIPOS>MOLECULE
*****
 51 53 0 0 0
SMALL
GASTEIGER

@<TRIPOS>ATOM
      1 C           7.8857    3.4884    1.1002 C.3     1  UNL1        0.0134
      2 C           6.5154    2.9074    1.1604 C.2     1  UNL1        0.2234
      3 O           5.9640    2.8704    2.2887 O.2     1  UNL1       -0.2748
      4 N           5.8937    2.4286   -0.0192 N.am    1  UNL1       -0.2509
      5 N           4.6089    1.8869    0.0546 N.3     1  UNL1       -0.2363
      6 C           4.6993    0.4544    0.3021 C.3     1  UNL1        0.0387
      7 C           3.3799   -0.1798    0.3913 C.ar    1  UNL1       -0.0320
      8 C           2.7276   -0.6981   -0.7078 C.ar    1  UNL1       -0.0566
      9 C           1.4891   -1.2968   -0.6430 C.ar    1  UNL1       -0.0493
     10 C           0.8582   -1.3917    0.5619 C.ar    1  UNL1        0.0370
     11 C          -0.4710   -2.0213    0.7036 C.2     1  UNL1        0.2483
     12 O          -0.9617   -2.0553    1.8629 O.2     1  UNL1       -0.2699
     13 N          -1.1947   -2.5714   -0.3761 N.am    1  UNL1       -0.2808
     14 C          -2.4677   -3.1649   -0.1881 C.ar    1  UNL1        0.0459
     15 C          -2.5807   -4.5110    0.0936 C.ar    1  UNL1       -0.0384
     16 C          -3.7979   -5.1303    0.2839 C.ar    1  UNL1       -0.0416
     17 C          -4.9697   -4.4095    0.1972 C.ar    1  UNL1        0.0418
     18 CL         -6.5514   -5.1249    0.4261 Cl      1  UNL1       -0.0835
     19 C          -4.8485   -3.0577   -0.0862 C.ar    1  UNL1       -0.0295
     20 C          -3.6395   -2.4265   -0.2784 C.ar    1  UNL1        0.0596
     21 C          -3.5374   -1.0003   -0.5761 C.2     1  UNL1        0.2511
     22 O          -2.4088   -0.4540   -0.7467 O.2     1  UNL1       -0.2697
     23 N          -4.6552   -0.1316   -0.6959 N.am    1  UNL1       -0.2663
     24 C          -4.4806    1.2719   -0.9926 C.ar    1  UNL1        0.1252
     25 C          -4.3340    2.2041    0.0137 C.ar    1  UNL1       -0.0201
     26 C          -4.1647    3.5559   -0.2287 C.ar    1  UNL1       -0.0387
     27 C          -4.1406    3.9983   -1.5332 C.ar    1  UNL1        0.0592
     28 CL         -3.9301    5.6972   -1.9278 Cl      1  UNL1       -0.0820
     29 C          -4.2891    3.0488   -2.5286 C.ar    1  UNL1        0.0480
     30 N          -4.4526    1.7356   -2.2551 N.ar    1  UNL1       -0.2387
     31 C           1.4912   -0.8800    1.6774 C.ar    1  UNL1       -0.0493
     32 C           2.7280   -0.2850    1.5968 C.ar    1  UNL1       -0.0566
     33 H           8.5610    2.8946    0.4384 H       1  UNL1        0.0323
     34 H           8.3814    3.4529    2.1105 H       1  UNL1        0.0323
     35 H           7.8591    4.5497    0.7545 H       1  UNL1        0.0323
     36 H           6.3528    2.4604   -0.9528 H       1  UNL1        0.1689
     37 H           4.1140    2.0770   -0.8336 H       1  UNL1        0.1446
     38 H           5.1982    0.3449    1.3033 H       1  UNL1        0.0490
     39 H           5.2716   -0.0080   -0.5109 H       1  UNL1        0.0490
     40 H           3.1795   -0.6530   -1.6990 H       1  UNL1        0.0621
     41 H           1.0177   -1.6895   -1.5388 H       1  UNL1        0.0625
     42 H          -0.7909   -2.5425   -1.3251 H       1  UNL1        0.1552
     43 H          -1.6749   -5.1061    0.1684 H       1  UNL1        0.0637
     44 H          -3.9012   -6.1905    0.5065 H       1  UNL1        0.0633
     45 H          -5.7757   -2.4982   -0.1525 H       1  UNL1        0.0640
     46 H          -5.6134   -0.5211   -0.5662 H       1  UNL1        0.1566
     47 H          -4.3508    1.8713    1.0493 H       1  UNL1        0.0652
     48 H          -4.0510    4.2736    0.5801 H       1  UNL1        0.0634
     49 H          -4.2709    3.3942   -3.5720 H       1  UNL1        0.0845
     50 H           0.9827   -0.9560    2.6514 H       1  UNL1        0.0625
     51 H           3.1457    0.0882    2.5311 H       1  UNL1        0.0621
@<TRIPOS>BOND
     1     1     2    1
     2     2     3    2
     3     2     4   am
     4     4     5    1
     5     5     6    1
     6     6     7    1
     7     7     8   ar
     8     8     9   ar
     9     9    10   ar
    10    10    11    1
    11    11    12    2
    12    11    13   am
    13    13    14    1
    14    14    15   ar
    15    15    16   ar
    16    16    17   ar
    17    17    18    1
    18    17    19   ar
    19    19    20   ar
    20    20    21    1
    21    21    22    2
    22    21    23   am
    23    23    24    1
    24    24    25   ar
    25    25    26   ar
    26    26    27   ar
    27    27    28    1
    28    27    29   ar
    29    29    30   ar
    30    10    31   ar
    31    31    32   ar
    32    32     7   ar
    33    20    14   ar
    34    30    24   ar
    35     1    33    1
    36     1    34    1
    37     1    35    1
    38     4    36    1
    39     5    37    1
    40     6    38    1
    41     6    39    1
    42     8    40    1
    43     9    41    1
    44    13    42    1
    45    15    43    1
    46    16    44    1
    47    19    45    1
    48    23    46    1
    49    25    47    1
    50    26    48    1
    51    29    49    1
    52    31    50    1
    53    32    51    1
