
     RDKit          3D

 51 53  0  0  0  0  0  0  0  0999 V2000
    7.8857    3.4884    1.1002 C   0  0  0  0  0  0  0  0  0  0  0  0
    6.5154    2.9074    1.1604 C   0  0  0  0  0  0  0  0  0  0  0  0
    5.9640    2.8704    2.2887 O   0  0  0  0  0  0  0  0  0  0  0  0
    5.8937    2.4286   -0.0192 N   0  0  0  0  0  0  0  0  0  0  0  0
    4.6089    1.8869    0.0546 N   0  0  0  0  0  0  0  0  0  0  0  0
    4.6993    0.4544    0.3021 C   0  0  0  0  0  0  0  0  0  0  0  0
    3.3799   -0.1798    0.3913 C   0  0  0  0  0  0  0  0  0  0  0  0
    2.7276   -0.6981   -0.7078 C   0  0  0  0  0  0  0  0  0  0  0  0
    1.4891   -1.2968   -0.6430 C   0  0  0  0  0  0  0  0  0  0  0  0
    0.8582   -1.3917    0.5619 C   0  0  0  0  0  0  0  0  0  0  0  0
   -0.4710   -2.0213    0.7036 C   0  0  0  0  0  0  0  0  0  0  0  0
   -0.9617   -2.0553    1.8629 O   0  0  0  0  0  0  0  0  0  0  0  0
   -1.1947   -2.5714   -0.3761 N   0  0  0  0  0  0  0  0  0  0  0  0
   -2.4677   -3.1649   -0.1881 C   0  0  0  0  0  0  0  0  0  0  0  0
   -2.5807   -4.5110    0.0936 C   0  0  0  0  0  0  0  0  0  0  0  0
   -3.7979   -5.1303    0.2839 C   0  0  0  0  0  0  0  0  0  0  0  0
   -4.9697   -4.4095    0.1972 C   0  0  0  0  0  0  0  0  0  0  0  0
   -6.5514   -5.1249    0.4261 Cl  0  0  0  0  0  0  0  0  0  0  0  0
   -4.8485   -3.0577   -0.0862 C   0  0  0  0  0  0  0  0  0  0  0  0
   -3.6395   -2.4265   -0.2784 C   0  0  0  0  0  0  0  0  0  0  0  0
   -3.5374   -1.0003   -0.5761 C   0  0  0  0  0  0  0  0  0  0  0  0
   -2.4088   -0.4540   -0.7467 O   0  0  0  0  0  0  0  0  0  0  0  0
   -4.6552   -0.1316   -0.6959 N   0  0  0  0  0  0  0  0  0  0  0  0
   -4.4806    1.2719   -0.9926 C   0  0  0  0  0  0  0  0  0  0  0  0
   -4.3340    2.2041    0.0137 C   0  0  0  0  0  0  0  0  0  0  0  0
   -4.1647    3.5559   -0.2287 C   0  0  0  0  0  0  0  0  0  0  0  0
   -4.1406    3.9983   -1.5332 C   0  0  0  0  0  0  0  0  0  0  0  0
   -3.9301    5.6972   -1.9278 Cl  0  0  0  0  0  0  0  0  0  0  0  0
   -4.2891    3.0488   -2.5286 C   0  0  0  0  0  0  0  0  0  0  0  0
   -4.4526    1.7356   -2.2551 N   0  0  0  0  0  0  0  0  0  0  0  0
    1.4912   -0.8800    1.6774 C   0  0  0  0  0  0  0  0  0  0  0  0
    2.7280   -0.2850    1.5968 C   0  0  0  0  0  0  0  0  0  0  0  0
    8.5610    2.8946    0.4384 H   0  0  0  0  0  0  0  0  0  0  0  0
    8.3814    3.4529    2.1105 H   0  0  0  0  0  0  0  0  0  0  0  0
    7.8591    4.5497    0.7545 H   0  0  0  0  0  0  0  0  0  0  0  0
    6.3528    2.4604   -0.9528 H   0  0  0  0  0  0  0  0  0  0  0  0
    4.1140    2.0770   -0.8336 H   0  0  0  0  0  0  0  0  0  0  0  0
    5.1982    0.3449    1.3033 H   0  0  0  0  0  0  0  0  0  0  0  0
    5.2716   -0.0080   -0.5109 H   0  0  0  0  0  0  0  0  0  0  0  0
    3.1795   -0.6530   -1.6990 H   0  0  0  0  0  0  0  0  0  0  0  0
    1.0177   -1.6895   -1.5388 H   0  0  0  0  0  0  0  0  0  0  0  0
   -0.7909   -2.5425   -1.3251 H   0  0  0  0  0  0  0  0  0  0  0  0
   -1.6749   -5.1061    0.1684 H   0  0  0  0  0  0  0  0  0  0  0  0
   -3.9012   -6.1905    0.5065 H   0  0  0  0  0  0  0  0  0  0  0  0
   -5.7757   -2.4982   -0.1525 H   0  0  0  0  0  0  0  0  0  0  0  0
   -5.6134   -0.5211   -0.5662 H   0  0  0  0  0  0  0  0  0  0  0  0
   -4.3508    1.8713    1.0493 H   0  0  0  0  0  0  0  0  0  0  0  0
   -4.0510    4.2736    0.5801 H   0  0  0  0  0  0  0  0  0  0  0  0
   -4.2709    3.3942   -3.5720 H   0  0  0  0  0  0  0  0  0  0  0  0
    0.9827   -0.9560    2.6514 H   0  0  0  0  0  0  0  0  0  0  0  0
    3.1457    0.0882    2.5311 H   0  0  0  0  0  0  0  0  0  0  0  0
  1  2  1  0
  2  3  2  0
  2  4  1  0
  4  5  1  0
  5  6  1  0
  6  7  1  0
  7  8  2  0
  8  9  1  0
  9 10  2  0
 10 11  1  0
 11 12  2  0
 11 13  1  0
 13 14  1  0
 14 15  2  0
 15 16  1  0
 16 17  2  0
 17 18  1  0
 17 19  1  0
 19 20  2  0
 20 21  1  0
 21 22  2  0
 21 23  1  0
 23 24  1  0
 24 25  2  0
 25 26  1  0
 26 27  2  0
 27 28  1  0
 27 29  1  0
 29 30  2  0
 10 31  1  0
 31 32  2  0
 32  7  1  0
 20 14  1  0
 30 24  1  0
  1 33  1  0
  1 34  1  0
  1 35  1  0
  4 36  1  0
  5 37  1  0
  6 38  1  0
  6 39  1  0
  8 40  1  0
  9 41  1  0
 13 42  1  0
 15 43  1  0
 16 44  1  0
 19 45  1  0
 23 46  1  0
 25 47  1  0
 26 48  1  0
 29 49  1  0
 31 50  1  0
 32 51  1  0
M  END
$$$$
