
     RDKit          3D

 57 60  0  0  0  0  0  0  0  0999 V2000
    1.5835   -1.0166    1.9533 C   0  0  0  0  0  0  0  0  0  0  0  0
    0.8457   -0.7706    0.6804 C   0  0  0  0  0  0  0  0  0  0  0  0
   -0.3930   -0.1486    0.5989 C   0  0  0  0  0  0  0  0  0  0  0  0
   -0.7576   -0.0851   -0.7230 C   0  0  0  0  0  0  0  0  0  0  0  0
   -1.9917    0.4816   -1.2728 C   0  0  0  0  0  0  0  0  0  0  0  0
   -2.2227    1.7062   -1.1674 O   0  0  0  0  0  0  0  0  0  0  0  0
   -2.9485   -0.3290   -1.9298 N   0  0  0  0  0  0  0  0  0  0  0  0
   -4.1927    0.1400   -2.5014 C   0  0  0  0  0  0  0  0  0  0  0  0
   -5.1789    0.3980   -1.4311 C   0  0  0  0  0  0  0  0  0  0  0  0
   -5.9265   -0.6841   -0.9926 C   0  0  0  0  0  0  0  0  0  0  0  0
   -6.8874   -0.5512    0.0079 C   0  0  0  0  0  0  0  0  0  0  0  0
   -7.0635    0.7104    0.5457 C   0  0  0  0  0  0  0  0  0  0  0  0
   -8.0816    0.8722    1.6143 C   0  0  0  0  0  0  0  0  0  0  0  0
   -7.4888    0.6667    2.9189 N   0  0  0  0  0  0  0  0  0  0  0  0
   -6.3446    1.8071    0.1396 C   0  0  0  0  0  0  0  0  0  0  0  0
   -5.4000    1.6123   -0.8631 C   0  0  0  0  0  0  0  0  0  0  0  0
    0.2856   -0.6764   -1.4005 C   0  0  0  0  0  0  0  0  0  0  0  0
    0.2823   -0.8315   -2.8787 C   0  0  0  0  0  0  0  0  0  0  0  0
    1.2555   -1.0915   -0.5562 N   0  0  0  0  0  0  0  0  0  0  0  0
    2.5156   -1.7395   -0.9612 C   0  0  0  0  0  0  0  0  0  0  0  0
    3.5904   -0.7219   -1.0597 C   0  0  0  0  0  0  0  0  0  0  0  0
    3.6058    0.3676   -2.0107 C   0  0  0  0  0  0  0  0  0  0  0  0
    5.1174    1.1864   -1.6763 S   0  0  0  0  0  0  0  0  0  0  0  0
    5.5881   -0.0103   -0.2891 C   0  0  0  0  0  0  0  0  0  0  0  0
    6.8870    0.2275    0.4031 C   0  0  0  0  0  0  0  0  0  0  0  0
    7.6946    1.2839    0.0906 C   0  0  0  0  0  0  0  0  0  0  0  0
    8.8949    1.4046    0.7916 C   0  0  0  0  0  0  0  0  0  0  0  0
    9.2078    0.4738    1.7483 C   0  0  0  0  0  0  0  0  0  0  0  0
    8.3819   -0.5895    2.0551 C   0  0  0  0  0  0  0  0  0  0  0  0
    7.2055   -0.7018    1.3628 C   0  0  0  0  0  0  0  0  0  0  0  0
    4.6608   -0.7103   -0.3206 N   0  0  0  0  0  0  0  0  0  0  0  0
    0.8727   -0.9240    2.8044 H   0  0  0  0  0  0  0  0  0  0  0  0
    2.0230   -2.0195    1.9966 H   0  0  0  0  0  0  0  0  0  0  0  0
    2.3340   -0.2115    2.1276 H   0  0  0  0  0  0  0  0  0  0  0  0
   -0.9687    0.2232    1.4480 H   0  0  0  0  0  0  0  0  0  0  0  0
   -2.6953   -1.3516   -1.9897 H   0  0  0  0  0  0  0  0  0  0  0  0
   -4.0769    1.0652   -3.0793 H   0  0  0  0  0  0  0  0  0  0  0  0
   -4.5819   -0.6148   -3.2392 H   0  0  0  0  0  0  0  0  0  0  0  0
   -5.7811   -1.6513   -1.4143 H   0  0  0  0  0  0  0  0  0  0  0  0
   -7.4418   -1.4192    0.3149 H   0  0  0  0  0  0  0  0  0  0  0  0
   -8.5797    1.8500    1.5934 H   0  0  0  0  0  0  0  0  0  0  0  0
   -8.8530    0.0527    1.5185 H   0  0  0  0  0  0  0  0  0  0  0  0
   -8.0345    1.1744    3.6718 H   0  0  0  0  0  0  0  0  0  0  0  0
   -6.4914    0.9806    2.9421 H   0  0  0  0  0  0  0  0  0  0  0  0
   -6.5167    2.7601    0.5789 H   0  0  0  0  0  0  0  0  0  0  0  0
   -4.8322    2.4714   -1.1907 H   0  0  0  0  0  0  0  0  0  0  0  0
    1.2640   -1.1562   -3.2689 H   0  0  0  0  0  0  0  0  0  0  0  0
   -0.0881    0.0496   -3.4168 H   0  0  0  0  0  0  0  0  0  0  0  0
   -0.4008   -1.7091   -3.0972 H   0  0  0  0  0  0  0  0  0  0  0  0
    2.3553   -2.2972   -1.9070 H   0  0  0  0  0  0  0  0  0  0  0  0
    2.7194   -2.5128   -0.1985 H   0  0  0  0  0  0  0  0  0  0  0  0
    2.7860    0.5943   -2.7848 H   0  0  0  0  0  0  0  0  0  0  0  0
    7.4038    1.9888   -0.6656 H   0  0  0  0  0  0  0  0  0  0  0  0
    9.5263    2.2438    0.5311 H   0  0  0  0  0  0  0  0  0  0  0  0
   10.1420    0.5737    2.2875 H   0  0  0  0  0  0  0  0  0  0  0  0
    8.6399   -1.3163    2.8108 H   0  0  0  0  0  0  0  0  0  0  0  0
    6.5508   -1.5248    1.5882 H   0  0  0  0  0  0  0  0  0  0  0  0
  1  2  1  0
  2  3  2  0
  3  4  1  0
  4  5  1  0
  5  6  2  0
  5  7  1  0
  7  8  1  0
  8  9  1  0
  9 10  2  0
 10 11  1  0
 11 12  2  0
 12 13  1  0
 13 14  1  0
 12 15  1  0
 15 16  2  0
  4 17  2  0
 17 18  1  0
 17 19  1  0
 19 20  1  0
 20 21  1  0
 21 22  2  0
 22 23  1  0
 23 24  1  0
 24 25  1  0
 25 26  2  0
 26 27  1  0
 27 28  2  0
 28 29  1  0
 29 30  2  0
 24 31  2  0
 19  2  1  0
 31 21  1  0
 16  9  1  0
 30 25  1  0
  1 32  1  0
  1 33  1  0
  1 34  1  0
  3 35  1  0
  7 36  1  0
  8 37  1  0
  8 38  1  0
 10 39  1  0
 11 40  1  0
 13 41  1  0
 13 42  1  0
 14 43  1  0
 14 44  1  0
 15 45  1  0
 16 46  1  0
 18 47  1  0
 18 48  1  0
 18 49  1  0
 20 50  1  0
 20 51  1  0
 22 52  1  0
 26 53  1  0
 27 54  1  0
 28 55  1  0
 29 56  1  0
 30 57  1  0
M  END
$$$$
