@<TRIPOS>MOLECULE
*****
 57 60 0 0 0
SMALL
GASTEIGER

@<TRIPOS>ATOM
      1 C           1.5835   -1.0166    1.9533 C.3     1  UNL1       -0.0242
      2 C           0.8457   -0.7706    0.6804 C.ar    1  UNL1        0.0170
      3 C          -0.3930   -0.1486    0.5989 C.ar    1  UNL1       -0.0288
      4 C          -0.7576   -0.0851   -0.7230 C.ar    1  UNL1        0.0574
      5 C          -1.9917    0.4816   -1.2728 C.2     1  UNL1        0.2460
      6 O          -2.2227    1.7062   -1.1674 O.2     1  UNL1       -0.2701
      7 N          -2.9485   -0.3290   -1.9298 N.am    1  UNL1       -0.3072
      8 C          -4.1927    0.1400   -2.5014 C.3     1  UNL1        0.0371
      9 C          -5.1789    0.3980   -1.4311 C.ar    1  UNL1       -0.0303
     10 C          -5.9265   -0.6841   -0.9926 C.ar    1  UNL1       -0.0568
     11 C          -6.8874   -0.5512    0.0079 C.ar    1  UNL1       -0.0570
     12 C          -7.0635    0.7104    0.5457 C.ar    1  UNL1       -0.0338
     13 C          -8.0816    0.8722    1.6143 C.3     1  UNL1        0.0185
     14 N          -7.4888    0.6667    2.9189 N.3     1  UNL1       -0.3261
     15 C          -6.3446    1.8071    0.1396 C.ar    1  UNL1       -0.0570
     16 C          -5.4000    1.6123   -0.8631 C.ar    1  UNL1       -0.0568
     17 C           0.2856   -0.6764   -1.4005 C.ar    1  UNL1        0.0284
     18 C           0.2823   -0.8315   -2.8787 C.3     1  UNL1       -0.0235
     19 N           1.2555   -1.0915   -0.5562 N.ar    1  UNL1       -0.3417
     20 C           2.5156   -1.7395   -0.9612 C.3     1  UNL1        0.0659
     21 C           3.5904   -0.7219   -1.0597 C.ar    1  UNL1        0.0687
     22 C           3.6058    0.3676   -2.0107 C.ar    1  UNL1        0.0007
     23 S           5.1174    1.1864   -1.6763 S.2     1  UNL1       -0.0753
     24 C           5.5881   -0.0103   -0.2891 C.ar    1  UNL1        0.1086
     25 C           6.8870    0.2275    0.4031 C.ar    1  UNL1        0.0071
     26 C           7.6946    1.2839    0.0906 C.ar    1  UNL1       -0.0521
     27 C           8.8949    1.4046    0.7916 C.ar    1  UNL1       -0.0611
     28 C           9.2078    0.4738    1.7483 C.ar    1  UNL1       -0.0617
     29 C           8.3819   -0.5895    2.0551 C.ar    1  UNL1       -0.0611
     30 C           7.2055   -0.7018    1.3628 C.ar    1  UNL1       -0.0521
     31 N           4.6608   -0.7103   -0.3206 N.ar    1  UNL1       -0.2422
     32 H           0.8727   -0.9240    2.8044 H       1  UNL1        0.0292
     33 H           2.0230   -2.0195    1.9966 H       1  UNL1        0.0292
     34 H           2.3340   -0.2115    2.1276 H       1  UNL1        0.0292
     35 H          -0.9687    0.2232    1.4480 H       1  UNL1        0.0643
     36 H          -2.6953   -1.3516   -1.9897 H       1  UNL1        0.1493
     37 H          -4.0769    1.0652   -3.0793 H       1  UNL1        0.0512
     38 H          -4.5819   -0.6148   -3.2392 H       1  UNL1        0.0512
     39 H          -5.7811   -1.6513   -1.4143 H       1  UNL1        0.0621
     40 H          -7.4418   -1.4192    0.3149 H       1  UNL1        0.0621
     41 H          -8.5797    1.8500    1.5934 H       1  UNL1        0.0471
     42 H          -8.8530    0.0527    1.5185 H       1  UNL1        0.0471
     43 H          -8.0345    1.1744    3.6718 H       1  UNL1        0.1185
     44 H          -6.4914    0.9806    2.9421 H       1  UNL1        0.1185
     45 H          -6.5167    2.7601    0.5789 H       1  UNL1        0.0621
     46 H          -4.8322    2.4714   -1.1907 H       1  UNL1        0.0621
     47 H           1.2640   -1.1562   -3.2689 H       1  UNL1        0.0292
     48 H          -0.0881    0.0496   -3.4168 H       1  UNL1        0.0292
     49 H          -0.4008   -1.7091   -3.0972 H       1  UNL1        0.0292
     50 H           2.3553   -2.2972   -1.9070 H       1  UNL1        0.0557
     51 H           2.7194   -2.5128   -0.1985 H       1  UNL1        0.0557
     52 H           2.7860    0.5943   -2.7848 H       1  UNL1        0.0713
     53 H           7.4038    1.9888   -0.6656 H       1  UNL1        0.0624
     54 H           9.5263    2.2438    0.5311 H       1  UNL1        0.0618
     55 H          10.1420    0.5737    2.2875 H       1  UNL1        0.0618
     56 H           8.6399   -1.3163    2.8108 H       1  UNL1        0.0618
     57 H           6.5508   -1.5248    1.5882 H       1  UNL1        0.0624
@<TRIPOS>BOND
     1     1     2    1
     2     2     3   ar
     3     3     4   ar
     4     4     5    1
     5     5     6    2
     6     5     7   am
     7     7     8    1
     8     8     9    1
     9     9    10   ar
    10    10    11   ar
    11    11    12   ar
    12    12    13    1
    13    13    14    1
    14    12    15   ar
    15    15    16   ar
    16     4    17   ar
    17    17    18    1
    18    17    19   ar
    19    19    20    1
    20    20    21    1
    21    21    22   ar
    22    22    23   ar
    23    23    24   ar
    24    24    25    1
    25    25    26   ar
    26    26    27   ar
    27    27    28   ar
    28    28    29   ar
    29    29    30   ar
    30    24    31   ar
    31    19     2   ar
    32    31    21   ar
    33    16     9   ar
    34    30    25   ar
    35     1    32    1
    36     1    33    1
    37     1    34    1
    38     3    35    1
    39     7    36    1
    40     8    37    1
    41     8    38    1
    42    10    39    1
    43    11    40    1
    44    13    41    1
    45    13    42    1
    46    14    43    1
    47    14    44    1
    48    15    45    1
    49    16    46    1
    50    18    47    1
    51    18    48    1
    52    18    49    1
    53    20    50    1
    54    20    51    1
    55    22    52    1
    56    26    53    1
    57    27    54    1
    58    28    55    1
    59    29    56    1
    60    30    57    1
