
     RDKit          3D

 44 44  0  0  0  0  0  0  0  0999 V2000
    2.3297   -1.3692   -1.3691 C   0  0  0  0  0  0  0  0  0  0  0  0
    1.9521   -0.3603   -0.2893 C   0  0  1  0  0  0  0  0  0  0  0  0
    2.8675    0.8278   -0.4278 C   0  0  0  0  0  0  0  0  0  0  0  0
    4.2554    0.3847   -0.2540 C   0  0  0  0  0  0  0  0  0  0  0  0
    4.6782    0.4360    1.0757 C   0  0  0  0  0  0  0  0  0  0  0  0
    5.9661    0.0518    1.4199 C   0  0  0  0  0  0  0  0  0  0  0  0
    6.8553   -0.3876    0.4622 C   0  0  0  0  0  0  0  0  0  0  0  0
    6.4356   -0.4388   -0.8603 C   0  0  0  0  0  0  0  0  0  0  0  0
    5.1551   -0.0568   -1.2016 C   0  0  0  0  0  0  0  0  0  0  0  0
    0.5604   -0.0229   -0.5148 N   0  0  0  0  0  0  0  0  0  0  0  0
   -0.4844   -0.2513    0.4244 C   0  0  0  0  0  0  0  0  0  0  0  0
   -0.1228   -0.7863    1.5126 O   0  0  0  0  0  0  0  0  0  0  0  0
   -1.9042    0.1054    0.1654 C   0  0  1  0  0  0  0  0  0  0  0  0
   -1.9635    0.6915   -1.1639 N   0  0  0  0  0  0  0  0  0  0  0  0
   -2.7597   -1.1200    0.2856 C   0  0  0  0  0  0  0  0  0  0  0  0
   -4.2179   -0.8461    0.0373 C   0  0  0  0  0  0  0  0  0  0  0  0
   -4.7454    0.1483    1.0152 C   0  0  0  0  0  0  0  0  0  0  0  0
   -6.2026    0.4684    0.8224 C   0  0  0  0  0  0  0  0  0  0  0  0
   -7.0929   -0.6338    0.9407 N   0  0  0  0  0  0  0  0  0  0  0  0
    2.4966   -0.8580   -2.3386 H   0  0  0  0  0  0  0  0  0  0  0  0
    3.2890   -1.8628   -1.1182 H   0  0  0  0  0  0  0  0  0  0  0  0
    1.5538   -2.1487   -1.5158 H   0  0  0  0  0  0  0  0  0  0  0  0
    2.0181   -0.8078    0.7166 H   0  0  0  0  0  0  0  0  0  0  0  0
    2.5956    1.6901    0.1801 H   0  0  0  0  0  0  0  0  0  0  0  0
    2.7693    1.1609   -1.5006 H   0  0  0  0  0  0  0  0  0  0  0  0
    4.0946    0.7557    1.9191 H   0  0  0  0  0  0  0  0  0  0  0  0
    6.3812    0.0570    2.4154 H   0  0  0  0  0  0  0  0  0  0  0  0
    7.8762   -0.7103    0.6106 H   0  0  0  0  0  0  0  0  0  0  0  0
    7.0856   -0.7748   -1.6617 H   0  0  0  0  0  0  0  0  0  0  0  0
    4.7581   -0.0693   -2.2073 H   0  0  0  0  0  0  0  0  0  0  0  0
    0.3421    0.4143   -1.4345 H   0  0  0  0  0  0  0  0  0  0  0  0
   -2.1622    0.8457    0.9496 H   0  0  0  0  0  0  0  0  0  0  0  0
   -1.6096    0.0326   -1.8842 H   0  0  0  0  0  0  0  0  0  0  0  0
   -2.8961    1.0197   -1.4443 H   0  0  0  0  0  0  0  0  0  0  0  0
   -2.3787   -1.9268   -0.3598 H   0  0  0  0  0  0  0  0  0  0  0  0
   -2.6725   -1.4569    1.3460 H   0  0  0  0  0  0  0  0  0  0  0  0
   -4.7489   -1.8190    0.2451 H   0  0  0  0  0  0  0  0  0  0  0  0
   -4.4598   -0.6205   -1.0111 H   0  0  0  0  0  0  0  0  0  0  0  0
   -4.2059    1.1199    0.8288 H   0  0  0  0  0  0  0  0  0  0  0  0
   -4.5005   -0.1627    2.0297 H   0  0  0  0  0  0  0  0  0  0  0  0
   -6.3436    0.9981   -0.1377 H   0  0  0  0  0  0  0  0  0  0  0  0
   -6.4744    1.1937    1.6370 H   0  0  0  0  0  0  0  0  0  0  0  0
   -6.8120   -1.3749    1.5861 H   0  0  0  0  0  0  0  0  0  0  0  0
   -7.5579   -0.9274    0.0689 H   0  0  0  0  0  0  0  0  0  0  0  0
  1  2  1  0
  2  3  1  0
  3  4  1  0
  4  5  2  0
  5  6  1  0
  6  7  2  0
  7  8  1  0
  8  9  2  0
  2 10  1  0
 10 11  1  0
 11 12  2  0
 11 13  1  0
 13 14  1  0
 13 15  1  0
 15 16  1  0
 16 17  1  0
 17 18  1  0
 18 19  1  0
  9  4  1  0
  1 20  1  0
  1 21  1  0
  1 22  1  0
  2 23  1  1
  3 24  1  0
  3 25  1  0
  5 26  1  0
  6 27  1  0
  7 28  1  0
  8 29  1  0
  9 30  1  0
 10 31  1  0
 13 32  1  1
 14 33  1  0
 14 34  1  0
 15 35  1  0
 15 36  1  0
 16 37  1  0
 16 38  1  0
 17 39  1  0
 17 40  1  0
 18 41  1  0
 18 42  1  0
 19 43  1  0
 19 44  1  0
M  END
$$$$
