@<TRIPOS>MOLECULE
*****
 15 14 0 0 0
SMALL
GASTEIGER

@<TRIPOS>ATOM
      1 O           3.1214   -0.2070   -0.9752 O.3     1  UNL1       -0.2952
      2 N           2.2287    0.0844   -0.0169 N.am    1  UNL1       -0.1970
      3 C           0.8423   -0.0920   -0.2168 C.2     1  UNL1        0.2471
      4 O           0.3700   -0.5310   -1.3014 O.2     1  UNL1       -0.2731
      5 C          -0.0497    0.2658    0.9194 C.3     1  UNL1        0.1275
      6 P          -1.7971   -0.0161    0.5080 P.3     1  UNL1        0.3366
      7 O          -2.1908    1.1222   -0.6928 O.3     1  UNL1       -0.3237
      8 O          -2.0730   -1.5838    0.0075 O.3     1  UNL1       -0.3237
      9 O          -2.6027    0.2824    1.7527 O.2     1  UNL1       -0.2583
     10 H           3.1463   -1.1503   -1.2347 H       1  UNL1        0.2414
     11 H           2.6427    0.4520    0.8877 H       1  UNL1        0.1822
     12 H           0.2720   -0.3168    1.8247 H       1  UNL1        0.0483
     13 H           0.0472    1.3574    1.1220 H       1  UNL1        0.0483
     14 H          -1.9803    2.0188   -0.2864 H       1  UNL1        0.2198
     15 H          -1.9771   -1.6861   -0.9523 H       1  UNL1        0.2198
@<TRIPOS>BOND
     1     1     2    1
     2     2     3   am
     3     3     4    2
     4     3     5    1
     5     5     6    1
     6     6     7    1
     7     6     8    1
     8     6     9    2
     9     1    10    1
    10     2    11    1
    11     5    12    1
    12     5    13    1
    13     7    14    1
    14     8    15    1
