@<TRIPOS>MOLECULE
*****
 52 54 0 0 0
SMALL
GASTEIGER

@<TRIPOS>ATOM
      1 N           9.2410    1.7755    0.8809 N.pl3   0  UNK0       -0.3289
      2 C           8.0044    1.2009    0.5446 C.ar    0  UNK0        0.1949
      3 N           7.9505    0.2448   -0.3815 N.ar    0  UNK0       -0.1982
      4 C           6.8125   -0.3406   -0.7425 C.ar    0  UNK0        0.1472
      5 N           6.4864   -1.3160   -1.6377 N.ar    0  UNK0       -0.3453
      6 C           5.1653   -1.5383   -1.6104 C.ar    0  UNK0        0.0075
      7 C           4.6140   -0.6758   -0.6626 C.ar    0  UNK0       -0.0153
      8 C           3.2030   -0.6039   -0.3325 C.3     0  UNK0       -0.0215
      9 C           2.4559    0.5742   -0.9130 C.3     0  UNK0       -0.0236
     10 C           1.0397    0.4018   -0.4192 C.ar    0  UNK0       -0.0470
     11 C           0.6571    0.9138    0.8042 C.ar    0  UNK0       -0.0578
     12 C          -0.6199    0.7851    1.2958 C.ar    0  UNK0       -0.0494
     13 C          -1.5651    0.1260    0.5568 C.ar    0  UNK0        0.0367
     14 C          -2.8999   -0.0090    1.0808 C.2     0  UNK0        0.2447
     15 O          -3.1797    0.3266    2.2824 O.2     0  UNK0       -0.2702
     16 N          -3.9505   -0.5104    0.3019 N.am    1  GLU1       -0.2983
     17 CA         -5.3216   -0.6204    0.9247 C.3     1  GLU1        0.1209
     18 CB         -5.9853    0.6225    0.4194 C.3     1  GLU1       -0.0140
     19 CG         -7.3686    0.8303    0.8738 C.3     1  GLU1        0.0470
     20 CD         -8.3226   -0.1505    0.3953 C.2     1  GLU1        0.3048
     21 OE1        -9.2449   -0.6360    1.1032 O.2     1  GLU1       -0.2510
     22 OE2        -8.2356   -0.5998   -0.9332 O.3     1  GLU1       -0.4806
     23 C          -5.8801   -1.9103    0.5562 C.2     1  GLU1        0.3253
     24 O          -6.9150   -2.4355    1.0322 O.2     1  GLU1       -0.2489
     25 OXT        -5.2606   -2.7255   -0.4334 O.3     1  GLU1       -0.4793
     26 C          -1.2248   -0.3927   -0.6558 C.ar    0  UNK0       -0.0494
     27 C           0.0813   -0.2584   -1.1525 C.ar    0  UNK0       -0.0578
     28 C           5.6352    0.0689   -0.1223 C.ar    0  UNK0        0.0861
     29 C           5.6804    1.0622    0.8413 C.ar    0  UNK0        0.2622
     30 O           4.6205    1.4515    1.4219 O.2     0  UNK0       -0.2670
     31 N           6.8741    1.6016    1.1473 N.ar    0  UNK0       -0.2947
     32 H           9.4127    2.7802    0.6907 H       0  UNK0        0.1451
     33 H           9.9789    1.1878    1.3189 H       0  UNK0        0.1451
     34 H           7.2271   -1.7691   -2.2153 H       0  UNK0        0.1668
     35 H           4.6704   -2.2665   -2.2358 H       0  UNK0        0.0810
     36 H           3.0122   -0.5782    0.7817 H       0  UNK0        0.0317
     37 H           2.6324   -1.5286   -0.6476 H       0  UNK0        0.0317
     38 H           2.3868    0.5416   -2.0197 H       0  UNK0        0.0316
     39 H           2.7932    1.5522   -0.5875 H       0  UNK0        0.0316
     40 H           1.4478    1.4350    1.3611 H       0  UNK0        0.0620
     41 H          -0.8954    1.1915    2.2495 H       0  UNK0        0.0625
     42 H          -3.8643   -0.8144   -0.6817 H       1  GLU1        0.1498
     43 HA         -5.1329   -0.5733    2.0121 H       1  GLU1        0.0614
     44 HB1        -6.0246    0.5861   -0.7194 H       1  GLU1        0.0294
     45 HB2        -5.3647    1.5315    0.6790 H       1  GLU1        0.0294
     46 HG1        -7.7163    1.8510    0.4879 H       1  GLU1        0.0378
     47 HG2        -7.4243    0.9400    2.0111 H       1  GLU1        0.0378
     48 HE2        -9.0678   -0.8564   -1.4640 H       1  GLU1        0.2951
     49 HXT        -5.8630   -3.2390   -1.0872 H       1  GLU1        0.2951
     50 H          -1.9621   -0.9273   -1.2652 H       0  UNK0        0.0625
     51 H           0.3544   -0.6636   -2.1004 H       0  UNK0        0.0620
     52 H           6.8519    2.3569    1.8938 H       0  UNK0        0.1716
@<TRIPOS>BOND
     1     1     2    1
     2     2     3   ar
     3     3     4   ar
     4     4     5   ar
     5     5     6   ar
     6     6     7   ar
     7     7     8    1
     8     8     9    1
     9     9    10    1
    10    10    11   ar
    11    11    12   ar
    12    12    13   ar
    13    13    14    1
    14    14    15    2
    15    14    16   am
    16    16    17    1
    17    17    18    1
    18    18    19    1
    19    19    20    1
    20    20    21    2
    21    20    22    1
    22    17    23    1
    23    23    24    2
    24    23    25    1
    25    13    26   ar
    26    26    27   ar
    27     7    28   ar
    28    28    29   ar
    29    29    30    2
    30    29    31   ar
    31    31     2   ar
    32    28     4   ar
    33    27    10   ar
    34     1    32    1
    35     1    33    1
    36     5    34    1
    37     6    35    1
    38     8    36    1
    39     8    37    1
    40     9    38    1
    41     9    39    1
    42    11    40    1
    43    12    41    1
    44    16    42    1
    45    17    43    1
    46    18    44    1
    47    18    45    1
    48    19    46    1
    49    19    47    1
    50    22    48    1
    51    25    49    1
    52    26    50    1
    53    27    51    1
    54    31    52    1
