
     RDKit          3D

 52 54  0  0  0  0  0  0  0  0999 V2000
    9.2410    1.7755    0.8809 N   0  0  0  0  0  0  0  0  0  0  0  0
    8.0044    1.2009    0.5446 C   0  0  0  0  0  0  0  0  0  0  0  0
    7.9505    0.2448   -0.3815 N   0  0  0  0  0  0  0  0  0  0  0  0
    6.8125   -0.3406   -0.7425 C   0  0  0  0  0  0  0  0  0  0  0  0
    6.4864   -1.3160   -1.6377 N   0  0  0  0  0  0  0  0  0  0  0  0
    5.1653   -1.5383   -1.6104 C   0  0  0  0  0  0  0  0  0  0  0  0
    4.6140   -0.6758   -0.6626 C   0  0  0  0  0  0  0  0  0  0  0  0
    3.2030   -0.6039   -0.3325 C   0  0  0  0  0  0  0  0  0  0  0  0
    2.4559    0.5742   -0.9130 C   0  0  0  0  0  0  0  0  0  0  0  0
    1.0397    0.4018   -0.4192 C   0  0  0  0  0  0  0  0  0  0  0  0
    0.6571    0.9138    0.8042 C   0  0  0  0  0  0  0  0  0  0  0  0
   -0.6199    0.7851    1.2958 C   0  0  0  0  0  0  0  0  0  0  0  0
   -1.5651    0.1260    0.5568 C   0  0  0  0  0  0  0  0  0  0  0  0
   -2.8999   -0.0090    1.0808 C   0  0  0  0  0  0  0  0  0  0  0  0
   -3.1797    0.3266    2.2824 O   0  0  0  0  0  0  0  0  0  0  0  0
   -3.9505   -0.5104    0.3019 N   0  0  0  0  0  0  0  0  0  0  0  0
   -5.3216   -0.6204    0.9247 C   0  0  1  0  0  0  0  0  0  0  0  0
   -5.9853    0.6225    0.4194 C   0  0  0  0  0  0  0  0  0  0  0  0
   -7.3686    0.8303    0.8738 C   0  0  0  0  0  0  0  0  0  0  0  0
   -8.3226   -0.1505    0.3953 C   0  0  0  0  0  0  0  0  0  0  0  0
   -9.2449   -0.6360    1.1032 O   0  0  0  0  0  0  0  0  0  0  0  0
   -8.2356   -0.5998   -0.9332 O   0  0  0  0  0  0  0  0  0  0  0  0
   -5.8801   -1.9103    0.5562 C   0  0  0  0  0  0  0  0  0  0  0  0
   -6.9150   -2.4355    1.0322 O   0  0  0  0  0  0  0  0  0  0  0  0
   -5.2606   -2.7255   -0.4334 O   0  0  0  0  0  0  0  0  0  0  0  0
   -1.2248   -0.3927   -0.6558 C   0  0  0  0  0  0  0  0  0  0  0  0
    0.0813   -0.2584   -1.1525 C   0  0  0  0  0  0  0  0  0  0  0  0
    5.6352    0.0689   -0.1223 C   0  0  0  0  0  0  0  0  0  0  0  0
    5.6804    1.0622    0.8413 C   0  0  0  0  0  0  0  0  0  0  0  0
    4.6205    1.4515    1.4219 O   0  0  0  0  0  0  0  0  0  0  0  0
    6.8741    1.6016    1.1473 N   0  0  0  0  0  0  0  0  0  0  0  0
    9.4127    2.7802    0.6907 H   0  0  0  0  0  0  0  0  0  0  0  0
    9.9789    1.1878    1.3189 H   0  0  0  0  0  0  0  0  0  0  0  0
    7.2271   -1.7691   -2.2153 H   0  0  0  0  0  0  0  0  0  0  0  0
    4.6704   -2.2665   -2.2358 H   0  0  0  0  0  0  0  0  0  0  0  0
    3.0122   -0.5782    0.7817 H   0  0  0  0  0  0  0  0  0  0  0  0
    2.6324   -1.5286   -0.6476 H   0  0  0  0  0  0  0  0  0  0  0  0
    2.3868    0.5416   -2.0197 H   0  0  0  0  0  0  0  0  0  0  0  0
    2.7932    1.5522   -0.5875 H   0  0  0  0  0  0  0  0  0  0  0  0
    1.4478    1.4350    1.3611 H   0  0  0  0  0  0  0  0  0  0  0  0
   -0.8954    1.1915    2.2495 H   0  0  0  0  0  0  0  0  0  0  0  0
   -3.8643   -0.8144   -0.6817 H   0  0  0  0  0  0  0  0  0  0  0  0
   -5.1329   -0.5733    2.0121 H   0  0  0  0  0  0  0  0  0  0  0  0
   -6.0246    0.5861   -0.7194 H   0  0  0  0  0  0  0  0  0  0  0  0
   -5.3647    1.5315    0.6790 H   0  0  0  0  0  0  0  0  0  0  0  0
   -7.7163    1.8510    0.4879 H   0  0  0  0  0  0  0  0  0  0  0  0
   -7.4243    0.9400    2.0111 H   0  0  0  0  0  0  0  0  0  0  0  0
   -9.0678   -0.8564   -1.4640 H   0  0  0  0  0  0  0  0  0  0  0  0
   -5.8630   -3.2390   -1.0872 H   0  0  0  0  0  0  0  0  0  0  0  0
   -1.9621   -0.9273   -1.2652 H   0  0  0  0  0  0  0  0  0  0  0  0
    0.3544   -0.6636   -2.1004 H   0  0  0  0  0  0  0  0  0  0  0  0
    6.8519    2.3569    1.8938 H   0  0  0  0  0  0  0  0  0  0  0  0
  1  2  1  0
  2  3  2  0
  3  4  1  0
  4  5  1  0
  5  6  1  0
  6  7  2  0
  7  8  1  0
  8  9  1  0
  9 10  1  0
 10 11  2  0
 11 12  1  0
 12 13  2  0
 13 14  1  0
 14 15  2  0
 14 16  1  0
 16 17  1  0
 17 18  1  0
 18 19  1  0
 19 20  1  0
 20 21  2  0
 20 22  1  0
 17 23  1  0
 23 24  2  0
 23 25  1  0
 13 26  1  0
 26 27  2  0
  7 28  1  0
 28 29  1  0
 29 30  2  0
 29 31  1  0
 31  2  1  0
 28  4  2  0
 27 10  1  0
  1 32  1  0
  1 33  1  0
  5 34  1  0
  6 35  1  0
  8 36  1  0
  8 37  1  0
  9 38  1  0
  9 39  1  0
 11 40  1  0
 12 41  1  0
 16 42  1  0
 17 43  1  1
 18 44  1  0
 18 45  1  0
 19 46  1  0
 19 47  1  0
 22 48  1  0
 25 49  1  0
 26 50  1  0
 27 51  1  0
 31 52  1  0
M  END
$$$$
