@<TRIPOS>MOLECULE
*****
 42 43 0 0 0
SMALL
GASTEIGER

@<TRIPOS>ATOM
      1 C          -2.8214    2.2569    1.0359 C.3     1  UNL1       -0.0472
      2 C          -2.6097    0.8296    0.6230 C.3     1  UNL1        0.0336
      3 N          -1.3592    0.6074   -0.0449 N.3     1  UNL1       -0.3057
      4 C          -1.0814   -0.8109   -0.0219 C.3     1  UNL1        0.0364
      5 C          -0.0108   -1.2123   -0.9805 C.3     1  UNL1       -0.0348
      6 C           1.3078   -0.5571   -0.7371 C.3     1  UNL1       -0.0476
      7 C           1.8897   -0.8411    0.6108 C.3     1  UNL1       -0.0276
      8 C           3.2031   -0.1108    0.6851 C.ar    1  UNL1       -0.0474
      9 C           4.3846   -0.7097    0.2823 C.ar    1  UNL1       -0.0586
     10 C           5.5887   -0.0389    0.3509 C.ar    1  UNL1       -0.0615
     11 C           5.6435    1.2698    0.8320 C.ar    1  UNL1       -0.0617
     12 C           4.4863    1.8725    1.2326 C.ar    1  UNL1       -0.0615
     13 C           3.2945    1.1803    1.1541 C.ar    1  UNL1       -0.0586
     14 C          -2.3083   -1.6468   -0.2816 C.3     1  UNL1        0.0988
     15 O          -2.8136   -2.2108    0.8948 O.3     1  UNL1       -0.3876
     16 C          -3.4203   -0.8762   -0.9372 C.3     1  UNL1        0.1097
     17 O          -3.2034   -0.6286   -2.2798 O.3     1  UNL1       -0.3866
     18 C          -3.7466    0.4086   -0.2577 C.3     1  UNL1        0.0985
     19 O          -4.0724    1.4120   -1.1977 O.3     1  UNL1       -0.3876
     20 H          -3.3017    2.8725    0.2478 H       1  UNL1        0.0245
     21 H          -3.5120    2.2959    1.9197 H       1  UNL1        0.0245
     22 H          -1.8625    2.7146    1.3689 H       1  UNL1        0.0245
     23 H          -2.6388    0.2056    1.5386 H       1  UNL1        0.0484
     24 H          -1.3446    0.9172   -1.0387 H       1  UNL1        0.1226
     25 H          -0.7392   -1.0551    1.0073 H       1  UNL1        0.0487
     26 H           0.0915   -2.3159   -0.9334 H       1  UNL1        0.0281
     27 H          -0.3232   -0.9682   -2.0190 H       1  UNL1        0.0281
     28 H           1.2112    0.5411   -0.8595 H       1  UNL1        0.0269
     29 H           2.0222   -0.9422   -1.4975 H       1  UNL1        0.0269
     30 H           2.1203   -1.8980    0.7695 H       1  UNL1        0.0313
     31 H           1.2502   -0.4872    1.4439 H       1  UNL1        0.0313
     32 H           4.3778   -1.7128   -0.0918 H       1  UNL1        0.0620
     33 H           6.5312   -0.4902    0.0394 H       1  UNL1        0.0618
     34 H           6.5815    1.8051    0.8902 H       1  UNL1        0.0618
     35 H           4.5313    2.8916    1.6068 H       1  UNL1        0.0618
     36 H           2.4066    1.7045    1.4846 H       1  UNL1        0.0620
     37 H          -2.0611   -2.4969   -0.9512 H       1  UNL1        0.0636
     38 H          -2.8397   -3.1958    0.8676 H       1  UNL1        0.2100
     39 H          -4.3346   -1.5305   -0.8750 H       1  UNL1        0.0646
     40 H          -2.6007   -1.2532   -2.7232 H       1  UNL1        0.2100
     41 H          -4.6565    0.3357    0.4042 H       1  UNL1        0.0635
     42 H          -3.2599    1.8681   -1.5352 H       1  UNL1        0.2100
@<TRIPOS>BOND
     1     1     2    1
     2     2     3    1
     3     3     4    1
     4     4     5    1
     5     5     6    1
     6     6     7    1
     7     7     8    1
     8     8     9   ar
     9     9    10   ar
    10    10    11   ar
    11    11    12   ar
    12    12    13   ar
    13     4    14    1
    14    14    15    1
    15    14    16    1
    16    16    17    1
    17    16    18    1
    18    18    19    1
    19    18     2    1
    20    13     8   ar
    21     1    20    1
    22     1    21    1
    23     1    22    1
    24     2    23    1
    25     3    24    1
    26     4    25    1
    27     5    26    1
    28     5    27    1
    29     6    28    1
    30     6    29    1
    31     7    30    1
    32     7    31    1
    33     9    32    1
    34    10    33    1
    35    11    34    1
    36    12    35    1
    37    13    36    1
    38    14    37    1
    39    15    38    1
    40    16    39    1
    41    17    40    1
    42    18    41    1
    43    19    42    1
