@<TRIPOS>MOLECULE
*****
 76 80 0 0 0
SMALL
GASTEIGER

@<TRIPOS>ATOM
      1 C          -8.6017    3.3502   -3.0778 C.3     1  UNL1       -0.0306
      2 C          -9.1463    2.2313   -2.2117 C.3     1  UNL1        0.0885
      3 O          -8.1360    1.5212   -1.5661 O.3     1  UNL1       -0.4744
      4 C          -8.3688    0.4533   -0.7029 C.ar    1  UNL1        0.2555
      5 N          -9.5758   -0.0519   -0.3626 N.ar    1  UNL1       -0.1317
      6 N          -9.4632   -1.0622    0.4762 N.ar    1  UNL1       -0.2692
      7 C         -10.5253   -1.8580    1.0677 C.3     1  UNL1        0.0304
      8 C          -8.1213   -1.2084    0.6800 C.ar    1  UNL1        0.0503
      9 C          -7.4057   -0.2828   -0.0371 C.ar    1  UNL1        0.1152
     10 N          -6.0163   -0.0500   -0.1393 N.pl3   1  UNL1       -0.2782
     11 C          -5.0212   -0.8055    0.5750 C.ar    1  UNL1        0.2202
     12 N          -5.3980   -1.7992    1.3493 N.ar    1  UNL1       -0.2224
     13 C          -4.5512   -2.5710    2.0869 C.ar    1  UNL1        0.0361
     14 C          -3.1990   -2.2445    1.9799 C.ar    1  UNL1       -0.0062
     15 C          -2.1866   -3.0138    2.7346 C.3     1  UNL1       -0.0362
     16 C          -2.7866   -1.2058    1.1724 C.ar    1  UNL1        0.0809
     17 C          -1.3668   -0.8926    1.0801 C.ar    1  UNL1        0.0258
     18 C          -0.5019   -0.5291    2.0954 C.ar    1  UNL1        0.0120
     19 N           0.7239   -0.2998    1.5965 N.ar    1  UNL1       -0.3586
     20 C           0.7226   -0.4942    0.2820 C.ar    1  UNL1        0.0686
     21 C           1.7582   -0.3769   -0.6143 C.ar    1  UNL1        0.0576
     22 N           3.0652    0.0237   -0.2480 N.am    1  UNL1       -0.2825
     23 C           3.3889    1.3917   -0.3165 C.2     1  UNL1        0.2342
     24 O           2.5063    2.2475   -0.7004 O.2     1  UNL1       -0.2738
     25 C           4.6959    1.9523    0.0270 C.3     1  UNL1        0.0848
     26 C           4.5374    2.9402    1.1694 C.3     1  UNL1       -0.0409
     27 N           5.7401    1.0195    0.2390 N.3     1  UNL1       -0.2893
     28 C           6.1452    0.3481   -0.9511 C.3     1  UNL1        0.0124
     29 C           7.3875   -0.5064   -0.6481 C.3     1  UNL1        0.0117
     30 N           8.5034    0.3777   -0.5300 N.3     1  UNL1       -0.3002
     31 C           9.5846   -0.1873    0.2609 C.3     1  UNL1       -0.0039
     32 C          10.1914   -1.3352   -0.4875 C.3     1  UNL1       -0.0524
     33 C           8.0942    1.6615    0.0014 C.3     1  UNL1        0.0117
     34 C           6.8889    1.5318    0.9236 C.3     1  UNL1        0.0124
     35 C           1.4479   -0.6580   -1.9420 C.ar    1  UNL1       -0.0384
     36 C           0.1703   -1.0299   -2.3182 C.ar    1  UNL1       -0.0593
     37 C          -0.8423   -1.1354   -1.3886 C.ar    1  UNL1       -0.0518
     38 C          -0.5675   -0.8644   -0.0638 C.ar    1  UNL1        0.0107
     39 N          -3.7159   -0.4960    0.4749 N.ar    1  UNL1       -0.2139
     40 H          -8.1405    2.9820   -3.9987 H       1  UNL1        0.0262
     41 H          -7.8200    3.9216   -2.5076 H       1  UNL1        0.0262
     42 H          -9.3800    4.0864   -3.3372 H       1  UNL1        0.0262
     43 H          -9.6916    1.5436   -2.8865 H       1  UNL1        0.0694
     44 H          -9.8997    2.6592   -1.5206 H       1  UNL1        0.0694
     45 H         -11.3802   -1.9965    0.3827 H       1  UNL1        0.0473
     46 H         -10.8392   -1.4468    2.0602 H       1  UNL1        0.0473
     47 H         -10.1164   -2.8655    1.2911 H       1  UNL1        0.0473
     48 H          -7.7179   -1.9640    1.3284 H       1  UNL1        0.0846
     49 H          -5.6945    0.7336   -0.7888 H       1  UNL1        0.1552
     50 H          -4.8943   -3.3754    2.7081 H       1  UNL1        0.0834
     51 H          -1.2367   -3.1320    2.1738 H       1  UNL1        0.0279
     52 H          -2.5506   -4.0623    2.9401 H       1  UNL1        0.0279
     53 H          -1.9884   -2.4690    3.6601 H       1  UNL1        0.0279
     54 H          -0.8137   -0.4530    3.1282 H       1  UNL1        0.0814
     55 H           1.5291   -0.0163    2.1760 H       1  UNL1        0.1654
     56 H           3.7474   -0.6692    0.0674 H       1  UNL1        0.1549
     57 H           5.0017    2.5801   -0.8658 H       1  UNL1        0.0556
     58 H           3.4940    3.3624    1.0927 H       1  UNL1        0.0249
     59 H           5.2517    3.7819    1.0117 H       1  UNL1        0.0249
     60 H           4.5966    2.4786    2.1663 H       1  UNL1        0.0249
     61 H           5.4047   -0.2272   -1.4935 H       1  UNL1        0.0439
     62 H           6.5401    1.1391   -1.6571 H       1  UNL1        0.0439
     63 H           7.4766   -1.2439   -1.4579 H       1  UNL1        0.0439
     64 H           7.1651   -1.0696    0.2804 H       1  UNL1        0.0439
     65 H           9.2970   -0.4033    1.2919 H       1  UNL1        0.0424
     66 H          10.3616    0.6244    0.3191 H       1  UNL1        0.0424
     67 H          10.3855   -2.2134    0.1820 H       1  UNL1        0.0242
     68 H          11.1818   -1.0855   -0.9350 H       1  UNL1        0.0242
     69 H           9.5530   -1.7159   -1.3192 H       1  UNL1        0.0242
     70 H           7.9137    2.3709   -0.8206 H       1  UNL1        0.0439
     71 H           8.9238    2.0167    0.6816 H       1  UNL1        0.0439
     72 H           7.1656    0.7944    1.7113 H       1  UNL1        0.0439
     73 H           6.7609    2.4865    1.4292 H       1  UNL1        0.0439
     74 H           2.2492   -0.5746   -2.6764 H       1  UNL1        0.0637
     75 H          -0.0560   -1.2453   -3.3510 H       1  UNL1        0.0618
     76 H          -1.8337   -1.4247   -1.6836 H       1  UNL1        0.0624
@<TRIPOS>BOND
     1     1     2    1
     2     2     3    1
     3     3     4    1
     4     4     5   ar
     5     5     6   ar
     6     6     7    1
     7     6     8   ar
     8     8     9   ar
     9     9    10    1
    10    10    11    1
    11    11    12   ar
    12    12    13   ar
    13    13    14   ar
    14    14    15    1
    15    14    16   ar
    16    16    17    1
    17    17    18   ar
    18    18    19   ar
    19    19    20   ar
    20    20    21   ar
    21    21    22    1
    22    22    23   am
    23    23    24    2
    24    23    25    1
    25    25    26    1
    26    25    27    1
    27    27    28    1
    28    28    29    1
    29    29    30    1
    30    30    31    1
    31    31    32    1
    32    30    33    1
    33    33    34    1
    34    21    35   ar
    35    35    36   ar
    36    36    37   ar
    37    37    38   ar
    38    16    39   ar
    39     9     4   ar
    40    39    11   ar
    41    38    17   ar
    42    38    20   ar
    43    34    27    1
    44     1    40    1
    45     1    41    1
    46     1    42    1
    47     2    43    1
    48     2    44    1
    49     7    45    1
    50     7    46    1
    51     7    47    1
    52     8    48    1
    53    10    49    1
    54    13    50    1
    55    15    51    1
    56    15    52    1
    57    15    53    1
    58    18    54    1
    59    19    55    1
    60    22    56    1
    61    25    57    1
    62    26    58    1
    63    26    59    1
    64    26    60    1
    65    28    61    1
    66    28    62    1
    67    29    63    1
    68    29    64    1
    69    31    65    1
    70    31    66    1
    71    32    67    1
    72    32    68    1
    73    32    69    1
    74    33    70    1
    75    33    71    1
    76    34    72    1
    77    34    73    1
    78    35    74    1
    79    36    75    1
    80    37    76    1
