@<TRIPOS>MOLECULE
*****
 51 54 0 0 0
SMALL
GASTEIGER

@<TRIPOS>ATOM
      1 O           2.9573   -1.5689    2.3413 O.2     1  UNL1       -0.2524
      2 C           2.7967   -0.6815    1.4359 C.2     1  UNL1        0.3049
      3 N           3.9174   -0.3305    0.6497 N.am    1  UNL1       -0.2855
      4 C           5.1687   -1.0129    0.9232 C.3     1  UNL1        0.0161
      5 C           6.0976   -1.0867   -0.2343 C.3     1  UNL1       -0.0371
      6 C           5.8870   -0.0728   -1.3043 C.3     1  UNL1       -0.0502
      7 C           5.1648    1.1544   -0.7887 C.3     1  UNL1       -0.0371
      8 C           3.7822    0.6734   -0.3666 C.3     1  UNL1        0.0161
      9 N           1.5000   -0.1563    1.3348 N.am    1  UNL1       -0.2804
     10 C           0.8003    0.7975    0.5364 C.3     1  UNL1        0.0440
     11 C          -0.4352   -0.1136    0.7298 C.3     1  UNL1        0.0913
     12 O          -1.6355    0.5371    0.7600 O.3     1  UNL1       -0.3609
     13 C          -2.4646   -0.0071   -0.2145 C.3     1  UNL1        0.1119
     14 C          -3.6160   -0.7419    0.4016 C.ar    1  UNL1       -0.0143
     15 C          -4.9001   -0.5935   -0.0043 C.ar    1  UNL1       -0.0544
     16 C          -5.9421   -1.3002    0.5913 C.ar    1  UNL1       -0.0430
     17 C          -5.6653   -2.1690    1.6150 C.ar    1  UNL1        0.0410
     18 CL         -7.0082   -3.0366    2.3346 Cl      1  UNL1       -0.0835
     19 C          -4.3700   -2.3280    2.0354 C.ar    1  UNL1       -0.0430
     20 C          -3.3522   -1.6288    1.4434 C.ar    1  UNL1       -0.0544
     21 C          -2.9014    0.9340   -1.2464 C.ar    1  UNL1        0.0223
     22 C          -2.8790    2.2867   -0.9433 C.ar    1  UNL1       -0.0515
     23 C          -3.2870    3.2233   -1.8765 C.ar    1  UNL1       -0.0431
     24 C          -3.7063    2.7343   -3.0954 C.ar    1  UNL1        0.0293
     25 N          -3.7220    1.4006   -3.3769 N.ar    1  UNL1       -0.2432
     26 C          -3.3299    0.4931   -2.4819 C.ar    1  UNL1        0.1351
     27 CL         -3.3203   -1.2367   -2.7843 Cl      1  UNL1       -0.0616
     28 C           0.2607   -0.3700    2.0455 C.3     1  UNL1        0.0440
     29 H           5.6090   -0.5445    1.8097 H       1  UNL1        0.0465
     30 H           4.8954   -2.0631    1.2151 H       1  UNL1        0.0465
     31 H           7.1518   -1.0256    0.1608 H       1  UNL1        0.0280
     32 H           6.0651   -2.1077   -0.7171 H       1  UNL1        0.0280
     33 H           5.2348   -0.5168   -2.0871 H       1  UNL1        0.0266
     34 H           6.8708    0.2562   -1.6757 H       1  UNL1        0.0266
     35 H           5.6472    1.5557    0.1193 H       1  UNL1        0.0280
     36 H           5.0594    1.8640   -1.6138 H       1  UNL1        0.0280
     37 H           3.2597    1.5434    0.0760 H       1  UNL1        0.0465
     38 H           3.2054    0.3431   -1.2518 H       1  UNL1        0.0465
     39 H           1.0567    0.9430   -0.5085 H       1  UNL1        0.0491
     40 H           0.6476    1.7844    1.0311 H       1  UNL1        0.0491
     41 H          -0.3449   -0.9366   -0.0279 H       1  UNL1        0.0628
     42 H          -1.9040   -0.8262   -0.7683 H       1  UNL1        0.0698
     43 H          -5.1300    0.0946   -0.8137 H       1  UNL1        0.0622
     44 H          -6.9770   -1.1694    0.2511 H       1  UNL1        0.0632
     45 H          -4.1457   -3.0060    2.8352 H       1  UNL1        0.0632
     46 H          -2.3136   -1.7504    1.7740 H       1  UNL1        0.0622
     47 H          -2.5476    2.6724    0.0212 H       1  UNL1        0.0623
     48 H          -3.2791    4.2931   -1.6619 H       1  UNL1        0.0633
     49 H          -4.0318    3.4675   -3.8427 H       1  UNL1        0.0830
     50 H           0.0549    0.4831    2.7289 H       1  UNL1        0.0491
     51 H           0.1179   -1.3729    2.4859 H       1  UNL1        0.0491
@<TRIPOS>BOND
     1     1     2    2
     2     2     3   am
     3     3     4    1
     4     4     5    1
     5     5     6    1
     6     6     7    1
     7     7     8    1
     8     2     9   am
     9     9    10    1
    10    10    11    1
    11    11    12    1
    12    12    13    1
    13    13    14    1
    14    14    15   ar
    15    15    16   ar
    16    16    17   ar
    17    17    18    1
    18    17    19   ar
    19    19    20   ar
    20    13    21    1
    21    21    22   ar
    22    22    23   ar
    23    23    24   ar
    24    24    25   ar
    25    25    26   ar
    26    26    27    1
    27    11    28    1
    28     8     3    1
    29    28     9    1
    30    20    14   ar
    31    26    21   ar
    32     4    29    1
    33     4    30    1
    34     5    31    1
    35     5    32    1
    36     6    33    1
    37     6    34    1
    38     7    35    1
    39     7    36    1
    40     8    37    1
    41     8    38    1
    42    10    39    1
    43    10    40    1
    44    11    41    1
    45    13    42    1
    46    15    43    1
    47    16    44    1
    48    19    45    1
    49    20    46    1
    50    22    47    1
    51    23    48    1
    52    24    49    1
    53    28    50    1
    54    28    51    1
