
     RDKit          3D

 51 54  0  0  0  0  0  0  0  0999 V2000
    2.9573   -1.5689    2.3413 O   0  0  0  0  0  0  0  0  0  0  0  0
    2.7967   -0.6815    1.4359 C   0  0  0  0  0  0  0  0  0  0  0  0
    3.9174   -0.3305    0.6497 N   0  0  0  0  0  0  0  0  0  0  0  0
    5.1687   -1.0129    0.9232 C   0  0  0  0  0  0  0  0  0  0  0  0
    6.0976   -1.0867   -0.2343 C   0  0  0  0  0  0  0  0  0  0  0  0
    5.8870   -0.0728   -1.3043 C   0  0  0  0  0  0  0  0  0  0  0  0
    5.1648    1.1544   -0.7887 C   0  0  0  0  0  0  0  0  0  0  0  0
    3.7822    0.6734   -0.3666 C   0  0  0  0  0  0  0  0  0  0  0  0
    1.5000   -0.1563    1.3348 N   0  0  0  0  0  0  0  0  0  0  0  0
    0.8003    0.7975    0.5364 C   0  0  0  0  0  0  0  0  0  0  0  0
   -0.4352   -0.1136    0.7298 C   0  0  0  0  0  0  0  0  0  0  0  0
   -1.6355    0.5371    0.7600 O   0  0  0  0  0  0  0  0  0  0  0  0
   -2.4646   -0.0071   -0.2145 C   0  0  1  0  0  0  0  0  0  0  0  0
   -3.6160   -0.7419    0.4016 C   0  0  0  0  0  0  0  0  0  0  0  0
   -4.9001   -0.5935   -0.0043 C   0  0  0  0  0  0  0  0  0  0  0  0
   -5.9421   -1.3002    0.5913 C   0  0  0  0  0  0  0  0  0  0  0  0
   -5.6653   -2.1690    1.6150 C   0  0  0  0  0  0  0  0  0  0  0  0
   -7.0082   -3.0366    2.3346 Cl  0  0  0  0  0  0  0  0  0  0  0  0
   -4.3700   -2.3280    2.0354 C   0  0  0  0  0  0  0  0  0  0  0  0
   -3.3522   -1.6288    1.4434 C   0  0  0  0  0  0  0  0  0  0  0  0
   -2.9014    0.9340   -1.2464 C   0  0  0  0  0  0  0  0  0  0  0  0
   -2.8790    2.2867   -0.9433 C   0  0  0  0  0  0  0  0  0  0  0  0
   -3.2870    3.2233   -1.8765 C   0  0  0  0  0  0  0  0  0  0  0  0
   -3.7063    2.7343   -3.0954 C   0  0  0  0  0  0  0  0  0  0  0  0
   -3.7220    1.4006   -3.3769 N   0  0  0  0  0  0  0  0  0  0  0  0
   -3.3299    0.4931   -2.4819 C   0  0  0  0  0  0  0  0  0  0  0  0
   -3.3203   -1.2367   -2.7843 Cl  0  0  0  0  0  0  0  0  0  0  0  0
    0.2607   -0.3700    2.0455 C   0  0  0  0  0  0  0  0  0  0  0  0
    5.6090   -0.5445    1.8097 H   0  0  0  0  0  0  0  0  0  0  0  0
    4.8954   -2.0631    1.2151 H   0  0  0  0  0  0  0  0  0  0  0  0
    7.1518   -1.0256    0.1608 H   0  0  0  0  0  0  0  0  0  0  0  0
    6.0651   -2.1077   -0.7171 H   0  0  0  0  0  0  0  0  0  0  0  0
    5.2348   -0.5168   -2.0871 H   0  0  0  0  0  0  0  0  0  0  0  0
    6.8708    0.2562   -1.6757 H   0  0  0  0  0  0  0  0  0  0  0  0
    5.6472    1.5557    0.1193 H   0  0  0  0  0  0  0  0  0  0  0  0
    5.0594    1.8640   -1.6138 H   0  0  0  0  0  0  0  0  0  0  0  0
    3.2597    1.5434    0.0760 H   0  0  0  0  0  0  0  0  0  0  0  0
    3.2054    0.3431   -1.2518 H   0  0  0  0  0  0  0  0  0  0  0  0
    1.0567    0.9430   -0.5085 H   0  0  0  0  0  0  0  0  0  0  0  0
    0.6476    1.7844    1.0311 H   0  0  0  0  0  0  0  0  0  0  0  0
   -0.3449   -0.9366   -0.0279 H   0  0  0  0  0  0  0  0  0  0  0  0
   -1.9040   -0.8262   -0.7683 H   0  0  0  0  0  0  0  0  0  0  0  0
   -5.1300    0.0946   -0.8137 H   0  0  0  0  0  0  0  0  0  0  0  0
   -6.9770   -1.1694    0.2511 H   0  0  0  0  0  0  0  0  0  0  0  0
   -4.1457   -3.0060    2.8352 H   0  0  0  0  0  0  0  0  0  0  0  0
   -2.3136   -1.7504    1.7740 H   0  0  0  0  0  0  0  0  0  0  0  0
   -2.5476    2.6724    0.0212 H   0  0  0  0  0  0  0  0  0  0  0  0
   -3.2791    4.2931   -1.6619 H   0  0  0  0  0  0  0  0  0  0  0  0
   -4.0318    3.4675   -3.8427 H   0  0  0  0  0  0  0  0  0  0  0  0
    0.0549    0.4831    2.7289 H   0  0  0  0  0  0  0  0  0  0  0  0
    0.1179   -1.3729    2.4859 H   0  0  0  0  0  0  0  0  0  0  0  0
  1  2  2  0
  2  3  1  0
  3  4  1  0
  4  5  1  0
  5  6  1  0
  6  7  1  0
  7  8  1  0
  2  9  1  0
  9 10  1  0
 10 11  1  0
 11 12  1  0
 12 13  1  0
 13 14  1  0
 14 15  2  0
 15 16  1  0
 16 17  2  0
 17 18  1  0
 17 19  1  0
 19 20  2  0
 13 21  1  0
 21 22  2  0
 22 23  1  0
 23 24  2  0
 24 25  1  0
 25 26  2  0
 26 27  1  0
 11 28  1  0
  8  3  1  0
 28  9  1  0
 20 14  1  0
 26 21  1  0
  4 29  1  0
  4 30  1  0
  5 31  1  0
  5 32  1  0
  6 33  1  0
  6 34  1  0
  7 35  1  0
  7 36  1  0
  8 37  1  0
  8 38  1  0
 10 39  1  0
 10 40  1  0
 11 41  1  0
 13 42  1  6
 15 43  1  0
 16 44  1  0
 19 45  1  0
 20 46  1  0
 22 47  1  0
 23 48  1  0
 24 49  1  0
 28 50  1  0
 28 51  1  0
M  END
$$$$
