@<TRIPOS>MOLECULE
*****
 50 53 0 0 0
SMALL
GASTEIGER

@<TRIPOS>ATOM
      1 C          -4.1689   -0.8745   -1.2581 C.3     1  UNL1       -0.0389
      2 C          -3.4155    0.3182   -0.8123 C.ar    1  UNL1       -0.0340
      3 C          -2.0639    0.3624   -0.9464 C.ar    1  UNL1       -0.0242
      4 C          -1.1885   -0.7564   -1.3586 C.3     1  UNL1        0.0516
      5 N          -0.6768   -1.5706   -0.2734 N.ar    1  UNL1       -0.3094
      6 C          -1.1446   -2.6482    0.3260 C.ar    1  UNL1        0.0358
      7 C          -2.3903   -3.4020    0.0383 C.3     1  UNL1       -0.0227
      8 C          -0.2442   -3.0624    1.3310 C.ar    1  UNL1        0.0352
      9 N           0.7733   -2.1997    1.3075 N.ar    1  UNL1       -0.2519
     10 C           1.8991   -2.1666    2.0549 C.ar    1  UNL1        0.2612
     11 O           2.1452   -2.9960    2.9536 O.2     1  UNL1       -0.2671
     12 C           2.7983   -1.1385    1.7733 C.ar    1  UNL1        0.0434
     13 C           2.5857   -0.1957    0.7980 C.ar    1  UNL1        0.1304
     14 N           3.4878    0.8529    0.4972 N.pl3   1  UNL1       -0.3106
     15 C           4.6506    1.1182    1.2809 C.3     1  UNL1        0.0370
     16 C           5.8644    1.0664    0.3575 C.3     1  UNL1        0.0634
     17 O           5.4620    0.9303   -0.9465 O.3     1  UNL1       -0.3767
     18 C           4.5597    1.9280   -1.3463 C.3     1  UNL1        0.0634
     19 C           3.2324    1.6886   -0.6541 C.3     1  UNL1        0.0370
     20 N           1.4173   -0.3123    0.0968 N.ar    1  UNL1       -0.1980
     21 C           0.5402   -1.2938    0.3541 C.ar    1  UNL1        0.2201
     22 C          -1.4319    1.5453   -0.5772 C.ar    1  UNL1       -0.0566
     23 C          -2.1525    2.6061   -0.0984 C.ar    1  UNL1       -0.0609
     24 C          -3.5361    2.5252    0.0296 C.ar    1  UNL1       -0.0498
     25 C          -4.1920    1.3743   -0.3288 C.ar    1  UNL1        0.0580
     26 C          -5.6525    1.2831   -0.2473 C.3     1  UNL1        0.4177
     27 F          -6.1542    2.4386    0.3533 F       1  UNL1       -0.1659
     28 F          -6.1704    0.1892    0.3412 F       1  UNL1       -0.1659
     29 F          -6.1418    1.3746   -1.5700 F       1  UNL1       -0.1659
     30 H          -4.5380   -1.4340   -0.3870 H       1  UNL1        0.0278
     31 H          -3.5751   -1.5699   -1.8875 H       1  UNL1        0.0278
     32 H          -5.0756   -0.5330   -1.8278 H       1  UNL1        0.0278
     33 H          -1.6160   -1.3819   -2.1734 H       1  UNL1        0.0542
     34 H          -0.2990   -0.2673   -1.8729 H       1  UNL1        0.0542
     35 H          -2.2194   -4.4787    0.3971 H       1  UNL1        0.0292
     36 H          -3.2560   -3.0778    0.6174 H       1  UNL1        0.0292
     37 H          -2.6549   -3.4570   -1.0303 H       1  UNL1        0.0292
     38 H          -0.3606   -3.9092    1.9872 H       1  UNL1        0.0832
     39 H           3.7324   -1.0930    2.3629 H       1  UNL1        0.0706
     40 H           4.5642    2.1783    1.6272 H       1  UNL1        0.0487
     41 H           4.7934    0.5114    2.1742 H       1  UNL1        0.0487
     42 H           6.5126    1.9711    0.5249 H       1  UNL1        0.0575
     43 H           6.5169    0.1990    0.6064 H       1  UNL1        0.0575
     44 H           4.9922    2.9347   -1.0721 H       1  UNL1        0.0575
     45 H           4.4604    1.8955   -2.4446 H       1  UNL1        0.0575
     46 H           2.8835    2.7093   -0.3119 H       1  UNL1        0.0487
     47 H           2.4973    1.2544   -1.3618 H       1  UNL1        0.0487
     48 H          -0.3489    1.6454   -0.6705 H       1  UNL1        0.0621
     49 H          -1.6457    3.5237    0.1787 H       1  UNL1        0.0618
     50 H          -4.0557    3.3945    0.4152 H       1  UNL1        0.0623
@<TRIPOS>BOND
     1     1     2    1
     2     2     3   ar
     3     3     4    1
     4     4     5    1
     5     5     6   ar
     6     6     7    1
     7     6     8   ar
     8     8     9   ar
     9     9    10   ar
    10    10    11    2
    11    10    12   ar
    12    12    13   ar
    13    13    14    1
    14    14    15    1
    15    15    16    1
    16    16    17    1
    17    17    18    1
    18    18    19    1
    19    13    20   ar
    20    20    21   ar
    21     3    22   ar
    22    22    23   ar
    23    23    24   ar
    24    24    25   ar
    25    25    26    1
    26    26    27    1
    27    26    28    1
    28    26    29    1
    29    25     2   ar
    30    21     5   ar
    31    21     9   ar
    32    19    14    1
    33     1    30    1
    34     1    31    1
    35     1    32    1
    36     4    33    1
    37     4    34    1
    38     7    35    1
    39     7    36    1
    40     7    37    1
    41     8    38    1
    42    12    39    1
    43    15    40    1
    44    15    41    1
    45    16    42    1
    46    16    43    1
    47    18    44    1
    48    18    45    1
    49    19    46    1
    50    19    47    1
    51    22    48    1
    52    23    49    1
    53    24    50    1
