@<TRIPOS>MOLECULE
*****
 65 68 0 0 0
SMALL
GASTEIGER

@<TRIPOS>ATOM
      1 F          -7.7310    2.4762   -4.4196 F       1  UNL1       -0.2055
      2 C          -6.7958    1.9876   -3.5703 C.ar    1  UNL1        0.1234
      3 C          -6.7275    2.5555   -2.2947 C.ar    1  UNL1       -0.0261
      4 C          -5.7701    2.0449   -1.4427 C.ar    1  UNL1       -0.0531
      5 C          -4.8924    1.0321   -1.7553 C.ar    1  UNL1       -0.0143
      6 C          -4.9790    0.4791   -3.0381 C.ar    1  UNL1       -0.0531
      7 C          -5.9277    0.9634   -3.9248 C.ar    1  UNL1       -0.0261
      8 C          -3.8858    0.5095   -0.7994 C.3     1  UNL1        0.1087
      9 O          -3.2624    1.4663   -0.0536 O.3     1  UNL1       -0.3661
     10 C          -1.9003    1.5139   -0.0765 C.3     1  UNL1        0.0616
     11 C          -1.2671    0.2228    0.4476 C.3     1  UNL1        0.0225
     12 N           0.1916    0.4390    0.3826 N.3     1  UNL1       -0.2977
     13 C           0.5036    1.4400    1.3427 C.3     1  UNL1        0.0118
     14 C           1.7874    1.3621    2.0524 C.3     1  UNL1        0.0117
     15 N           2.7232    0.3645    1.5200 N.3     1  UNL1       -0.2999
     16 C           3.2362    0.7819    0.2461 C.3     1  UNL1       -0.0007
     17 C           4.3577   -0.1105   -0.1928 C.3     1  UNL1       -0.0362
     18 C           5.4686   -0.0169    0.8650 C.3     1  UNL1       -0.0265
     19 C           6.6164   -0.8526    0.5016 C.ar    1  UNL1       -0.0473
     20 C           7.5146   -0.1306   -0.2916 C.ar    1  UNL1       -0.0586
     21 C           8.6978   -0.6873   -0.7752 C.ar    1  UNL1       -0.0615
     22 C           9.0029   -1.9975   -0.4656 C.ar    1  UNL1       -0.0617
     23 C           8.1160   -2.7381    0.3282 C.ar    1  UNL1       -0.0615
     24 C           6.9495   -2.1459    0.7885 C.ar    1  UNL1       -0.0586
     25 C           2.0035   -0.9028    1.4280 C.3     1  UNL1        0.0117
     26 C           0.9345   -0.7555    0.4113 C.3     1  UNL1        0.0118
     27 C          -4.6275   -0.4020    0.1504 C.ar    1  UNL1       -0.0143
     28 C          -4.5371   -1.7744   -0.1175 C.ar    1  UNL1       -0.0531
     29 C          -5.1593   -2.7151    0.6762 C.ar    1  UNL1       -0.0261
     30 C          -5.8816   -2.2551    1.7541 C.ar    1  UNL1        0.1234
     31 F          -6.4918   -3.1907    2.5260 F       1  UNL1       -0.2055
     32 C          -5.9918   -0.9056    2.0476 C.ar    1  UNL1       -0.0261
     33 C          -5.3608    0.0122    1.2390 C.ar    1  UNL1       -0.0531
     34 H          -7.3952    3.3702   -1.9766 H       1  UNL1        0.0646
     35 H          -5.7444    2.5108   -0.4612 H       1  UNL1        0.0622
     36 H          -4.3192   -0.3350   -3.3689 H       1  UNL1        0.0622
     37 H          -6.0586    0.5777   -4.9466 H       1  UNL1        0.0646
     38 H          -3.1416   -0.0982   -1.3703 H       1  UNL1        0.0697
     39 H          -1.4724    1.7604   -1.0750 H       1  UNL1        0.0573
     40 H          -1.5918    2.3084    0.6525 H       1  UNL1        0.0573
     41 H          -1.5936   -0.6321   -0.1643 H       1  UNL1        0.0449
     42 H          -1.6147    0.0821    1.4749 H       1  UNL1        0.0449
     43 H          -0.3477    1.5324    2.0613 H       1  UNL1        0.0439
     44 H           0.4826    2.4190    0.7934 H       1  UNL1        0.0439
     45 H           2.3555    2.3121    2.1067 H       1  UNL1        0.0439
     46 H           1.6209    1.0340    3.1046 H       1  UNL1        0.0439
     47 H           3.6264    1.8297    0.3490 H       1  UNL1        0.0427
     48 H           2.4590    0.8472   -0.5473 H       1  UNL1        0.0427
     49 H           4.8075    0.2292   -1.1630 H       1  UNL1        0.0281
     50 H           4.0351   -1.1431   -0.2246 H       1  UNL1        0.0281
     51 H           5.0179   -0.4524    1.8015 H       1  UNL1        0.0314
     52 H           5.7173    1.0397    1.0724 H       1  UNL1        0.0314
     53 H           7.4129    0.9056   -0.6243 H       1  UNL1        0.0620
     54 H           9.4115   -0.1697   -1.3886 H       1  UNL1        0.0618
     55 H           9.9146   -2.4935   -0.8164 H       1  UNL1        0.0618
     56 H           8.3041   -3.7523    0.5967 H       1  UNL1        0.0618
     57 H           6.1956   -2.6257    1.4097 H       1  UNL1        0.0620
     58 H           2.7209   -1.6725    1.1171 H       1  UNL1        0.0439
     59 H           1.5894   -1.1361    2.4361 H       1  UNL1        0.0439
     60 H           1.4046   -0.9013   -0.6084 H       1  UNL1        0.0439
     61 H           0.2788   -1.6733    0.5045 H       1  UNL1        0.0439
     62 H          -3.9515   -2.1061   -0.9849 H       1  UNL1        0.0622
     63 H          -5.0678   -3.7507    0.4414 H       1  UNL1        0.0646
     64 H          -6.5596   -0.5777    2.8891 H       1  UNL1        0.0646
     65 H          -5.4112    1.0705    1.4198 H       1  UNL1        0.0622
@<TRIPOS>BOND
     1     1     2    1
     2     2     3   ar
     3     3     4   ar
     4     4     5   ar
     5     5     6   ar
     6     6     7   ar
     7     5     8    1
     8     8     9    1
     9     9    10    1
    10    10    11    1
    11    11    12    1
    12    12    13    1
    13    13    14    1
    14    14    15    1
    15    15    16    1
    16    16    17    1
    17    17    18    1
    18    18    19    1
    19    19    20   ar
    20    20    21   ar
    21    21    22   ar
    22    22    23   ar
    23    23    24   ar
    24    15    25    1
    25    25    26    1
    26     8    27    1
    27    27    28   ar
    28    28    29   ar
    29    29    30   ar
    30    30    31    1
    31    30    32   ar
    32    32    33   ar
    33     7     2   ar
    34    26    12    1
    35    33    27   ar
    36    24    19   ar
    37     3    34    1
    38     4    35    1
    39     6    36    1
    40     7    37    1
    41     8    38    1
    42    10    39    1
    43    10    40    1
    44    11    41    1
    45    11    42    1
    46    13    43    1
    47    13    44    1
    48    14    45    1
    49    14    46    1
    50    16    47    1
    51    16    48    1
    52    17    49    1
    53    17    50    1
    54    18    51    1
    55    18    52    1
    56    20    53    1
    57    21    54    1
    58    22    55    1
    59    23    56    1
    60    24    57    1
    61    25    58    1
    62    25    59    1
    63    26    60    1
    64    26    61    1
    65    28    62    1
    66    29    63    1
    67    32    64    1
    68    33    65    1
