
     RDKit          3D

 65 68  0  0  0  0  0  0  0  0999 V2000
   -7.7310    2.4762   -4.4196 F   0  0  0  0  0  0  0  0  0  0  0  0
   -6.7958    1.9876   -3.5703 C   0  0  0  0  0  0  0  0  0  0  0  0
   -6.7275    2.5555   -2.2947 C   0  0  0  0  0  0  0  0  0  0  0  0
   -5.7701    2.0449   -1.4427 C   0  0  0  0  0  0  0  0  0  0  0  0
   -4.8924    1.0321   -1.7553 C   0  0  0  0  0  0  0  0  0  0  0  0
   -4.9790    0.4791   -3.0381 C   0  0  0  0  0  0  0  0  0  0  0  0
   -5.9277    0.9634   -3.9248 C   0  0  0  0  0  0  0  0  0  0  0  0
   -3.8858    0.5095   -0.7994 C   0  0  0  0  0  0  0  0  0  0  0  0
   -3.2624    1.4663   -0.0536 O   0  0  0  0  0  0  0  0  0  0  0  0
   -1.9003    1.5139   -0.0765 C   0  0  0  0  0  0  0  0  0  0  0  0
   -1.2671    0.2228    0.4476 C   0  0  0  0  0  0  0  0  0  0  0  0
    0.1916    0.4390    0.3826 N   0  0  0  0  0  0  0  0  0  0  0  0
    0.5036    1.4400    1.3427 C   0  0  0  0  0  0  0  0  0  0  0  0
    1.7874    1.3621    2.0524 C   0  0  0  0  0  0  0  0  0  0  0  0
    2.7232    0.3645    1.5200 N   0  0  0  0  0  0  0  0  0  0  0  0
    3.2362    0.7819    0.2461 C   0  0  0  0  0  0  0  0  0  0  0  0
    4.3577   -0.1105   -0.1928 C   0  0  0  0  0  0  0  0  0  0  0  0
    5.4686   -0.0169    0.8650 C   0  0  0  0  0  0  0  0  0  0  0  0
    6.6164   -0.8526    0.5016 C   0  0  0  0  0  0  0  0  0  0  0  0
    7.5146   -0.1306   -0.2916 C   0  0  0  0  0  0  0  0  0  0  0  0
    8.6978   -0.6873   -0.7752 C   0  0  0  0  0  0  0  0  0  0  0  0
    9.0029   -1.9975   -0.4656 C   0  0  0  0  0  0  0  0  0  0  0  0
    8.1160   -2.7381    0.3282 C   0  0  0  0  0  0  0  0  0  0  0  0
    6.9495   -2.1459    0.7885 C   0  0  0  0  0  0  0  0  0  0  0  0
    2.0035   -0.9028    1.4280 C   0  0  0  0  0  0  0  0  0  0  0  0
    0.9345   -0.7555    0.4113 C   0  0  0  0  0  0  0  0  0  0  0  0
   -4.6275   -0.4020    0.1504 C   0  0  0  0  0  0  0  0  0  0  0  0
   -4.5371   -1.7744   -0.1175 C   0  0  0  0  0  0  0  0  0  0  0  0
   -5.1593   -2.7151    0.6762 C   0  0  0  0  0  0  0  0  0  0  0  0
   -5.8816   -2.2551    1.7541 C   0  0  0  0  0  0  0  0  0  0  0  0
   -6.4918   -3.1907    2.5260 F   0  0  0  0  0  0  0  0  0  0  0  0
   -5.9918   -0.9056    2.0476 C   0  0  0  0  0  0  0  0  0  0  0  0
   -5.3608    0.0122    1.2390 C   0  0  0  0  0  0  0  0  0  0  0  0
   -7.3952    3.3702   -1.9766 H   0  0  0  0  0  0  0  0  0  0  0  0
   -5.7444    2.5108   -0.4612 H   0  0  0  0  0  0  0  0  0  0  0  0
   -4.3192   -0.3350   -3.3689 H   0  0  0  0  0  0  0  0  0  0  0  0
   -6.0586    0.5777   -4.9466 H   0  0  0  0  0  0  0  0  0  0  0  0
   -3.1416   -0.0982   -1.3703 H   0  0  0  0  0  0  0  0  0  0  0  0
   -1.4724    1.7604   -1.0750 H   0  0  0  0  0  0  0  0  0  0  0  0
   -1.5918    2.3084    0.6525 H   0  0  0  0  0  0  0  0  0  0  0  0
   -1.5936   -0.6321   -0.1643 H   0  0  0  0  0  0  0  0  0  0  0  0
   -1.6147    0.0821    1.4749 H   0  0  0  0  0  0  0  0  0  0  0  0
   -0.3477    1.5324    2.0613 H   0  0  0  0  0  0  0  0  0  0  0  0
    0.4826    2.4190    0.7934 H   0  0  0  0  0  0  0  0  0  0  0  0
    2.3555    2.3121    2.1067 H   0  0  0  0  0  0  0  0  0  0  0  0
    1.6209    1.0340    3.1046 H   0  0  0  0  0  0  0  0  0  0  0  0
    3.6264    1.8297    0.3490 H   0  0  0  0  0  0  0  0  0  0  0  0
    2.4590    0.8472   -0.5473 H   0  0  0  0  0  0  0  0  0  0  0  0
    4.8075    0.2292   -1.1630 H   0  0  0  0  0  0  0  0  0  0  0  0
    4.0351   -1.1431   -0.2246 H   0  0  0  0  0  0  0  0  0  0  0  0
    5.0179   -0.4524    1.8015 H   0  0  0  0  0  0  0  0  0  0  0  0
    5.7173    1.0397    1.0724 H   0  0  0  0  0  0  0  0  0  0  0  0
    7.4129    0.9056   -0.6243 H   0  0  0  0  0  0  0  0  0  0  0  0
    9.4115   -0.1697   -1.3886 H   0  0  0  0  0  0  0  0  0  0  0  0
    9.9146   -2.4935   -0.8164 H   0  0  0  0  0  0  0  0  0  0  0  0
    8.3041   -3.7523    0.5967 H   0  0  0  0  0  0  0  0  0  0  0  0
    6.1956   -2.6257    1.4097 H   0  0  0  0  0  0  0  0  0  0  0  0
    2.7209   -1.6725    1.1171 H   0  0  0  0  0  0  0  0  0  0  0  0
    1.5894   -1.1361    2.4361 H   0  0  0  0  0  0  0  0  0  0  0  0
    1.4046   -0.9013   -0.6084 H   0  0  0  0  0  0  0  0  0  0  0  0
    0.2788   -1.6733    0.5045 H   0  0  0  0  0  0  0  0  0  0  0  0
   -3.9515   -2.1061   -0.9849 H   0  0  0  0  0  0  0  0  0  0  0  0
   -5.0678   -3.7507    0.4414 H   0  0  0  0  0  0  0  0  0  0  0  0
   -6.5596   -0.5777    2.8891 H   0  0  0  0  0  0  0  0  0  0  0  0
   -5.4112    1.0705    1.4198 H   0  0  0  0  0  0  0  0  0  0  0  0
  1  2  1  0
  2  3  2  0
  3  4  1  0
  4  5  2  0
  5  6  1  0
  6  7  2  0
  5  8  1  0
  8  9  1  0
  9 10  1  0
 10 11  1  0
 11 12  1  0
 12 13  1  0
 13 14  1  0
 14 15  1  0
 15 16  1  0
 16 17  1  0
 17 18  1  0
 18 19  1  0
 19 20  2  0
 20 21  1  0
 21 22  2  0
 22 23  1  0
 23 24  2  0
 15 25  1  0
 25 26  1  0
  8 27  1  0
 27 28  2  0
 28 29  1  0
 29 30  2  0
 30 31  1  0
 30 32  1  0
 32 33  2  0
  7  2  1  0
 26 12  1  0
 33 27  1  0
 24 19  1  0
  3 34  1  0
  4 35  1  0
  6 36  1  0
  7 37  1  0
  8 38  1  0
 10 39  1  0
 10 40  1  0
 11 41  1  0
 11 42  1  0
 13 43  1  0
 13 44  1  0
 14 45  1  0
 14 46  1  0
 16 47  1  0
 16 48  1  0
 17 49  1  0
 17 50  1  0
 18 51  1  0
 18 52  1  0
 20 53  1  0
 21 54  1  0
 22 55  1  0
 23 56  1  0
 24 57  1  0
 25 58  1  0
 25 59  1  0
 26 60  1  0
 26 61  1  0
 28 62  1  0
 29 63  1  0
 32 64  1  0
 33 65  1  0
M  END
$$$$
