
     RDKit          3D

 64 69  0  0  0  0  0  0  0  0999 V2000
   -4.4222    0.9849    0.5275 O   0  0  0  0  0  0  0  0  0  0  0  0
   -3.2201    1.1017    0.8879 C   0  0  0  0  0  0  0  0  0  0  0  0
   -2.5393    2.2333    1.1435 N   0  0  0  0  0  0  0  0  0  0  0  0
   -3.0374    3.5945    1.0633 C   0  0  0  0  0  0  0  0  0  0  0  0
   -2.8199    4.1299   -0.2994 C   0  0  0  0  0  0  0  0  0  0  0  0
   -3.7649    3.9894   -1.2822 C   0  0  0  0  0  0  0  0  0  0  0  0
   -3.5121    4.5034   -2.5299 C   0  0  0  0  0  0  0  0  0  0  0  0
   -2.3616    5.1282   -2.7713 N   0  0  0  0  0  0  0  0  0  0  0  0
   -1.3971    5.2934   -1.8371 C   0  0  0  0  0  0  0  0  0  0  0  0
   -1.6455    4.7787   -0.5806 C   0  0  0  0  0  0  0  0  0  0  0  0
   -1.3068    1.9016    1.4911 N   0  0  0  0  0  0  0  0  0  0  0  0
   -1.1556    0.5638    1.4710 C   0  0  0  0  0  0  0  0  0  0  0  0
    0.0344   -0.2062    1.7851 C   0  0  0  0  0  0  0  0  0  0  0  0
    0.1074   -0.9705    2.9274 C   0  0  0  0  0  0  0  0  0  0  0  0
    1.2611   -1.7115    3.2179 C   0  0  0  0  0  0  0  0  0  0  0  0
    2.2865   -1.6542    2.3551 N   0  0  0  0  0  0  0  0  0  0  0  0
    2.2574   -0.9137    1.2178 C   0  0  0  0  0  0  0  0  0  0  0  0
    3.4185   -0.9763    0.4068 N   0  0  0  0  0  0  0  0  0  0  0  0
    3.5760   -0.1978   -0.8331 C   0  0  0  0  0  0  0  0  0  0  0  0
    4.7918   -0.6331   -1.5662 C   0  0  0  0  0  0  0  0  0  0  0  0
    6.0315    0.1570   -1.3414 C   0  0  0  0  0  0  0  0  0  0  0  0
    5.6808    1.5936   -1.7588 C   0  0  0  0  0  0  0  0  0  0  0  0
    4.7258    2.0670   -0.6883 C   0  0  0  0  0  0  0  0  0  0  0  0
    3.4839    1.2733   -0.5536 C   0  0  0  0  0  0  0  0  0  0  0  0
    1.1287   -0.1929    0.9392 C   0  0  0  0  0  0  0  0  0  0  0  0
   -2.3739    0.0796    1.0882 N   0  0  0  0  0  0  0  0  0  0  0  0
   -2.6178   -1.3065    0.9489 C   0  0  0  0  0  0  0  0  0  0  0  0
   -3.3903   -1.9831    1.8892 C   0  0  0  0  0  0  0  0  0  0  0  0
   -3.6334   -3.3373    1.7605 C   0  0  0  0  0  0  0  0  0  0  0  0
   -3.1138   -4.0650    0.6881 C   0  0  0  0  0  0  0  0  0  0  0  0
   -3.3652   -5.4189    0.5728 C   0  0  0  0  0  0  0  0  0  0  0  0
   -2.8667   -6.1614   -0.4725 C   0  0  0  0  0  0  0  0  0  0  0  0
   -2.0917   -5.4944   -1.4202 C   0  0  0  0  0  0  0  0  0  0  0  0
   -1.8456   -4.1354   -1.2948 C   0  0  0  0  0  0  0  0  0  0  0  0
   -2.3573   -3.4067   -0.2343 C   0  0  0  0  0  0  0  0  0  0  0  0
   -2.1212   -2.0631   -0.0986 C   0  0  0  0  0  0  0  0  0  0  0  0
   -2.4618    4.2145    1.7667 H   0  0  0  0  0  0  0  0  0  0  0  0
   -4.1260    3.5918    1.3073 H   0  0  0  0  0  0  0  0  0  0  0  0
   -4.7150    3.4704   -1.0706 H   0  0  0  0  0  0  0  0  0  0  0  0
   -4.2724    4.3823   -3.2969 H   0  0  0  0  0  0  0  0  0  0  0  0
   -0.4675    5.8019   -2.0459 H   0  0  0  0  0  0  0  0  0  0  0  0
   -0.8617    4.9133    0.1814 H   0  0  0  0  0  0  0  0  0  0  0  0
   -0.7327   -0.9847    3.5831 H   0  0  0  0  0  0  0  0  0  0  0  0
    1.3109   -2.3186    4.1317 H   0  0  0  0  0  0  0  0  0  0  0  0
    4.2317   -1.5914    0.6592 H   0  0  0  0  0  0  0  0  0  0  0  0
    2.6875   -0.4706   -1.4488 H   0  0  0  0  0  0  0  0  0  0  0  0
    5.0134   -1.6930   -1.2459 H   0  0  0  0  0  0  0  0  0  0  0  0
    4.6293   -0.7060   -2.6630 H   0  0  0  0  0  0  0  0  0  0  0  0
    6.3213    0.2217   -0.2691 H   0  0  0  0  0  0  0  0  0  0  0  0
    6.8309   -0.2543   -1.9571 H   0  0  0  0  0  0  0  0  0  0  0  0
    6.5690    2.2366   -1.7508 H   0  0  0  0  0  0  0  0  0  0  0  0
    5.1332    1.6063   -2.7259 H   0  0  0  0  0  0  0  0  0  0  0  0
    5.2588    2.2143    0.2803 H   0  0  0  0  0  0  0  0  0  0  0  0
    4.4458    3.1191   -0.9957 H   0  0  0  0  0  0  0  0  0  0  0  0
    3.1653    1.3826    0.5306 H   0  0  0  0  0  0  0  0  0  0  0  0
    2.6673    1.7577   -1.1374 H   0  0  0  0  0  0  0  0  0  0  0  0
    1.0999    0.3882    0.0313 H   0  0  0  0  0  0  0  0  0  0  0  0
   -3.8285   -1.4904    2.7479 H   0  0  0  0  0  0  0  0  0  0  0  0
   -4.2256   -3.8840    2.4717 H   0  0  0  0  0  0  0  0  0  0  0  0
   -3.9778   -5.9201    1.3317 H   0  0  0  0  0  0  0  0  0  0  0  0
   -3.0636   -7.2305   -0.5654 H   0  0  0  0  0  0  0  0  0  0  0  0
   -1.7017   -6.0785   -2.2383 H   0  0  0  0  0  0  0  0  0  0  0  0
   -1.2404   -3.6514   -2.0489 H   0  0  0  0  0  0  0  0  0  0  0  0
   -1.5141   -1.5724   -0.8523 H   0  0  0  0  0  0  0  0  0  0  0  0
  1  2  2  0
  2  3  1  0
  3  4  1  0
  4  5  1  0
  5  6  2  0
  6  7  1  0
  7  8  2  0
  8  9  1  0
  9 10  2  0
  3 11  1  0
 11 12  2  0
 12 13  1  0
 13 14  2  0
 14 15  1  0
 15 16  2  0
 16 17  1  0
 17 18  1  0
 18 19  1  0
 19 20  1  0
 20 21  1  0
 21 22  1  0
 22 23  1  0
 23 24  1  0
 17 25  2  0
 12 26  1  0
 26 27  1  0
 27 28  2  0
 28 29  1  0
 29 30  2  0
 30 31  1  0
 31 32  2  0
 32 33  1  0
 33 34  2  0
 34 35  1  0
 35 36  2  0
 26  2  1  0
 36 27  1  0
 10  5  1  0
 25 13  1  0
 35 30  1  0
 24 19  1  0
  4 37  1  0
  4 38  1  0
  6 39  1  0
  7 40  1  0
  9 41  1  0
 10 42  1  0
 14 43  1  0
 15 44  1  0
 18 45  1  0
 19 46  1  0
 20 47  1  0
 20 48  1  0
 21 49  1  0
 21 50  1  0
 22 51  1  0
 22 52  1  0
 23 53  1  0
 23 54  1  0
 24 55  1  0
 24 56  1  0
 25 57  1  0
 28 58  1  0
 29 59  1  0
 31 60  1  0
 32 61  1  0
 33 62  1  0
 34 63  1  0
 36 64  1  0
M  END
$$$$
