@<TRIPOS>MOLECULE
*****
 64 69 0 0 0
SMALL
GASTEIGER

@<TRIPOS>ATOM
      1 O          -4.4222    0.9849    0.5275 O.2     1  UNL1       -0.2444
      2 C          -3.2201    1.1017    0.8879 C.ar    1  UNL1        0.3518
      3 N          -2.5393    2.2333    1.1435 N.ar    1  UNL1       -0.2079
      4 C          -3.0374    3.5945    1.0633 C.3     1  UNL1        0.0719
      5 C          -2.8199    4.1299   -0.2994 C.ar    1  UNL1       -0.0231
      6 C          -3.7649    3.9894   -1.2822 C.ar    1  UNL1       -0.0387
      7 C          -3.5121    4.5034   -2.5299 C.ar    1  UNL1        0.0279
      8 N          -2.3616    5.1282   -2.7713 N.ar    1  UNL1       -0.2632
      9 C          -1.3971    5.2934   -1.8371 C.ar    1  UNL1        0.0279
     10 C          -1.6455    4.7787   -0.5806 C.ar    1  UNL1       -0.0387
     11 N          -1.3068    1.9016    1.4911 N.ar    1  UNL1       -0.1478
     12 C          -1.1556    0.5638    1.4710 C.ar    1  UNL1        0.1696
     13 C           0.0344   -0.2062    1.7851 C.ar    1  UNL1        0.0243
     14 C           0.1074   -0.9705    2.9274 C.ar    1  UNL1       -0.0327
     15 C           1.2611   -1.7115    3.2179 C.ar    1  UNL1        0.0304
     16 N           2.2865   -1.6542    2.3551 N.ar    1  UNL1       -0.2405
     17 C           2.2574   -0.9137    1.2178 C.ar    1  UNL1        0.1195
     18 N           3.4185   -0.9763    0.4068 N.pl3   1  UNL1       -0.3262
     19 C           3.5760   -0.1978   -0.8331 C.3     1  UNL1        0.0220
     20 C           4.7918   -0.6331   -1.5662 C.3     1  UNL1       -0.0345
     21 C           6.0315    0.1570   -1.3414 C.3     1  UNL1       -0.0514
     22 C           5.6808    1.5936   -1.7588 C.3     1  UNL1       -0.0529
     23 C           4.7258    2.0670   -0.6883 C.3     1  UNL1       -0.0514
     24 C           3.4839    1.2733   -0.5536 C.3     1  UNL1       -0.0345
     25 C           1.1287   -0.1929    0.9392 C.ar    1  UNL1       -0.0112
     26 N          -2.3739    0.0796    1.0882 N.ar    1  UNL1       -0.2435
     27 C          -2.6178   -1.3065    0.9489 C.ar    1  UNL1        0.0535
     28 C          -3.3903   -1.9831    1.8892 C.ar    1  UNL1       -0.0370
     29 C          -3.6334   -3.3373    1.7605 C.ar    1  UNL1       -0.0521
     30 C          -3.1138   -4.0650    0.6881 C.ar    1  UNL1       -0.0178
     31 C          -3.3652   -5.4189    0.5728 C.ar    1  UNL1       -0.0540
     32 C          -2.8667   -6.1614   -0.4725 C.ar    1  UNL1       -0.0612
     33 C          -2.0917   -5.4944   -1.4202 C.ar    1  UNL1       -0.0612
     34 C          -1.8456   -4.1354   -1.2948 C.ar    1  UNL1       -0.0540
     35 C          -2.3573   -3.4067   -0.2343 C.ar    1  UNL1       -0.0159
     36 C          -2.1212   -2.0631   -0.0986 C.ar    1  UNL1       -0.0299
     37 H          -2.4618    4.2145    1.7667 H       1  UNL1        0.0560
     38 H          -4.1260    3.5918    1.3073 H       1  UNL1        0.0560
     39 H          -4.7150    3.4704   -1.0706 H       1  UNL1        0.0636
     40 H          -4.2724    4.3823   -3.2969 H       1  UNL1        0.0829
     41 H          -0.4675    5.8019   -2.0459 H       1  UNL1        0.0829
     42 H          -0.8617    4.9133    0.1814 H       1  UNL1        0.0636
     43 H          -0.7327   -0.9847    3.5831 H       1  UNL1        0.0640
     44 H           1.3109   -2.3186    4.1317 H       1  UNL1        0.0830
     45 H           4.2317   -1.5914    0.6592 H       1  UNL1        0.1477
     46 H           2.6875   -0.4706   -1.4488 H       1  UNL1        0.0498
     47 H           5.0134   -1.6930   -1.2459 H       1  UNL1        0.0283
     48 H           4.6293   -0.7060   -2.6630 H       1  UNL1        0.0283
     49 H           6.3213    0.2217   -0.2691 H       1  UNL1        0.0266
     50 H           6.8309   -0.2543   -1.9571 H       1  UNL1        0.0266
     51 H           6.5690    2.2366   -1.7508 H       1  UNL1        0.0265
     52 H           5.1332    1.6063   -2.7259 H       1  UNL1        0.0265
     53 H           5.2588    2.2143    0.2803 H       1  UNL1        0.0266
     54 H           4.4458    3.1191   -0.9957 H       1  UNL1        0.0266
     55 H           3.1653    1.3826    0.5306 H       1  UNL1        0.0283
     56 H           2.6673    1.7577   -1.1374 H       1  UNL1        0.0283
     57 H           1.0999    0.3882    0.0313 H       1  UNL1        0.0659
     58 H          -3.8285   -1.4904    2.7479 H       1  UNL1        0.0638
     59 H          -4.2256   -3.8840    2.4717 H       1  UNL1        0.0624
     60 H          -3.9778   -5.9201    1.3317 H       1  UNL1        0.0624
     61 H          -3.0636   -7.2305   -0.5654 H       1  UNL1        0.0618
     62 H          -1.7017   -6.0785   -2.2383 H       1  UNL1        0.0618
     63 H          -1.2404   -3.6514   -2.0489 H       1  UNL1        0.0624
     64 H          -1.5141   -1.5724   -0.8523 H       1  UNL1        0.0644
@<TRIPOS>BOND
     1     1     2    2
     2     2     3   ar
     3     3     4    1
     4     4     5    1
     5     5     6   ar
     6     6     7   ar
     7     7     8   ar
     8     8     9   ar
     9     9    10   ar
    10     3    11   ar
    11    11    12   ar
    12    12    13    1
    13    13    14   ar
    14    14    15   ar
    15    15    16   ar
    16    16    17   ar
    17    17    18    1
    18    18    19    1
    19    19    20    1
    20    20    21    1
    21    21    22    1
    22    22    23    1
    23    23    24    1
    24    17    25   ar
    25    12    26   ar
    26    26    27    1
    27    27    28   ar
    28    28    29   ar
    29    29    30   ar
    30    30    31   ar
    31    31    32   ar
    32    32    33   ar
    33    33    34   ar
    34    34    35   ar
    35    35    36   ar
    36    26     2   ar
    37    36    27   ar
    38    10     5   ar
    39    25    13   ar
    40    35    30   ar
    41    24    19    1
    42     4    37    1
    43     4    38    1
    44     6    39    1
    45     7    40    1
    46     9    41    1
    47    10    42    1
    48    14    43    1
    49    15    44    1
    50    18    45    1
    51    19    46    1
    52    20    47    1
    53    20    48    1
    54    21    49    1
    55    21    50    1
    56    22    51    1
    57    22    52    1
    58    23    53    1
    59    23    54    1
    60    24    55    1
    61    24    56    1
    62    25    57    1
    63    28    58    1
    64    29    59    1
    65    31    60    1
    66    32    61    1
    67    33    62    1
    68    34    63    1
    69    36    64    1
