@<TRIPOS>MOLECULE
*****
 51 54 0 0 0
SMALL
GASTEIGER

@<TRIPOS>ATOM
      1 C          -3.9666    4.2467   -0.4559 C.3     1  UNL1       -0.0288
      2 C          -3.8539    2.7594   -0.1304 C.3     1  UNL1        0.1831
      3 C          -5.2358    2.3373    0.3924 C.3     1  UNL1       -0.0288
      4 C          -2.8446    2.6583    0.9554 C.2     1  UNL1        0.3067
      5 N          -2.7038    3.7582    1.8966 N.pl3   1  UNL1       -0.2488
      6 N          -2.1376    1.6209    1.0845 N.2     1  UNL1       -0.0727
      7 C          -2.1171    0.4153    0.3097 C.3     1  UNL1        0.1959
      8 C          -3.2287   -0.5463    0.5700 C.3     1  UNL1       -0.0112
      9 C          -0.8455   -0.2927    0.6229 C.ar    1  UNL1        0.0420
     10 C           0.0593   -0.7098   -0.3334 C.ar    1  UNL1       -0.0302
     11 C           1.1861   -1.4182   -0.0561 C.ar    1  UNL1        0.0320
     12 N           2.1062   -1.9326   -1.0190 N.pl3   1  UNL1       -0.3112
     13 C           3.1793   -2.8072   -0.5407 C.ar    1  UNL1        0.0834
     14 C           2.7358   -4.0408   -0.0023 C.ar    1  UNL1        0.1018
     15 CL          1.2349   -4.7185    0.1824 Cl      1  UNL1       -0.0738
     16 S           4.3704   -4.7660    0.5016 S.2     1  UNL1       -0.0733
     17 C           5.4038   -3.3644   -0.0551 C.ar    1  UNL1        0.0421
     18 C           6.7540   -3.2045    0.0172 C.ar    1  UNL1       -0.0270
     19 C           7.2317   -1.9714   -0.5070 C.ar    1  UNL1        0.0709
     20 C           8.5049   -1.5878   -0.1051 C.1     1  UNL1        0.1007
     21 N           9.6685   -1.2333    0.2436 N.1     1  UNL1       -0.1908
     22 C           6.3498   -1.1157   -1.0063 C.ar    1  UNL1        0.0457
     23 N           5.0155   -1.3344   -1.0465 N.ar    1  UNL1       -0.2513
     24 C           4.4707   -2.5413   -0.5377 C.ar    1  UNL1        0.1006
     25 C           1.4186   -1.7274    1.2979 C.ar    1  UNL1       -0.0378
     26 C           0.5704   -1.3518    2.2836 C.ar    1  UNL1       -0.0243
     27 C          -0.5446   -0.6454    1.9303 C.ar    1  UNL1        0.1311
     28 F          -1.4001   -0.2449    2.9362 F       1  UNL1       -0.2050
     29 C          -2.0299    0.7742   -1.1819 C.3     1  UNL1        0.1183
     30 S          -3.3633    1.8701   -1.5500 S.O2    1  UNL1       -0.0101
     31 O          -4.5566    1.0784   -2.1030 O.2     1  UNL1       -0.1731
     32 O          -2.9921    2.8194   -2.6660 O.2     1  UNL1       -0.1731
     33 H          -2.9907    4.7770   -0.2985 H       1  UNL1        0.0256
     34 H          -4.3601    4.3955   -1.4705 H       1  UNL1        0.0256
     35 H          -4.6680    4.6797    0.2789 H       1  UNL1        0.0256
     36 H          -5.5817    1.5059   -0.2722 H       1  UNL1        0.0256
     37 H          -5.8993    3.2205    0.3661 H       1  UNL1        0.0256
     38 H          -5.1052    1.9794    1.4152 H       1  UNL1        0.0256
     39 H          -2.7590    4.7325    1.6519 H       1  UNL1        0.2881
     40 H          -2.5206    3.4504    2.8630 H       1  UNL1        0.2881
     41 H          -3.5264   -1.0916   -0.3506 H       1  UNL1        0.0279
     42 H          -4.0853   -0.1100    1.0802 H       1  UNL1        0.0279
     43 H          -2.8497   -1.3664    1.2504 H       1  UNL1        0.0279
     44 H          -0.1286   -0.4430   -1.3765 H       1  UNL1        0.0641
     45 H           2.0917   -1.7584   -2.0206 H       1  UNL1        0.1523
     46 H           7.4486   -3.9344    0.4654 H       1  UNL1        0.0643
     47 H           6.6817   -0.1286   -1.4283 H       1  UNL1        0.0843
     48 H           2.3153   -2.2643    1.5912 H       1  UNL1        0.0637
     49 H           0.7403   -1.5900    3.3307 H       1  UNL1        0.0647
     50 H          -1.0924    1.3187   -1.3624 H       1  UNL1        0.0550
     51 H          -2.1501   -0.1564   -1.7419 H       1  UNL1        0.0550
@<TRIPOS>BOND
     1     1     2    1
     2     2     3    1
     3     2     4    1
     4     4     5    1
     5     4     6    2
     6     6     7    1
     7     7     8    1
     8     7     9    1
     9     9    10   ar
    10    10    11   ar
    11    11    12    1
    12    12    13    1
    13    13    14   ar
    14    14    15    1
    15    14    16   ar
    16    16    17   ar
    17    17    18   ar
    18    18    19   ar
    19    19    20    1
    20    20    21    3
    21    19    22   ar
    22    22    23   ar
    23    23    24   ar
    24    11    25   ar
    25    25    26   ar
    26    26    27   ar
    27    27    28    1
    28     7    29    1
    29    29    30    1
    30    30    31    2
    31    30    32    2
    32    30     2    1
    33    27     9   ar
    34    24    13   ar
    35    24    17   ar
    36     1    33    1
    37     1    34    1
    38     1    35    1
    39     3    36    1
    40     3    37    1
    41     3    38    1
    42     5    39    1
    43     5    40    1
    44     8    41    1
    45     8    42    1
    46     8    43    1
    47    10    44    1
    48    12    45    1
    49    18    46    1
    50    22    47    1
    51    25    48    1
    52    26    49    1
    53    29    50    1
    54    29    51    1
