
     RDKit          3D

 51 54  0  0  0  0  0  0  0  0999 V2000
   -3.9666    4.2467   -0.4559 C   0  0  0  0  0  0  0  0  0  0  0  0
   -3.8539    2.7594   -0.1304 C   0  0  0  0  0  0  0  0  0  0  0  0
   -5.2358    2.3373    0.3924 C   0  0  0  0  0  0  0  0  0  0  0  0
   -2.8446    2.6583    0.9554 C   0  0  0  0  0  0  0  0  0  0  0  0
   -2.7038    3.7582    1.8966 N   0  0  0  0  0  0  0  0  0  0  0  0
   -2.1376    1.6209    1.0845 N   0  0  0  0  0  0  0  0  0  0  0  0
   -2.1171    0.4153    0.3097 C   0  0  2  0  0  0  0  0  0  0  0  0
   -3.2287   -0.5463    0.5700 C   0  0  0  0  0  0  0  0  0  0  0  0
   -0.8455   -0.2927    0.6229 C   0  0  0  0  0  0  0  0  0  0  0  0
    0.0593   -0.7098   -0.3334 C   0  0  0  0  0  0  0  0  0  0  0  0
    1.1861   -1.4182   -0.0561 C   0  0  0  0  0  0  0  0  0  0  0  0
    2.1062   -1.9326   -1.0190 N   0  0  0  0  0  0  0  0  0  0  0  0
    3.1793   -2.8072   -0.5407 C   0  0  0  0  0  0  0  0  0  0  0  0
    2.7358   -4.0408   -0.0023 C   0  0  0  0  0  0  0  0  0  0  0  0
    1.2349   -4.7185    0.1824 Cl  0  0  0  0  0  0  0  0  0  0  0  0
    4.3704   -4.7660    0.5016 S   0  0  0  0  0  0  0  0  0  0  0  0
    5.4038   -3.3644   -0.0551 C   0  0  0  0  0  0  0  0  0  0  0  0
    6.7540   -3.2045    0.0172 C   0  0  0  0  0  0  0  0  0  0  0  0
    7.2317   -1.9714   -0.5070 C   0  0  0  0  0  0  0  0  0  0  0  0
    8.5049   -1.5878   -0.1051 C   0  0  0  0  0  0  0  0  0  0  0  0
    9.6685   -1.2333    0.2436 N   0  0  0  0  0  0  0  0  0  0  0  0
    6.3498   -1.1157   -1.0063 C   0  0  0  0  0  0  0  0  0  0  0  0
    5.0155   -1.3344   -1.0465 N   0  0  0  0  0  0  0  0  0  0  0  0
    4.4707   -2.5413   -0.5377 C   0  0  0  0  0  0  0  0  0  0  0  0
    1.4186   -1.7274    1.2979 C   0  0  0  0  0  0  0  0  0  0  0  0
    0.5704   -1.3518    2.2836 C   0  0  0  0  0  0  0  0  0  0  0  0
   -0.5446   -0.6454    1.9303 C   0  0  0  0  0  0  0  0  0  0  0  0
   -1.4001   -0.2449    2.9362 F   0  0  0  0  0  0  0  0  0  0  0  0
   -2.0299    0.7742   -1.1819 C   0  0  0  0  0  0  0  0  0  0  0  0
   -3.3633    1.8701   -1.5500 S   0  0  0  0  0  6  0  0  0  0  0  0
   -4.5566    1.0784   -2.1030 O   0  0  0  0  0  0  0  0  0  0  0  0
   -2.9921    2.8194   -2.6660 O   0  0  0  0  0  0  0  0  0  0  0  0
   -2.9907    4.7770   -0.2985 H   0  0  0  0  0  0  0  0  0  0  0  0
   -4.3601    4.3955   -1.4705 H   0  0  0  0  0  0  0  0  0  0  0  0
   -4.6680    4.6797    0.2789 H   0  0  0  0  0  0  0  0  0  0  0  0
   -5.5817    1.5059   -0.2722 H   0  0  0  0  0  0  0  0  0  0  0  0
   -5.8993    3.2205    0.3661 H   0  0  0  0  0  0  0  0  0  0  0  0
   -5.1052    1.9794    1.4152 H   0  0  0  0  0  0  0  0  0  0  0  0
   -2.7590    4.7325    1.6519 H   0  0  0  0  0  0  0  0  0  0  0  0
   -2.5206    3.4504    2.8630 H   0  0  0  0  0  0  0  0  0  0  0  0
   -3.5264   -1.0916   -0.3506 H   0  0  0  0  0  0  0  0  0  0  0  0
   -4.0853   -0.1100    1.0802 H   0  0  0  0  0  0  0  0  0  0  0  0
   -2.8497   -1.3664    1.2504 H   0  0  0  0  0  0  0  0  0  0  0  0
   -0.1286   -0.4430   -1.3765 H   0  0  0  0  0  0  0  0  0  0  0  0
    2.0917   -1.7584   -2.0206 H   0  0  0  0  0  0  0  0  0  0  0  0
    7.4486   -3.9344    0.4654 H   0  0  0  0  0  0  0  0  0  0  0  0
    6.6817   -0.1286   -1.4283 H   0  0  0  0  0  0  0  0  0  0  0  0
    2.3153   -2.2643    1.5912 H   0  0  0  0  0  0  0  0  0  0  0  0
    0.7403   -1.5900    3.3307 H   0  0  0  0  0  0  0  0  0  0  0  0
   -1.0924    1.3187   -1.3624 H   0  0  0  0  0  0  0  0  0  0  0  0
   -2.1501   -0.1564   -1.7419 H   0  0  0  0  0  0  0  0  0  0  0  0
  1  2  1  0
  2  3  1  0
  2  4  1  0
  4  5  1  0
  4  6  2  0
  6  7  1  0
  7  8  1  6
  7  9  1  0
  9 10  2  0
 10 11  1  0
 11 12  1  0
 12 13  1  0
 13 14  2  0
 14 15  1  0
 14 16  1  0
 16 17  1  0
 17 18  2  0
 18 19  1  0
 19 20  1  0
 20 21  3  0
 19 22  2  0
 22 23  1  0
 23 24  2  0
 11 25  2  0
 25 26  1  0
 26 27  2  0
 27 28  1  0
  7 29  1  0
 29 30  1  0
 30 31  2  0
 30 32  2  0
 30  2  1  0
 27  9  1  0
 24 13  1  0
 24 17  1  0
  1 33  1  0
  1 34  1  0
  1 35  1  0
  3 36  1  0
  3 37  1  0
  3 38  1  0
  5 39  1  0
  5 40  1  0
  8 41  1  0
  8 42  1  0
  8 43  1  0
 10 44  1  0
 12 45  1  0
 18 46  1  0
 22 47  1  0
 25 48  1  0
 26 49  1  0
 29 50  1  0
 29 51  1  0
M  END
$$$$
