@<TRIPOS>MOLECULE
*****
 43 42 0 0 0
SMALL
GASTEIGER

@<TRIPOS>ATOM
      1 C          -5.8410    0.6211    1.2675 C.3     1  UNL1       -0.0653
      2 C          -5.4170   -0.3906    0.2605 C.3     1  UNL1       -0.0559
      3 C          -4.9853    0.2040   -1.0549 C.3     1  UNL1       -0.0533
      4 C          -3.8199    1.1395   -0.9149 C.3     1  UNL1       -0.0531
      5 C          -2.5951    0.4998   -0.3497 C.3     1  UNL1       -0.0531
      6 C          -2.0592   -0.6341   -1.1500 C.3     1  UNL1       -0.0531
      7 C          -0.8367   -1.2100   -0.5090 C.3     1  UNL1       -0.0531
      8 C           0.2885   -0.2257   -0.3582 C.3     1  UNL1       -0.0531
      9 C           1.4443   -0.9583    0.3024 C.3     1  UNL1       -0.0530
     10 C           2.6374   -0.0680    0.5067 C.3     1  UNL1       -0.0509
     11 C           3.7258   -0.8519    1.1561 C.3     1  UNL1       -0.0271
     12 C           4.9863   -0.0800    1.4209 C.3     1  UNL1        0.0789
     13 O           5.5415    0.4193    0.2641 O.3     1  UNL1       -0.2158
     14 S           6.9404    1.2736    0.5767 S.O2    1  UNL1        0.2075
     15 O           8.2035    0.2140    0.8581 O.3     1  UNL1       -0.2311
     16 O           6.7285    2.1546    1.7942 O.2     1  UNL1       -0.1181
     17 O           7.2939    2.1494   -0.5666 O.2     1  UNL1       -0.1181
     18 H          -5.0031    0.9209    1.9602 H       1  UNL1        0.0230
     19 H          -6.5869    0.1538    1.9439 H       1  UNL1        0.0230
     20 H          -6.3301    1.5154    0.8267 H       1  UNL1        0.0230
     21 H          -6.2469   -1.1089    0.1072 H       1  UNL1        0.0263
     22 H          -4.5810   -0.9701    0.7098 H       1  UNL1        0.0263
     23 H          -5.8436    0.7784   -1.4602 H       1  UNL1        0.0265
     24 H          -4.7937   -0.6263   -1.7553 H       1  UNL1        0.0265
     25 H          -3.5940    1.6004   -1.8978 H       1  UNL1        0.0265
     26 H          -4.1035    1.9838   -0.2559 H       1  UNL1        0.0265
     27 H          -1.8303    1.2849   -0.1802 H       1  UNL1        0.0265
     28 H          -2.8335    0.0914    0.6683 H       1  UNL1        0.0265
     29 H          -2.8334   -1.4520   -1.0919 H       1  UNL1        0.0265
     30 H          -1.7943   -0.3656   -2.1892 H       1  UNL1        0.0265
     31 H          -1.0195   -1.6930    0.4721 H       1  UNL1        0.0265
     32 H          -0.4690   -2.0293   -1.1780 H       1  UNL1        0.0265
     33 H           0.0271    0.6050    0.3217 H       1  UNL1        0.0265
     34 H           0.6693    0.1653   -1.3006 H       1  UNL1        0.0265
     35 H           1.1502   -1.3553    1.2889 H       1  UNL1        0.0265
     36 H           1.7792   -1.8389   -0.3045 H       1  UNL1        0.0265
     37 H           2.9775    0.3255   -0.4813 H       1  UNL1        0.0266
     38 H           2.4114    0.8061    1.1302 H       1  UNL1        0.0266
     39 H           4.0173   -1.6824    0.4607 H       1  UNL1        0.0288
     40 H           3.3535   -1.2939    2.0977 H       1  UNL1        0.0288
     41 H           4.8630    0.6941    2.2038 H       1  UNL1        0.0584
     42 H           5.7132   -0.8202    1.8436 H       1  UNL1        0.0584
     43 H           8.6650    0.0541   -0.0023 H       1  UNL1        0.2469
@<TRIPOS>BOND
     1     1     2    1
     2     2     3    1
     3     3     4    1
     4     4     5    1
     5     5     6    1
     6     6     7    1
     7     7     8    1
     8     8     9    1
     9     9    10    1
    10    10    11    1
    11    11    12    1
    12    12    13    1
    13    13    14    1
    14    14    15    1
    15    14    16    2
    16    14    17    2
    17     1    18    1
    18     1    19    1
    19     1    20    1
    20     2    21    1
    21     2    22    1
    22     3    23    1
    23     3    24    1
    24     4    25    1
    25     4    26    1
    26     5    27    1
    27     5    28    1
    28     6    29    1
    29     6    30    1
    30     7    31    1
    31     7    32    1
    32     8    33    1
    33     8    34    1
    34     9    35    1
    35     9    36    1
    36    10    37    1
    37    10    38    1
    38    11    39    1
    39    11    40    1
    40    12    41    1
    41    12    42    1
    42    15    43    1
