@<TRIPOS>MOLECULE
*****
 54 57 0 0 0
SMALL
GASTEIGER

@<TRIPOS>ATOM
      1 O           1.4896    0.7295    1.9314 O.3     1  UNL1       -0.3869
      2 C           1.5992    0.0895    0.7018 C.3     1  UNL1        0.1043
      3 C           1.2229   -1.3308    0.8851 C.3     1  UNL1        0.0255
      4 N          -0.0712   -1.5476    1.3619 N.3     1  UNL1       -0.3109
      5 C          -1.2095   -1.3208    0.6201 C.3     1  UNL1        0.0255
      6 C          -1.6752    0.0511    0.3287 C.3     1  UNL1        0.1043
      7 O          -1.9615    0.7072    1.5357 O.3     1  UNL1       -0.3869
      8 C          -2.9623    0.0067   -0.4884 C.3     1  UNL1        0.1274
      9 C          -3.4073    1.4644   -0.6217 C.3     1  UNL1       -0.0092
     10 C          -4.6853    1.5559   -1.4220 C.3     1  UNL1       -0.0207
     11 C          -5.6769    0.6962   -0.6903 C.ar    1  UNL1       -0.0029
     12 C          -5.2927   -0.3804    0.1105 C.ar    1  UNL1        0.1244
     13 O          -3.9313   -0.6822    0.2406 O.3     1  UNL1       -0.4859
     14 C          -6.1555   -1.1910    0.7992 C.ar    1  UNL1       -0.0169
     15 C          -7.4949   -0.9213    0.6886 C.ar    1  UNL1       -0.0230
     16 C          -7.9314    0.1234   -0.0851 C.ar    1  UNL1        0.1239
     17 F          -9.2727    0.3659   -0.1717 F       1  UNL1       -0.2055
     18 C          -7.0521    0.9323   -0.7725 C.ar    1  UNL1       -0.0198
     19 C           3.0626    0.2482    0.2979 C.3     1  UNL1        0.1274
     20 C           3.3175   -0.3486   -1.0568 C.3     1  UNL1       -0.0092
     21 C           4.5998    0.3081   -1.5723 C.3     1  UNL1       -0.0207
     22 C           5.6405    0.1565   -0.4840 C.ar    1  UNL1       -0.0029
     23 C           5.3228   -0.1485    0.8488 C.ar    1  UNL1        0.1244
     24 O           3.9680   -0.3314    1.2112 O.3     1  UNL1       -0.4859
     25 C           6.3409   -0.2600    1.7671 C.ar    1  UNL1       -0.0169
     26 C           7.6647   -0.0693    1.3460 C.ar    1  UNL1       -0.0230
     27 C           7.9217    0.2271    0.0282 C.ar    1  UNL1        0.1239
     28 F           9.2045    0.4112   -0.3817 F       1  UNL1       -0.2055
     29 C           6.9410    0.3521   -0.9313 C.ar    1  UNL1       -0.0198
     30 H           1.3953    1.7128    1.8432 H       1  UNL1        0.2100
     31 H           1.0570    0.5758   -0.1296 H       1  UNL1        0.0643
     32 H           1.9466   -1.7840    1.6312 H       1  UNL1        0.0450
     33 H           1.4637   -1.9457   -0.0418 H       1  UNL1        0.0450
     34 H          -0.1075   -2.1311    2.2202 H       1  UNL1        0.1221
     35 H          -1.2625   -1.9733   -0.3151 H       1  UNL1        0.0450
     36 H          -2.0832   -1.7843    1.2252 H       1  UNL1        0.0450
     37 H          -1.0290    0.7329   -0.2195 H       1  UNL1        0.0643
     38 H          -1.2193    0.4767    2.1593 H       1  UNL1        0.2100
     39 H          -2.8227   -0.4053   -1.4852 H       1  UNL1        0.0759
     40 H          -3.6644    1.7719    0.4236 H       1  UNL1        0.0305
     41 H          -2.6106    2.1024   -1.0030 H       1  UNL1        0.0305
     42 H          -4.5520    1.1755   -2.4608 H       1  UNL1        0.0315
     43 H          -4.9951    2.6219   -1.4204 H       1  UNL1        0.0315
     44 H          -5.7979   -2.0116    1.3992 H       1  UNL1        0.0655
     45 H          -8.1734   -1.5821    1.2450 H       1  UNL1        0.0647
     46 H          -7.3668    1.7617   -1.3838 H       1  UNL1        0.0650
     47 H           3.2634    1.3353    0.2399 H       1  UNL1        0.0759
     48 H           3.5273   -1.4228   -0.9091 H       1  UNL1        0.0305
     49 H           2.4757   -0.1453   -1.7523 H       1  UNL1        0.0305
     50 H           4.4008    1.3513   -1.8232 H       1  UNL1        0.0315
     51 H           4.9826   -0.2475   -2.4451 H       1  UNL1        0.0315
     52 H           6.0532   -0.4993    2.7891 H       1  UNL1        0.0655
     53 H           8.4384   -0.1644    2.0693 H       1  UNL1        0.0647
     54 H           7.1646    0.5855   -1.9596 H       1  UNL1        0.0650
@<TRIPOS>BOND
     1     1     2    1
     2     2     3    1
     3     3     4    1
     4     4     5    1
     5     5     6    1
     6     6     7    1
     7     6     8    1
     8     8     9    1
     9     9    10    1
    10    10    11    1
    11    11    12   ar
    12    12    13    1
    13    12    14   ar
    14    14    15   ar
    15    15    16   ar
    16    16    17    1
    17    16    18   ar
    18     2    19    1
    19    19    20    1
    20    20    21    1
    21    21    22    1
    22    22    23   ar
    23    23    24    1
    24    23    25   ar
    25    25    26   ar
    26    26    27   ar
    27    27    28    1
    28    27    29   ar
    29    13     8    1
    30    24    19    1
    31    18    11   ar
    32    29    22   ar
    33     1    30    1
    34     2    31    1
    35     3    32    1
    36     3    33    1
    37     4    34    1
    38     5    35    1
    39     5    36    1
    40     6    37    1
    41     7    38    1
    42     8    39    1
    43     9    40    1
    44     9    41    1
    45    10    42    1
    46    10    43    1
    47    14    44    1
    48    15    45    1
    49    18    46    1
    50    19    47    1
    51    20    48    1
    52    20    49    1
    53    21    50    1
    54    21    51    1
    55    25    52    1
    56    26    53    1
    57    29    54    1
