
     RDKit          3D

 54 57  0  0  0  0  0  0  0  0999 V2000
    1.4896    0.7295    1.9314 O   0  0  0  0  0  0  0  0  0  0  0  0
    1.5992    0.0895    0.7018 C   0  0  0  0  0  0  0  0  0  0  0  0
    1.2229   -1.3308    0.8851 C   0  0  0  0  0  0  0  0  0  0  0  0
   -0.0712   -1.5476    1.3619 N   0  0  0  0  0  0  0  0  0  0  0  0
   -1.2095   -1.3208    0.6201 C   0  0  0  0  0  0  0  0  0  0  0  0
   -1.6752    0.0511    0.3287 C   0  0  0  0  0  0  0  0  0  0  0  0
   -1.9615    0.7072    1.5357 O   0  0  0  0  0  0  0  0  0  0  0  0
   -2.9623    0.0067   -0.4884 C   0  0  0  0  0  0  0  0  0  0  0  0
   -3.4073    1.4644   -0.6217 C   0  0  0  0  0  0  0  0  0  0  0  0
   -4.6853    1.5559   -1.4220 C   0  0  0  0  0  0  0  0  0  0  0  0
   -5.6769    0.6962   -0.6903 C   0  0  0  0  0  0  0  0  0  0  0  0
   -5.2927   -0.3804    0.1105 C   0  0  0  0  0  0  0  0  0  0  0  0
   -3.9313   -0.6822    0.2406 O   0  0  0  0  0  0  0  0  0  0  0  0
   -6.1555   -1.1910    0.7992 C   0  0  0  0  0  0  0  0  0  0  0  0
   -7.4949   -0.9213    0.6886 C   0  0  0  0  0  0  0  0  0  0  0  0
   -7.9314    0.1234   -0.0851 C   0  0  0  0  0  0  0  0  0  0  0  0
   -9.2727    0.3659   -0.1717 F   0  0  0  0  0  0  0  0  0  0  0  0
   -7.0521    0.9323   -0.7725 C   0  0  0  0  0  0  0  0  0  0  0  0
    3.0626    0.2482    0.2979 C   0  0  0  0  0  0  0  0  0  0  0  0
    3.3175   -0.3486   -1.0568 C   0  0  0  0  0  0  0  0  0  0  0  0
    4.5998    0.3081   -1.5723 C   0  0  0  0  0  0  0  0  0  0  0  0
    5.6405    0.1565   -0.4840 C   0  0  0  0  0  0  0  0  0  0  0  0
    5.3228   -0.1485    0.8488 C   0  0  0  0  0  0  0  0  0  0  0  0
    3.9680   -0.3314    1.2112 O   0  0  0  0  0  0  0  0  0  0  0  0
    6.3409   -0.2600    1.7671 C   0  0  0  0  0  0  0  0  0  0  0  0
    7.6647   -0.0693    1.3460 C   0  0  0  0  0  0  0  0  0  0  0  0
    7.9217    0.2271    0.0282 C   0  0  0  0  0  0  0  0  0  0  0  0
    9.2045    0.4112   -0.3817 F   0  0  0  0  0  0  0  0  0  0  0  0
    6.9410    0.3521   -0.9313 C   0  0  0  0  0  0  0  0  0  0  0  0
    1.3953    1.7128    1.8432 H   0  0  0  0  0  0  0  0  0  0  0  0
    1.0570    0.5758   -0.1296 H   0  0  0  0  0  0  0  0  0  0  0  0
    1.9466   -1.7840    1.6312 H   0  0  0  0  0  0  0  0  0  0  0  0
    1.4637   -1.9457   -0.0418 H   0  0  0  0  0  0  0  0  0  0  0  0
   -0.1075   -2.1311    2.2202 H   0  0  0  0  0  0  0  0  0  0  0  0
   -1.2625   -1.9733   -0.3151 H   0  0  0  0  0  0  0  0  0  0  0  0
   -2.0832   -1.7843    1.2252 H   0  0  0  0  0  0  0  0  0  0  0  0
   -1.0290    0.7329   -0.2195 H   0  0  0  0  0  0  0  0  0  0  0  0
   -1.2193    0.4767    2.1593 H   0  0  0  0  0  0  0  0  0  0  0  0
   -2.8227   -0.4053   -1.4852 H   0  0  0  0  0  0  0  0  0  0  0  0
   -3.6644    1.7719    0.4236 H   0  0  0  0  0  0  0  0  0  0  0  0
   -2.6106    2.1024   -1.0030 H   0  0  0  0  0  0  0  0  0  0  0  0
   -4.5520    1.1755   -2.4608 H   0  0  0  0  0  0  0  0  0  0  0  0
   -4.9951    2.6219   -1.4204 H   0  0  0  0  0  0  0  0  0  0  0  0
   -5.7979   -2.0116    1.3992 H   0  0  0  0  0  0  0  0  0  0  0  0
   -8.1734   -1.5821    1.2450 H   0  0  0  0  0  0  0  0  0  0  0  0
   -7.3668    1.7617   -1.3838 H   0  0  0  0  0  0  0  0  0  0  0  0
    3.2634    1.3353    0.2399 H   0  0  0  0  0  0  0  0  0  0  0  0
    3.5273   -1.4228   -0.9091 H   0  0  0  0  0  0  0  0  0  0  0  0
    2.4757   -0.1453   -1.7523 H   0  0  0  0  0  0  0  0  0  0  0  0
    4.4008    1.3513   -1.8232 H   0  0  0  0  0  0  0  0  0  0  0  0
    4.9826   -0.2475   -2.4451 H   0  0  0  0  0  0  0  0  0  0  0  0
    6.0532   -0.4993    2.7891 H   0  0  0  0  0  0  0  0  0  0  0  0
    8.4384   -0.1644    2.0693 H   0  0  0  0  0  0  0  0  0  0  0  0
    7.1646    0.5855   -1.9596 H   0  0  0  0  0  0  0  0  0  0  0  0
  1  2  1  0
  2  3  1  0
  3  4  1  0
  4  5  1  0
  5  6  1  0
  6  7  1  0
  6  8  1  0
  8  9  1  0
  9 10  1  0
 10 11  1  0
 11 12  2  0
 12 13  1  0
 12 14  1  0
 14 15  2  0
 15 16  1  0
 16 17  1  0
 16 18  2  0
  2 19  1  0
 19 20  1  0
 20 21  1  0
 21 22  1  0
 22 23  2  0
 23 24  1  0
 23 25  1  0
 25 26  2  0
 26 27  1  0
 27 28  1  0
 27 29  2  0
 13  8  1  0
 24 19  1  0
 18 11  1  0
 29 22  1  0
  1 30  1  0
  2 31  1  0
  3 32  1  0
  3 33  1  0
  4 34  1  0
  5 35  1  0
  5 36  1  0
  6 37  1  0
  7 38  1  0
  8 39  1  0
  9 40  1  0
  9 41  1  0
 10 42  1  0
 10 43  1  0
 14 44  1  0
 15 45  1  0
 18 46  1  0
 19 47  1  0
 20 48  1  0
 20 49  1  0
 21 50  1  0
 21 51  1  0
 25 52  1  0
 26 53  1  0
 29 54  1  0
M  END
$$$$
