@<TRIPOS>MOLECULE
*****
 44 45 0 0 0
SMALL
GASTEIGER

@<TRIPOS>ATOM
      1 O           1.8114    2.9622   -0.8932 O.2     1  UNL1       -0.2723
      2 C           1.1293    2.4954   -1.8329 C.2     1  UNL1        0.2512
      3 C           0.3707    1.2550   -1.6520 C.3     1  UNL1        0.0991
      4 N           0.5798    0.7671   -0.2912 N.3     1  UNL1       -0.1634
      5 C           0.6909   -0.6463   -0.2358 C.3     1  UNL1        0.0461
      6 C           1.6693   -1.1961    0.7156 C.ar    1  UNL1       -0.0309
      7 C           1.2244   -1.6038    1.9535 C.ar    1  UNL1       -0.0572
      8 C           2.0966   -2.1224    2.9174 C.ar    1  UNL1       -0.0607
      9 C           3.4225   -2.2029    2.5596 C.ar    1  UNL1       -0.0478
     10 C           3.8788   -1.7943    1.3129 C.ar    1  UNL1        0.0591
     11 C           5.2871   -1.8910    0.9608 C.2     1  UNL1        0.3368
     12 O           6.1061   -2.3498    1.7923 O.2     1  UNL1       -0.2451
     13 O           5.7550   -1.4895   -0.2726 O.3     1  UNL1       -0.4771
     14 C           3.0155   -1.2913    0.3861 C.ar    1  UNL1       -0.0433
     15 S          -0.5959    1.4116    0.7608 S.O2    1  UNL1        0.0616
     16 O          -0.5977    2.9329    0.7146 O.2     1  UNL1       -0.1528
     17 O          -0.2755    1.0694    2.1818 O.2     1  UNL1       -0.1528
     18 C          -2.2219    0.9340    0.3278 C.ar    1  UNL1        0.1063
     19 C          -2.9469    1.7124   -0.5500 C.ar    1  UNL1       -0.0353
     20 C          -4.2290    1.2985   -0.8657 C.ar    1  UNL1       -0.0591
     21 C          -4.7891    0.1532   -0.3374 C.ar    1  UNL1       -0.0477
     22 C          -4.0541   -0.6339    0.5512 C.ar    1  UNL1        0.0607
     23 C          -4.6484   -1.8445    1.1086 C.2     1  UNL1        0.3369
     24 O          -3.9392   -2.5134    1.9034 O.2     1  UNL1       -0.2451
     25 O          -5.9092   -2.2818    0.8191 O.3     1  UNL1       -0.4771
     26 C          -2.7879   -0.2126    0.8543 C.ar    1  UNL1       -0.0214
     27 N           1.1469    3.2391   -3.0525 N.am    1  UNL1       -0.1964
     28 O           1.8525    4.3830   -3.2042 O.3     1  UNL1       -0.2952
     29 H          -0.6815    1.3030   -1.9306 H       1  UNL1        0.0540
     30 H           0.8411    0.4749   -2.3204 H       1  UNL1        0.0540
     31 H          -0.3134   -1.0655   -0.0001 H       1  UNL1        0.0493
     32 H           0.9701   -1.0362   -1.2531 H       1  UNL1        0.0493
     33 H           0.1859   -1.5655    2.2598 H       1  UNL1        0.0621
     34 H           1.7235   -2.4364    3.8848 H       1  UNL1        0.0618
     35 H           4.1528   -2.5919    3.2501 H       1  UNL1        0.0626
     36 H           6.7345   -1.3594   -0.4477 H       1  UNL1        0.2954
     37 H           3.2882   -0.9520   -0.6038 H       1  UNL1        0.0629
     38 H          -2.5559    2.6269   -0.9983 H       1  UNL1        0.0637
     39 H          -4.8133    1.8982   -1.5541 H       1  UNL1        0.0618
     40 H          -5.7944   -0.1768   -0.5810 H       1  UNL1        0.0626
     41 H          -6.4565   -2.9065    1.4323 H       1  UNL1        0.2954
     42 H          -2.2120   -0.8265    1.5485 H       1  UNL1        0.0645
     43 H           0.5897    2.8764   -3.8519 H       1  UNL1        0.1822
     44 H           1.2992    5.1972   -3.0520 H       1  UNL1        0.2414
@<TRIPOS>BOND
     1     1     2    2
     2     2     3    1
     3     3     4    1
     4     4     5    1
     5     5     6    1
     6     6     7   ar
     7     7     8   ar
     8     8     9   ar
     9     9    10   ar
    10    10    11    1
    11    11    12    2
    12    11    13    1
    13    10    14   ar
    14     4    15    1
    15    15    16    2
    16    15    17    2
    17    15    18    1
    18    18    19   ar
    19    19    20   ar
    20    20    21   ar
    21    21    22   ar
    22    22    23    1
    23    23    24    2
    24    23    25    1
    25    22    26   ar
    26     2    27   am
    27    27    28    1
    28    14     6   ar
    29    26    18   ar
    30     3    29    1
    31     3    30    1
    32     5    31    1
    33     5    32    1
    34     7    33    1
    35     8    34    1
    36     9    35    1
    37    13    36    1
    38    14    37    1
    39    19    38    1
    40    20    39    1
    41    21    40    1
    42    25    41    1
    43    26    42    1
    44    27    43    1
    45    28    44    1
