
     RDKit          3D

 44 45  0  0  0  0  0  0  0  0999 V2000
    1.8114    2.9622   -0.8932 O   0  0  0  0  0  0  0  0  0  0  0  0
    1.1293    2.4954   -1.8329 C   0  0  0  0  0  0  0  0  0  0  0  0
    0.3707    1.2550   -1.6520 C   0  0  0  0  0  0  0  0  0  0  0  0
    0.5798    0.7671   -0.2912 N   0  0  0  0  0  0  0  0  0  0  0  0
    0.6909   -0.6463   -0.2358 C   0  0  0  0  0  0  0  0  0  0  0  0
    1.6693   -1.1961    0.7156 C   0  0  0  0  0  0  0  0  0  0  0  0
    1.2244   -1.6038    1.9535 C   0  0  0  0  0  0  0  0  0  0  0  0
    2.0966   -2.1224    2.9174 C   0  0  0  0  0  0  0  0  0  0  0  0
    3.4225   -2.2029    2.5596 C   0  0  0  0  0  0  0  0  0  0  0  0
    3.8788   -1.7943    1.3129 C   0  0  0  0  0  0  0  0  0  0  0  0
    5.2871   -1.8910    0.9608 C   0  0  0  0  0  0  0  0  0  0  0  0
    6.1061   -2.3498    1.7923 O   0  0  0  0  0  0  0  0  0  0  0  0
    5.7550   -1.4895   -0.2726 O   0  0  0  0  0  0  0  0  0  0  0  0
    3.0155   -1.2913    0.3861 C   0  0  0  0  0  0  0  0  0  0  0  0
   -0.5959    1.4116    0.7608 S   0  0  0  0  0  6  0  0  0  0  0  0
   -0.5977    2.9329    0.7146 O   0  0  0  0  0  0  0  0  0  0  0  0
   -0.2755    1.0694    2.1818 O   0  0  0  0  0  0  0  0  0  0  0  0
   -2.2219    0.9340    0.3278 C   0  0  0  0  0  0  0  0  0  0  0  0
   -2.9469    1.7124   -0.5500 C   0  0  0  0  0  0  0  0  0  0  0  0
   -4.2290    1.2985   -0.8657 C   0  0  0  0  0  0  0  0  0  0  0  0
   -4.7891    0.1532   -0.3374 C   0  0  0  0  0  0  0  0  0  0  0  0
   -4.0541   -0.6339    0.5512 C   0  0  0  0  0  0  0  0  0  0  0  0
   -4.6484   -1.8445    1.1086 C   0  0  0  0  0  0  0  0  0  0  0  0
   -3.9392   -2.5134    1.9034 O   0  0  0  0  0  0  0  0  0  0  0  0
   -5.9092   -2.2818    0.8191 O   0  0  0  0  0  0  0  0  0  0  0  0
   -2.7879   -0.2126    0.8543 C   0  0  0  0  0  0  0  0  0  0  0  0
    1.1469    3.2391   -3.0525 N   0  0  0  0  0  0  0  0  0  0  0  0
    1.8525    4.3830   -3.2042 O   0  0  0  0  0  0  0  0  0  0  0  0
   -0.6815    1.3030   -1.9306 H   0  0  0  0  0  0  0  0  0  0  0  0
    0.8411    0.4749   -2.3204 H   0  0  0  0  0  0  0  0  0  0  0  0
   -0.3134   -1.0655   -0.0001 H   0  0  0  0  0  0  0  0  0  0  0  0
    0.9701   -1.0362   -1.2531 H   0  0  0  0  0  0  0  0  0  0  0  0
    0.1859   -1.5655    2.2598 H   0  0  0  0  0  0  0  0  0  0  0  0
    1.7235   -2.4364    3.8848 H   0  0  0  0  0  0  0  0  0  0  0  0
    4.1528   -2.5919    3.2501 H   0  0  0  0  0  0  0  0  0  0  0  0
    6.7345   -1.3594   -0.4477 H   0  0  0  0  0  0  0  0  0  0  0  0
    3.2882   -0.9520   -0.6038 H   0  0  0  0  0  0  0  0  0  0  0  0
   -2.5559    2.6269   -0.9983 H   0  0  0  0  0  0  0  0  0  0  0  0
   -4.8133    1.8982   -1.5541 H   0  0  0  0  0  0  0  0  0  0  0  0
   -5.7944   -0.1768   -0.5810 H   0  0  0  0  0  0  0  0  0  0  0  0
   -6.4565   -2.9065    1.4323 H   0  0  0  0  0  0  0  0  0  0  0  0
   -2.2120   -0.8265    1.5485 H   0  0  0  0  0  0  0  0  0  0  0  0
    0.5897    2.8764   -3.8519 H   0  0  0  0  0  0  0  0  0  0  0  0
    1.2992    5.1972   -3.0520 H   0  0  0  0  0  0  0  0  0  0  0  0
  1  2  2  0
  2  3  1  0
  3  4  1  0
  4  5  1  0
  5  6  1  0
  6  7  2  0
  7  8  1  0
  8  9  2  0
  9 10  1  0
 10 11  1  0
 11 12  2  0
 11 13  1  0
 10 14  2  0
  4 15  1  0
 15 16  2  0
 15 17  2  0
 15 18  1  0
 18 19  2  0
 19 20  1  0
 20 21  2  0
 21 22  1  0
 22 23  1  0
 23 24  2  0
 23 25  1  0
 22 26  2  0
  2 27  1  0
 27 28  1  0
 14  6  1  0
 26 18  1  0
  3 29  1  0
  3 30  1  0
  5 31  1  0
  5 32  1  0
  7 33  1  0
  8 34  1  0
  9 35  1  0
 13 36  1  0
 14 37  1  0
 19 38  1  0
 20 39  1  0
 21 40  1  0
 25 41  1  0
 26 42  1  0
 27 43  1  0
 28 44  1  0
M  END
$$$$
