
     RDKit          3D

 57 60  0  0  0  0  0  0  0  0999 V2000
   -0.0323   -0.8333    0.8859 C   0  0  0  0  0  0  0  0  0  0  0  0
    1.3597   -0.4727    0.6098 C   0  0  0  0  0  0  0  0  0  0  0  0
    2.3330   -1.4191    0.4436 C   0  0  0  0  0  0  0  0  0  0  0  0
    3.6644   -1.1467    0.2005 C   0  0  0  0  0  0  0  0  0  0  0  0
    4.6521   -2.0983    0.0287 O   0  0  0  0  0  0  0  0  0  0  0  0
    4.2929   -3.4806    0.1016 C   0  0  0  0  0  0  0  0  0  0  0  0
    4.0738    0.1760    0.1152 C   0  0  0  0  0  0  0  0  0  0  0  0
    3.1054    1.1511    0.2802 C   0  0  0  0  0  0  0  0  0  0  0  0
    1.7908    0.8200    0.5194 C   0  0  0  0  0  0  0  0  0  0  0  0
    5.4324    0.5459   -0.1256 N   0  0  0  0  0  0  0  0  0  0  0  0
    6.3917   -0.1189   -0.7570 C   0  0  0  0  0  0  0  0  0  0  0  0
    7.5381    0.6246   -0.7406 N   0  0  0  0  0  0  0  0  0  0  0  0
    7.2495    1.7643   -0.0789 C   0  0  0  0  0  0  0  0  0  0  0  0
    8.2024    2.8705    0.1774 C   0  0  0  0  0  0  0  0  0  0  0  0
    5.9206    1.7409    0.3216 C   0  0  0  0  0  0  0  0  0  0  0  0
   -1.0395   -0.2939    0.1646 C   0  0  0  0  0  0  0  0  0  0  0  0
   -0.7837    0.6926   -0.9483 C   0  0  0  0  0  0  0  0  0  0  0  0
   -1.8383    0.4705   -2.0289 C   0  0  0  0  0  0  0  0  0  0  0  0
   -2.3808   -0.9303   -1.9041 C   0  0  0  0  0  0  0  0  0  0  0  0
   -3.2521   -0.9758   -0.7500 N   0  0  0  0  0  0  0  0  0  0  0  0
   -2.4550   -0.6681    0.4253 C   0  0  0  0  0  0  0  0  0  0  0  0
   -2.7464   -0.6629    1.6518 O   0  0  0  0  0  0  0  0  0  0  0  0
   -4.6178   -1.2327   -0.4172 C   0  0  1  0  0  0  0  0  0  0  0  0
   -4.8543   -2.3685    0.5183 C   0  0  0  0  0  0  0  0  0  0  0  0
   -5.3896   -0.0226    0.0096 C   0  0  0  0  0  0  0  0  0  0  0  0
   -6.1138    0.0556    1.1799 C   0  0  0  0  0  0  0  0  0  0  0  0
   -6.8384    1.1783    1.5420 C   0  0  0  0  0  0  0  0  0  0  0  0
   -6.8614    2.2852    0.7228 C   0  0  0  0  0  0  0  0  0  0  0  0
   -7.5599    3.4061    1.0390 F   0  0  0  0  0  0  0  0  0  0  0  0
   -6.1486    2.2470   -0.4609 C   0  0  0  0  0  0  0  0  0  0  0  0
   -5.4378    1.1049   -0.7847 C   0  0  0  0  0  0  0  0  0  0  0  0
   -0.3121   -1.5423    1.6862 H   0  0  0  0  0  0  0  0  0  0  0  0
    2.0851   -2.4837    0.4943 H   0  0  0  0  0  0  0  0  0  0  0  0
    5.1527   -4.1336   -0.1208 H   0  0  0  0  0  0  0  0  0  0  0  0
    3.4699   -3.6331   -0.6584 H   0  0  0  0  0  0  0  0  0  0  0  0
    3.8488   -3.6497    1.1013 H   0  0  0  0  0  0  0  0  0  0  0  0
    3.4381    2.1958    0.2130 H   0  0  0  0  0  0  0  0  0  0  0  0
    1.1186    1.6531    0.6407 H   0  0  0  0  0  0  0  0  0  0  0  0
    6.3278   -1.0894   -1.2271 H   0  0  0  0  0  0  0  0  0  0  0  0
    8.2551    3.5450   -0.6886 H   0  0  0  0  0  0  0  0  0  0  0  0
    9.1711    2.4190    0.4768 H   0  0  0  0  0  0  0  0  0  0  0  0
    7.8166    3.4766    1.0149 H   0  0  0  0  0  0  0  0  0  0  0  0
    5.3671    2.5080    0.8772 H   0  0  0  0  0  0  0  0  0  0  0  0
    0.2381    0.4875   -1.3471 H   0  0  0  0  0  0  0  0  0  0  0  0
   -0.8800    1.7399   -0.6131 H   0  0  0  0  0  0  0  0  0  0  0  0
   -2.5955    1.2670   -1.8898 H   0  0  0  0  0  0  0  0  0  0  0  0
   -1.3491    0.5747   -3.0285 H   0  0  0  0  0  0  0  0  0  0  0  0
   -2.8937   -1.2704   -2.8272 H   0  0  0  0  0  0  0  0  0  0  0  0
   -1.4937   -1.5798   -1.7103 H   0  0  0  0  0  0  0  0  0  0  0  0
   -5.1168   -1.5015   -1.4060 H   0  0  0  0  0  0  0  0  0  0  0  0
   -5.9047   -2.7171    0.4839 H   0  0  0  0  0  0  0  0  0  0  0  0
   -4.2168   -3.2265    0.1897 H   0  0  0  0  0  0  0  0  0  0  0  0
   -4.5759   -2.1283    1.5798 H   0  0  0  0  0  0  0  0  0  0  0  0
   -6.1081   -0.8176    1.8466 H   0  0  0  0  0  0  0  0  0  0  0  0
   -7.4015    1.2042    2.4765 H   0  0  0  0  0  0  0  0  0  0  0  0
   -6.1671    3.1262   -1.1098 H   0  0  0  0  0  0  0  0  0  0  0  0
   -4.9311    1.1669   -1.7143 H   0  0  0  0  0  0  0  0  0  0  0  0
  1  2  1  0
  2  3  2  0
  3  4  1  0
  4  5  1  0
  5  6  1  0
  4  7  2  0
  7  8  1  0
  8  9  2  0
  7 10  1  0
 10 11  1  0
 11 12  2  0
 12 13  1  0
 13 14  1  0
 13 15  2  0
  1 16  2  0
 16 17  1  0
 17 18  1  0
 18 19  1  0
 19 20  1  0
 20 21  1  0
 21 22  2  0
 20 23  1  0
 23 24  1  0
 23 25  1  0
 25 26  2  0
 26 27  1  0
 27 28  2  0
 28 29  1  0
 28 30  1  0
 30 31  2  0
  9  2  1  0
 15 10  1  0
 21 16  1  0
 31 25  1  0
  1 32  1  0
  3 33  1  0
  6 34  1  0
  6 35  1  0
  6 36  1  0
  8 37  1  0
  9 38  1  0
 11 39  1  0
 14 40  1  0
 14 41  1  0
 14 42  1  0
 15 43  1  0
 17 44  1  0
 17 45  1  0
 18 46  1  0
 18 47  1  0
 19 48  1  0
 19 49  1  0
 23 50  1  6
 24 51  1  0
 24 52  1  0
 24 53  1  0
 26 54  1  0
 27 55  1  0
 30 56  1  0
 31 57  1  0
M  END
$$$$
