@<TRIPOS>MOLECULE
*****
 54 53 0 0 0
SMALL
GASTEIGER

@<TRIPOS>ATOM
      1 C           1.8624    0.4158   -0.5725 C.3     1  UNL1        0.0536
      2 C           3.1164    0.4528    0.2382 C.3     1  UNL1       -0.0404
      3 C           3.4150   -0.8881    0.8791 C.3     1  UNL1       -0.0526
      4 C           4.6986   -0.8153    1.6974 C.3     1  UNL1       -0.0559
      5 C           4.9372   -2.1730    2.3046 C.3     1  UNL1       -0.0653
      6 C           1.5637    1.7584   -1.2187 C.3     1  UNL1        0.0525
      7 N           2.6418    2.1559   -2.1015 N.am    1  UNL1       -0.1857
      8 O           2.7955    1.8966   -3.4185 O.3     1  UNL1       -0.2927
      9 C           3.6961    2.9160   -1.5668 C.2     1  UNL1        0.2250
     10 O           4.0787    3.4279   -0.4845 O.2     1  UNL1       -0.2772
     11 C           0.6594    0.1129    0.2738 C.2     1  UNL1        0.2183
     12 O           0.5711   -0.0891    1.5123 O.2     1  UNL1       -0.2754
     13 N          -0.6067    0.0265   -0.3597 N.am    1  UNL1       -0.3032
     14 C          -1.8559   -0.2654    0.3627 C.3     1  UNL1        0.1044
     15 C          -2.3884   -1.4827   -0.2463 C.2     1  UNL1        0.2359
     16 O          -1.4309   -1.5512   -1.0620 O.2     1  UNL1       -0.2736
     17 N          -3.5150   -2.3259   -0.0685 N.am    1  UNL1       -0.3061
     18 C          -4.6592   -2.3099    0.8570 C.3     1  UNL1        0.0029
     19 C          -3.4695   -3.4272   -1.0452 C.3     1  UNL1        0.0029
     20 C          -2.6889    0.9688    0.1816 C.3     1  UNL1       -0.0108
     21 C          -2.9015    1.1591   -1.2948 C.3     1  UNL1       -0.0579
     22 C          -1.8784    2.1552    0.6771 C.3     1  UNL1       -0.0579
     23 C          -3.9788    0.9771    0.9565 C.3     1  UNL1       -0.0579
     24 H           1.9365   -0.3351   -1.3829 H       1  UNL1        0.0410
     25 H           3.9505    0.6482   -0.4973 H       1  UNL1        0.0273
     26 H           3.1559    1.2730    0.9517 H       1  UNL1        0.0273
     27 H           2.5729   -1.2741    1.4789 H       1  UNL1        0.0265
     28 H           3.6100   -1.6659    0.1124 H       1  UNL1        0.0265
     29 H           5.4882   -0.5164    0.9821 H       1  UNL1        0.0263
     30 H           4.5751   -0.0556    2.4870 H       1  UNL1        0.0263
     31 H           5.7082   -2.7264    1.7083 H       1  UNL1        0.0230
     32 H           5.2819   -2.0274    3.3497 H       1  UNL1        0.0230
     33 H           4.0155   -2.7727    2.2739 H       1  UNL1        0.0230
     34 H           1.3666    2.5437   -0.4620 H       1  UNL1        0.0496
     35 H           0.6694    1.6290   -1.8615 H       1  UNL1        0.0496
     36 H           2.8399    2.7171   -3.9702 H       1  UNL1        0.2416
     37 H           4.5681    3.3009   -2.0420 H       1  UNL1        0.1274
     38 H          -0.6830    0.1773   -1.4094 H       1  UNL1        0.1495
     39 H          -1.6130   -0.3689    1.4296 H       1  UNL1        0.0600
     40 H          -4.9117   -3.3543    1.1565 H       1  UNL1        0.0428
     41 H          -4.3895   -1.7658    1.7884 H       1  UNL1        0.0428
     42 H          -5.5657   -1.8777    0.4036 H       1  UNL1        0.0428
     43 H          -2.5003   -3.9377   -0.8668 H       1  UNL1        0.0428
     44 H          -3.4234   -2.9355   -2.0473 H       1  UNL1        0.0428
     45 H          -4.3244   -4.0933   -0.9337 H       1  UNL1        0.0428
     46 H          -3.0818    0.1884   -1.7868 H       1  UNL1        0.0236
     47 H          -2.0227    1.6954   -1.6956 H       1  UNL1        0.0236
     48 H          -3.7571    1.8731   -1.3956 H       1  UNL1        0.0236
     49 H          -2.3510    3.0627    0.2014 H       1  UNL1        0.0236
     50 H          -0.8299    2.0705    0.3801 H       1  UNL1        0.0236
     51 H          -2.0006    2.2716    1.7782 H       1  UNL1        0.0236
     52 H          -3.8936    0.5719    1.9609 H       1  UNL1        0.0236
     53 H          -4.7648    0.5347    0.3146 H       1  UNL1        0.0236
     54 H          -4.2892    2.0542    1.0923 H       1  UNL1        0.0236
@<TRIPOS>BOND
     1     1     2    1
     2     2     3    1
     3     3     4    1
     4     4     5    1
     5     1     6    1
     6     6     7    1
     7     7     8    1
     8     7     9   am
     9     9    10    2
    10     1    11    1
    11    11    12    2
    12    11    13   am
    13    13    14    1
    14    14    15    1
    15    15    16    2
    16    15    17   am
    17    17    18    1
    18    17    19    1
    19    14    20    1
    20    20    21    1
    21    20    22    1
    22    20    23    1
    23     1    24    1
    24     2    25    1
    25     2    26    1
    26     3    27    1
    27     3    28    1
    28     4    29    1
    29     4    30    1
    30     5    31    1
    31     5    32    1
    32     5    33    1
    33     6    34    1
    34     6    35    1
    35     8    36    1
    36     9    37    1
    37    13    38    1
    38    14    39    1
    39    18    40    1
    40    18    41    1
    41    18    42    1
    42    19    43    1
    43    19    44    1
    44    19    45    1
    45    21    46    1
    46    21    47    1
    47    21    48    1
    48    22    49    1
    49    22    50    1
    50    22    51    1
    51    23    52    1
    52    23    53    1
    53    23    54    1
