
     RDKit          3D

 40 41  0  0  0  0  0  0  0  0999 V2000
   -2.1699    0.7520   -2.2815 C   0  0  0  0  0  0  0  0  0  0  0  0
   -1.8202    1.1995   -0.8505 C   0  0  0  0  0  0  0  0  0  0  0  0
   -2.0481    0.1564    0.0774 N   0  0  0  0  0  0  0  0  0  0  0  0
   -3.4050    0.1666    0.6772 C   0  0  0  0  0  0  0  0  0  0  0  0
   -3.4288    1.0198    1.9100 C   0  0  0  0  0  0  0  0  0  0  0  0
   -1.1537   -0.8238    0.4813 C   0  0  0  0  0  0  0  0  0  0  0  0
   -1.7082   -1.7485    1.2323 O   0  0  0  0  0  0  0  0  0  0  0  0
    0.2874   -1.0029    0.2087 C   0  0  2  0  0  0  0  0  0  0  0  0
    1.0693    0.1783   -0.2028 C   0  0  0  0  0  0  0  0  0  0  0  0
    1.7501    0.2684   -1.3820 C   0  0  0  0  0  0  0  0  0  0  0  0
    2.5305    1.3678   -1.6566 C   0  0  0  0  0  0  0  0  0  0  0  0
    2.6785    2.4287   -0.7866 C   0  0  0  0  0  0  0  0  0  0  0  0
    1.9834    2.3201    0.4008 C   0  0  0  0  0  0  0  0  0  0  0  0
    1.1983    1.2436    0.7087 C   0  0  0  0  0  0  0  0  0  0  0  0
    0.6667   -2.2677   -0.4961 C   0  0  0  0  0  0  0  0  0  0  0  0
    0.9423   -2.0951    0.9762 C   0  0  1  0  0  0  0  0  0  0  0  0
    2.3668   -2.0376    1.4263 C   0  0  0  0  0  0  0  0  0  0  0  0
    3.2020   -1.9052    0.2569 N   0  0  0  0  0  0  0  0  0  0  0  0
   -2.9284   -0.0261   -2.1949 H   0  0  0  0  0  0  0  0  0  0  0  0
   -1.2599    0.3617   -2.7896 H   0  0  0  0  0  0  0  0  0  0  0  0
   -2.5254    1.6307   -2.8139 H   0  0  0  0  0  0  0  0  0  0  0  0
   -0.7909    1.5310   -0.9112 H   0  0  0  0  0  0  0  0  0  0  0  0
   -2.4926    2.0912   -0.6618 H   0  0  0  0  0  0  0  0  0  0  0  0
   -3.6529   -0.8731    1.0071 H   0  0  0  0  0  0  0  0  0  0  0  0
   -4.0973    0.5727   -0.0661 H   0  0  0  0  0  0  0  0  0  0  0  0
   -2.9276    1.9912    1.7805 H   0  0  0  0  0  0  0  0  0  0  0  0
   -4.4578    1.2162    2.1917 H   0  0  0  0  0  0  0  0  0  0  0  0
   -2.9290    0.5121    2.7728 H   0  0  0  0  0  0  0  0  0  0  0  0
    1.6687   -0.5530   -2.1233 H   0  0  0  0  0  0  0  0  0  0  0  0
    3.0604    1.3955   -2.6228 H   0  0  0  0  0  0  0  0  0  0  0  0
    3.3066    3.2920   -1.0363 H   0  0  0  0  0  0  0  0  0  0  0  0
    2.0612    3.1256    1.1273 H   0  0  0  0  0  0  0  0  0  0  0  0
    0.6504    1.1801    1.6643 H   0  0  0  0  0  0  0  0  0  0  0  0
    1.5381   -2.3210   -1.1625 H   0  0  0  0  0  0  0  0  0  0  0  0
   -0.1310   -2.9789   -0.8178 H   0  0  0  0  0  0  0  0  0  0  0  0
    0.3008   -2.7511    1.6090 H   0  0  0  0  0  0  0  0  0  0  0  0
    2.5901   -1.2854    2.2080 H   0  0  0  0  0  0  0  0  0  0  0  0
    2.6588   -3.0202    1.9074 H   0  0  0  0  0  0  0  0  0  0  0  0
    3.2790   -2.8212   -0.2390 H   0  0  0  0  0  0  0  0  0  0  0  0
    4.1371   -1.4903    0.4713 H   0  0  0  0  0  0  0  0  0  0  0  0
  1  2  1  0
  2  3  1  0
  3  4  1  0
  4  5  1  0
  3  6  1  0
  6  7  2  0
  8  6  1  1
  8  9  1  0
  9 10  2  0
 10 11  1  0
 11 12  2  0
 12 13  1  0
 13 14  2  0
  8 15  1  0
 15 16  1  0
 16 17  1  0
 17 18  1  0
 16  8  1  0
 14  9  1  0
  1 19  1  0
  1 20  1  0
  1 21  1  0
  2 22  1  0
  2 23  1  0
  4 24  1  0
  4 25  1  0
  5 26  1  0
  5 27  1  0
  5 28  1  0
 10 29  1  0
 11 30  1  0
 12 31  1  0
 13 32  1  0
 14 33  1  0
 15 34  1  0
 15 35  1  0
 16 36  1  1
 17 37  1  0
 17 38  1  0
 18 39  1  0
 18 40  1  0
M  END
$$$$
