@<TRIPOS>MOLECULE
*****
 40 41 0 0 0
SMALL
GASTEIGER

@<TRIPOS>ATOM
      1 C          -2.1699    0.7520   -2.2815 C.3     1  UNL1       -0.0493
      2 C          -1.8202    1.1995   -0.8505 C.3     1  UNL1        0.0118
      3 N          -2.0481    0.1564    0.0774 N.am    1  UNL1       -0.3013
      4 C          -3.4050    0.1666    0.6772 C.3     1  UNL1        0.0118
      5 C          -3.4288    1.0198    1.9100 C.3     1  UNL1       -0.0493
      6 C          -1.1537   -0.8238    0.4813 C.2     1  UNL1        0.2264
      7 O          -1.7082   -1.7485    1.2323 O.2     1  UNL1       -0.2746
      8 C           0.2874   -1.0029    0.2087 C.3     1  UNL1        0.0763
      9 C           1.0693    0.1783   -0.2028 C.ar    1  UNL1       -0.0321
     10 C           1.7501    0.2684   -1.3820 C.ar    1  UNL1       -0.0576
     11 C           2.5305    1.3678   -1.6566 C.ar    1  UNL1       -0.0615
     12 C           2.6785    2.4287   -0.7866 C.ar    1  UNL1       -0.0617
     13 C           1.9834    2.3201    0.4008 C.ar    1  UNL1       -0.0615
     14 C           1.1983    1.2436    0.7087 C.ar    1  UNL1       -0.0576
     15 C           0.6667   -2.2677   -0.4961 C.3     1  UNL1       -0.0294
     16 C           0.9423   -2.0951    0.9762 C.3     1  UNL1       -0.0094
     17 C           2.3668   -2.0376    1.4263 C.3     1  UNL1       -0.0028
     18 N           3.2020   -1.9052    0.2569 N.3     1  UNL1       -0.3297
     19 H          -2.9284   -0.0261   -2.1949 H       1  UNL1        0.0245
     20 H          -1.2599    0.3617   -2.7896 H       1  UNL1        0.0245
     21 H          -2.5254    1.6307   -2.8139 H       1  UNL1        0.0245
     22 H          -0.7909    1.5310   -0.9112 H       1  UNL1        0.0462
     23 H          -2.4926    2.0912   -0.6618 H       1  UNL1        0.0462
     24 H          -3.6529   -0.8731    1.0071 H       1  UNL1        0.0462
     25 H          -4.0973    0.5727   -0.0661 H       1  UNL1        0.0462
     26 H          -2.9276    1.9912    1.7805 H       1  UNL1        0.0245
     27 H          -4.4578    1.2162    2.1917 H       1  UNL1        0.0245
     28 H          -2.9290    0.5121    2.7728 H       1  UNL1        0.0245
     29 H           1.6687   -0.5530   -2.1233 H       1  UNL1        0.0621
     30 H           3.0604    1.3955   -2.6228 H       1  UNL1        0.0618
     31 H           3.3066    3.2920   -1.0363 H       1  UNL1        0.0618
     32 H           2.0612    3.1256    1.1273 H       1  UNL1        0.0618
     33 H           0.6504    1.1801    1.6643 H       1  UNL1        0.0621
     34 H           1.5381   -2.3210   -1.1625 H       1  UNL1        0.0282
     35 H          -0.1310   -2.9789   -0.8178 H       1  UNL1        0.0282
     36 H           0.3008   -2.7511    1.6090 H       1  UNL1        0.0327
     37 H           2.5901   -1.2854    2.2080 H       1  UNL1        0.0425
     38 H           2.6588   -3.0202    1.9074 H       1  UNL1        0.0425
     39 H           3.2790   -2.8212   -0.2390 H       1  UNL1        0.1182
     40 H           4.1371   -1.4903    0.4713 H       1  UNL1        0.1182
@<TRIPOS>BOND
     1     1     2    1
     2     2     3    1
     3     3     4    1
     4     4     5    1
     5     3     6   am
     6     6     7    2
     7     8     6    1
     8     8     9    1
     9     9    10   ar
    10    10    11   ar
    11    11    12   ar
    12    12    13   ar
    13    13    14   ar
    14     8    15    1
    15    15    16    1
    16    16    17    1
    17    17    18    1
    18    16     8    1
    19    14     9   ar
    20     1    19    1
    21     1    20    1
    22     1    21    1
    23     2    22    1
    24     2    23    1
    25     4    24    1
    26     4    25    1
    27     5    26    1
    28     5    27    1
    29     5    28    1
    30    10    29    1
    31    11    30    1
    32    12    31    1
    33    13    32    1
    34    14    33    1
    35    15    34    1
    36    15    35    1
    37    16    36    1
    38    17    37    1
    39    17    38    1
    40    18    39    1
    41    18    40    1
