@<TRIPOS>MOLECULE
*****
 36 38 0 0 0
SMALL
GASTEIGER

@<TRIPOS>ATOM
      1 C          -0.3942   -2.6695    0.8917 C.3     1  UNL1        0.0239
      2 N          -1.2018   -1.5286    0.5877 N.pl3   1  UNL1       -0.1975
      3 C          -0.6624   -0.2666    0.1382 C.2     1  UNL1        0.1547
      4 C           0.7830   -0.2663    0.0276 C.2     1  UNL1        0.2689
      5 O           1.5253   -1.2474    0.2882 O.2     1  UNL1       -0.2682
      6 N           1.6592    0.7659   -0.3732 N.am    1  UNL1       -0.2595
      7 C           3.0614    0.6893   -0.4556 C.ar    1  UNL1        0.1648
      8 N           3.9118    1.5227   -0.7902 N.ar    1  UNL1       -0.2327
      9 C           5.1939    1.2602   -0.8033 C.ar    1  UNL1        0.0397
     10 C           5.6814   -0.0621   -0.4129 C.ar    1  UNL1        0.0080
     11 C           7.0453   -0.4398   -0.3950 C.3     1  UNL1       -0.0319
     12 S           4.0073   -0.8535   -0.0289 S.2     1  UNL1       -0.0573
     13 C          -1.3849    0.7910   -0.1485 C.2     1  UNL1        0.1534
     14 O          -0.8678    1.9819   -0.5734 O.2     1  UNL1       -0.5040
     15 C          -2.8299    0.8345   -0.0516 C.ar    1  UNL1        0.0451
     16 C          -3.6235   -0.2090    0.3472 C.ar    1  UNL1        0.1194
     17 C          -4.9854   -0.1870    0.4438 C.ar    1  UNL1       -0.0344
     18 C          -5.6785    0.9635    0.1237 C.ar    1  UNL1       -0.0599
     19 C          -4.9584    2.0421   -0.2809 C.ar    1  UNL1       -0.0610
     20 C          -3.5869    1.9448   -0.3538 C.ar    1  UNL1       -0.0491
     21 S          -2.9019   -1.7284    0.7860 S.O2    1  UNL1        0.0754
     22 O          -3.1408   -1.9669    2.2698 O.2     1  UNL1       -0.1498
     23 O          -3.4305   -2.8663   -0.0332 O.2     1  UNL1       -0.1498
     24 H           0.3142   -2.5315    1.7356 H       1  UNL1        0.0446
     25 H           0.1844   -3.0749    0.0273 H       1  UNL1        0.0446
     26 H          -1.0771   -3.5105    1.1999 H       1  UNL1        0.0446
     27 H           1.2644    1.6732   -0.6365 H       1  UNL1        0.1571
     28 H           5.8806    2.0535   -1.1124 H       1  UNL1        0.0838
     29 H           7.1329   -1.5122   -0.0523 H       1  UNL1        0.0283
     30 H           7.6108    0.1337    0.3504 H       1  UNL1        0.0283
     31 H           7.4740   -0.4472   -1.4129 H       1  UNL1        0.0283
     32 H          -1.0956    2.8880   -0.2346 H       1  UNL1        0.2923
     33 H          -5.5983   -1.0265    0.7627 H       1  UNL1        0.0637
     34 H          -6.7385    1.0332    0.1818 H       1  UNL1        0.0618
     35 H          -5.4839    2.9506   -0.5353 H       1  UNL1        0.0618
     36 H          -3.0896    2.8659   -0.6903 H       1  UNL1        0.0625
@<TRIPOS>BOND
     1     1     2    1
     2     2     3    1
     3     3     4    1
     4     4     5    2
     5     4     6   am
     6     6     7    1
     7     7     8   ar
     8     8     9   ar
     9     9    10   ar
    10    10    11    1
    11    10    12   ar
    12     3    13    2
    13    13    14    1
    14    13    15    1
    15    15    16   ar
    16    16    17   ar
    17    17    18   ar
    18    18    19   ar
    19    19    20   ar
    20    16    21    1
    21    21    22    2
    22    21    23    2
    23    21     2    1
    24    12     7   ar
    25    20    15   ar
    26     1    24    1
    27     1    25    1
    28     1    26    1
    29     6    27    1
    30     9    28    1
    31    11    29    1
    32    11    30    1
    33    11    31    1
    34    14    32    1
    35    17    33    1
    36    18    34    1
    37    19    35    1
    38    20    36    1
