
     RDKit          3D

 36 38  0  0  0  0  0  0  0  0999 V2000
   -0.3942   -2.6695    0.8917 C   0  0  0  0  0  0  0  0  0  0  0  0
   -1.2018   -1.5286    0.5877 N   0  0  0  0  0  0  0  0  0  0  0  0
   -0.6624   -0.2666    0.1382 C   0  0  0  0  0  0  0  0  0  0  0  0
    0.7830   -0.2663    0.0276 C   0  0  0  0  0  0  0  0  0  0  0  0
    1.5253   -1.2474    0.2882 O   0  0  0  0  0  0  0  0  0  0  0  0
    1.6592    0.7659   -0.3732 N   0  0  0  0  0  0  0  0  0  0  0  0
    3.0614    0.6893   -0.4556 C   0  0  0  0  0  0  0  0  0  0  0  0
    3.9118    1.5227   -0.7902 N   0  0  0  0  0  0  0  0  0  0  0  0
    5.1939    1.2602   -0.8033 C   0  0  0  0  0  0  0  0  0  0  0  0
    5.6814   -0.0621   -0.4129 C   0  0  0  0  0  0  0  0  0  0  0  0
    7.0453   -0.4398   -0.3950 C   0  0  0  0  0  0  0  0  0  0  0  0
    4.0073   -0.8535   -0.0289 S   0  0  0  0  0  0  0  0  0  0  0  0
   -1.3849    0.7910   -0.1485 C   0  0  0  0  0  0  0  0  0  0  0  0
   -0.8678    1.9819   -0.5734 O   0  0  0  0  0  0  0  0  0  0  0  0
   -2.8299    0.8345   -0.0516 C   0  0  0  0  0  0  0  0  0  0  0  0
   -3.6235   -0.2090    0.3472 C   0  0  0  0  0  0  0  0  0  0  0  0
   -4.9854   -0.1870    0.4438 C   0  0  0  0  0  0  0  0  0  0  0  0
   -5.6785    0.9635    0.1237 C   0  0  0  0  0  0  0  0  0  0  0  0
   -4.9584    2.0421   -0.2809 C   0  0  0  0  0  0  0  0  0  0  0  0
   -3.5869    1.9448   -0.3538 C   0  0  0  0  0  0  0  0  0  0  0  0
   -2.9019   -1.7284    0.7860 S   0  0  0  0  0  0  0  0  0  0  0  0
   -3.1408   -1.9669    2.2698 O   0  0  0  0  0  0  0  0  0  0  0  0
   -3.4305   -2.8663   -0.0332 O   0  0  0  0  0  0  0  0  0  0  0  0
    0.3142   -2.5315    1.7356 H   0  0  0  0  0  0  0  0  0  0  0  0
    0.1844   -3.0749    0.0273 H   0  0  0  0  0  0  0  0  0  0  0  0
   -1.0771   -3.5105    1.1999 H   0  0  0  0  0  0  0  0  0  0  0  0
    1.2644    1.6732   -0.6365 H   0  0  0  0  0  0  0  0  0  0  0  0
    5.8806    2.0535   -1.1124 H   0  0  0  0  0  0  0  0  0  0  0  0
    7.1329   -1.5122   -0.0523 H   0  0  0  0  0  0  0  0  0  0  0  0
    7.6108    0.1337    0.3504 H   0  0  0  0  0  0  0  0  0  0  0  0
    7.4740   -0.4472   -1.4129 H   0  0  0  0  0  0  0  0  0  0  0  0
   -1.0956    2.8880   -0.2346 H   0  0  0  0  0  0  0  0  0  0  0  0
   -5.5983   -1.0265    0.7627 H   0  0  0  0  0  0  0  0  0  0  0  0
   -6.7385    1.0332    0.1818 H   0  0  0  0  0  0  0  0  0  0  0  0
   -5.4839    2.9506   -0.5353 H   0  0  0  0  0  0  0  0  0  0  0  0
   -3.0896    2.8659   -0.6903 H   0  0  0  0  0  0  0  0  0  0  0  0
  1  2  1  0
  2  3  1  0
  3  4  1  0
  4  5  2  0
  4  6  1  0
  6  7  1  0
  7  8  2  0
  8  9  1  0
  9 10  2  0
 10 11  1  0
 10 12  1  0
  3 13  2  0
 13 14  1  0
 13 15  1  0
 15 16  2  0
 16 17  1  0
 17 18  2  0
 18 19  1  0
 19 20  2  0
 16 21  1  0
 21 22  2  0
 21 23  2  0
 21  2  1  0
 12  7  1  0
 20 15  1  0
  1 24  1  0
  1 25  1  0
  1 26  1  0
  6 27  1  0
  9 28  1  0
 11 29  1  0
 11 30  1  0
 11 31  1  0
 14 32  1  0
 17 33  1  0
 18 34  1  0
 19 35  1  0
 20 36  1  0
M  END
$$$$
