@<TRIPOS>MOLECULE
*****
 63 67 0 0 0
SMALL
GASTEIGER

@<TRIPOS>ATOM
      1 C           9.6420    1.4732    1.6831 C.2     1  UNL1       -0.0938
      2 C           9.4342    0.1896    1.7452 C.2     1  UNL1       -0.0066
      3 C           8.1527   -0.3983    1.4319 C.2     1  UNL1        0.2405
      4 O           7.9675   -1.6606    1.4990 O.2     1  UNL1       -0.2705
      5 N           7.0600    0.4118    1.0394 N.am    1  UNL1       -0.2820
      6 C           5.7755   -0.1746    0.7251 C.ar    1  UNL1        0.0338
      7 C           5.5369   -0.5483   -0.5725 C.ar    1  UNL1       -0.0386
      8 C           4.3040   -1.1158   -0.8897 C.ar    1  UNL1       -0.0336
      9 C           3.3294   -1.3088    0.0579 C.ar    1  UNL1        0.1056
     10 S           1.8222   -2.0232   -0.4167 S.O2    1  UNL1        0.0609
     11 O           1.2647   -2.8715    0.7106 O.2     1  UNL1       -0.1528
     12 O           2.0428   -2.9936   -1.5687 O.2     1  UNL1       -0.1528
     13 N           0.6397   -0.9101   -0.9072 N.3     1  UNL1       -0.1736
     14 C           0.2915   -0.0027    0.1639 C.3     1  UNL1        0.0363
     15 C          -0.6315    1.0882   -0.4088 C.3     1  UNL1        0.0291
     16 N          -1.3068    0.4752   -1.5115 N.am    1  UNL1       -0.2985
     17 C          -2.6437    0.0700   -1.5496 C.2     1  UNL1        0.2218
     18 O          -2.9766   -0.4690   -2.7004 O.2     1  UNL1       -0.2750
     19 C          -3.6925    0.1539   -0.5306 C.3     1  UNL1        0.0479
     20 C          -3.3825   -0.5068    0.7736 C.3     1  UNL1       -0.0362
     21 C          -4.6007   -0.4452    1.6750 C.3     1  UNL1       -0.0396
     22 C          -5.7875   -1.1389    1.0919 C.3     1  UNL1       -0.0473
     23 C          -6.1128   -0.4065   -0.2102 C.3     1  UNL1       -0.0396
     24 C          -6.4783    0.9934    0.1511 C.3     1  UNL1       -0.0473
     25 C          -5.2377    1.6944    0.7027 C.3     1  UNL1       -0.0396
     26 C          -4.8500    1.0101    1.9814 C.3     1  UNL1       -0.0473
     27 C          -4.1225    1.5793   -0.3321 C.3     1  UNL1       -0.0362
     28 C          -4.9395   -0.5581   -1.1114 C.3     1  UNL1       -0.0362
     29 C          -0.4215    0.2808   -2.6987 C.3     1  UNL1        0.0291
     30 C           0.8978   -0.2546   -2.1469 C.3     1  UNL1        0.0363
     31 C           3.5781   -0.9335    1.3433 C.ar    1  UNL1       -0.0336
     32 C           4.8012   -0.3674    1.6722 C.ar    1  UNL1       -0.0386
     33 H           8.9301    2.2321    1.4059 H       1  UNL1        0.0536
     34 H          10.6369    1.8761    1.9314 H       1  UNL1        0.0536
     35 H          10.2679   -0.4525    2.0464 H       1  UNL1        0.0663
     36 H           7.1887    1.4365    0.9786 H       1  UNL1        0.1551
     37 H           6.2968   -0.4009   -1.3258 H       1  UNL1        0.0637
     38 H           4.1083   -1.4134   -1.9131 H       1  UNL1        0.0638
     39 H           1.1550    0.4305    0.6657 H       1  UNL1        0.0459
     40 H          -0.3069   -0.5647    0.8993 H       1  UNL1        0.0459
     41 H           0.0865    1.8802   -0.7757 H       1  UNL1        0.0478
     42 H          -1.2083    1.5532    0.3645 H       1  UNL1        0.0478
     43 H          -2.5802    0.0010    1.3295 H       1  UNL1        0.0278
     44 H          -3.1759   -1.5955    0.6346 H       1  UNL1        0.0278
     45 H          -4.3472   -0.9312    2.6540 H       1  UNL1        0.0301
     46 H          -5.5112   -2.1797    0.8794 H       1  UNL1        0.0271
     47 H          -6.6305   -1.0280    1.7853 H       1  UNL1        0.0271
     48 H          -6.9881   -0.9023   -0.6660 H       1  UNL1        0.0301
     49 H          -6.9582    1.5590   -0.6527 H       1  UNL1        0.0271
     50 H          -7.2034    0.9425    0.9980 H       1  UNL1        0.0271
     51 H          -5.4552    2.7638    0.8185 H       1  UNL1        0.0301
     52 H          -3.8974    1.4330    2.3550 H       1  UNL1        0.0271
     53 H          -5.6127    1.1680    2.7439 H       1  UNL1        0.0271
     54 H          -3.3403    2.2762   -0.0064 H       1  UNL1        0.0278
     55 H          -4.6139    1.9527   -1.2885 H       1  UNL1        0.0278
     56 H          -4.7384   -1.6193   -1.2605 H       1  UNL1        0.0278
     57 H          -5.1494   -0.0705   -2.0719 H       1  UNL1        0.0278
     58 H          -0.8769   -0.4000   -3.4148 H       1  UNL1        0.0478
     59 H          -0.2113    1.2931   -3.0965 H       1  UNL1        0.0478
     60 H           1.2603   -1.0011   -2.8718 H       1  UNL1        0.0459
     61 H           1.6563    0.5502   -2.0800 H       1  UNL1        0.0459
     62 H           2.8465   -1.0573    2.1528 H       1  UNL1        0.0638
     63 H           5.0163   -0.0642    2.6841 H       1  UNL1        0.0637
@<TRIPOS>BOND
     1     1     2    2
     2     2     3    1
     3     3     4    2
     4     3     5   am
     5     5     6    1
     6     6     7   ar
     7     7     8   ar
     8     8     9   ar
     9     9    10    1
    10    10    11    2
    11    10    12    2
    12    10    13    1
    13    13    14    1
    14    14    15    1
    15    15    16    1
    16    16    17   am
    17    17    18    2
    18    17    19    1
    19    19    20    1
    20    20    21    1
    21    21    22    1
    22    22    23    1
    23    23    24    1
    24    24    25    1
    25    25    26    1
    26    25    27    1
    27    23    28    1
    28    16    29    1
    29    29    30    1
    30     9    31   ar
    31    31    32   ar
    32    32     6   ar
    33    30    13    1
    34    27    19    1
    35    28    19    1
    36    26    21    1
    37     1    33    1
    38     1    34    1
    39     2    35    1
    40     5    36    1
    41     7    37    1
    42     8    38    1
    43    14    39    1
    44    14    40    1
    45    15    41    1
    46    15    42    1
    47    20    43    1
    48    20    44    1
    49    21    45    1
    50    22    46    1
    51    22    47    1
    52    23    48    1
    53    24    49    1
    54    24    50    1
    55    25    51    1
    56    26    52    1
    57    26    53    1
    58    27    54    1
    59    27    55    1
    60    28    56    1
    61    28    57    1
    62    29    58    1
    63    29    59    1
    64    30    60    1
    65    30    61    1
    66    31    62    1
    67    32    63    1
