@<TRIPOS>MOLECULE
*****
 15 14 0 0 0
SMALL
GASTEIGER

@<TRIPOS>ATOM
      1 F           3.1693    0.2150    0.2456 F       1  UNL1       -0.2183
      2 C           1.9907    0.0814   -0.4713 C.3     1  UNL1        0.1903
      3 O           0.9502    0.0837    0.4257 O.3     1  UNL1       -0.3288
      4 C          -0.3044   -0.0462   -0.1795 C.3     1  UNL1        0.2505
      5 C          -1.0258   -1.2455    0.4253 C.3     1  UNL1        0.4242
      6 F          -2.2623   -1.4569   -0.1007 F       1  UNL1       -0.1676
      7 F          -0.2602   -2.3796    0.2561 F       1  UNL1       -0.1676
      8 F          -1.1461   -0.9920    1.7741 F       1  UNL1       -0.1676
      9 C          -1.0342    1.2401    0.1505 C.3     1  UNL1        0.4242
     10 F          -2.3051    1.2941   -0.3697 F       1  UNL1       -0.1676
     11 F          -0.2441    2.3117   -0.2086 F       1  UNL1       -0.1676
     12 F          -1.2330    1.2158    1.5368 F       1  UNL1       -0.1676
     13 H           2.0492   -0.9646   -0.8854 H       1  UNL1        0.0926
     14 H           1.9040    0.7724   -1.3152 H       1  UNL1        0.0926
     15 H          -0.2483   -0.1293   -1.2838 H       1  UNL1        0.0780
@<TRIPOS>BOND
     1     1     2    1
     2     2     3    1
     3     3     4    1
     4     4     5    1
     5     5     6    1
     6     5     7    1
     7     5     8    1
     8     4     9    1
     9     9    10    1
    10     9    11    1
    11     9    12    1
    12     2    13    1
    13     2    14    1
    14     4    15    1
