@<TRIPOS>MOLECULE
*****
 39 41 0 0 0
SMALL
GASTEIGER

@<TRIPOS>ATOM
      1 N           6.4366   -0.9635    1.6632 N.3     1  UNL1       -0.2035
      2 S           5.2220    0.2071    2.0210 S.O2    1  UNL1        0.0574
      3 O           5.8744    1.5794    2.0723 O.2     1  UNL1       -0.1532
      4 O           4.7190   -0.0676    3.4056 O.2     1  UNL1       -0.1532
      5 C           3.9316    0.1770    0.8488 C.ar    1  UNL1        0.1239
      6 C           2.6250   -0.0851    1.1856 C.ar    1  UNL1       -0.0218
      7 C           1.5781   -0.1126    0.2548 C.ar    1  UNL1        0.0386
      8 C           0.2159   -0.3992    0.6929 C.2     1  UNL1        0.2446
      9 O          -0.0295   -0.6257    1.9212 O.2     1  UNL1       -0.2702
     10 N          -0.8627   -0.4392   -0.1878 N.am    1  UNL1       -0.3045
     11 C          -2.2334   -0.7204    0.2055 C.3     1  UNL1        0.0504
     12 C          -2.6289   -2.0216   -0.4553 C.3     1  UNL1       -0.0209
     13 C          -2.3048   -2.0530   -1.9237 C.3     1  UNL1        0.0003
     14 S          -2.9236   -0.5495   -2.7655 S.3     1  UNL1       -0.1248
     15 C          -3.5463    0.5274   -1.4576 C.ar    1  UNL1        0.0128
     16 C          -4.4184    1.5460   -1.7424 C.ar    1  UNL1       -0.0480
     17 C          -4.9044    2.3787   -0.7555 C.ar    1  UNL1       -0.0607
     18 C          -4.5285    2.2162    0.5624 C.ar    1  UNL1       -0.0614
     19 C          -3.6456    1.1826    0.8401 C.ar    1  UNL1       -0.0558
     20 C          -3.1598    0.3503   -0.1462 C.ar    1  UNL1       -0.0138
     21 C           1.8909    0.1378   -1.0603 C.ar    1  UNL1       -0.0481
     22 C           3.2210    0.4047   -1.4032 C.ar    1  UNL1       -0.0408
     23 C           4.2373    0.4273   -0.4728 C.ar    1  UNL1        0.0673
     24 CL          5.9016    0.7657   -0.9311 Cl      1  UNL1       -0.0815
     25 H           6.3362   -1.3492    0.7003 H       1  UNL1        0.1442
     26 H           7.3607   -0.5606    1.8737 H       1  UNL1        0.1442
     27 H           2.3939   -0.2818    2.2339 H       1  UNL1        0.0645
     28 H          -0.7398   -0.2643   -1.2073 H       1  UNL1        0.1496
     29 H          -2.2145   -0.8848    1.3059 H       1  UNL1        0.0549
     30 H          -3.7059   -2.2302   -0.2538 H       1  UNL1        0.0294
     31 H          -2.0058   -2.8179    0.0260 H       1  UNL1        0.0294
     32 H          -2.8349   -2.9210   -2.3651 H       1  UNL1        0.0380
     33 H          -1.2224   -2.0660   -2.0607 H       1  UNL1        0.0380
     34 H          -4.7119    1.6675   -2.7949 H       1  UNL1        0.0629
     35 H          -5.6005    3.1858   -1.0083 H       1  UNL1        0.0618
     36 H          -4.9161    2.8757    1.3294 H       1  UNL1        0.0618
     37 H          -3.3519    1.0575    1.8780 H       1  UNL1        0.0621
     38 H           1.1193    0.1287   -1.8197 H       1  UNL1        0.0625
     39 H           3.4260    0.5977   -2.4552 H       1  UNL1        0.0633
@<TRIPOS>BOND
     1     1     2    1
     2     2     3    2
     3     2     4    2
     4     2     5    1
     5     5     6   ar
     6     6     7   ar
     7     7     8    1
     8     8     9    2
     9     8    10   am
    10    10    11    1
    11    11    12    1
    12    12    13    1
    13    13    14    1
    14    14    15    1
    15    15    16   ar
    16    16    17   ar
    17    17    18   ar
    18    18    19   ar
    19    19    20   ar
    20     7    21   ar
    21    21    22   ar
    22    22    23   ar
    23    23    24    1
    24    23     5   ar
    25    20    11    1
    26    20    15   ar
    27     1    25    1
    28     1    26    1
    29     6    27    1
    30    10    28    1
    31    11    29    1
    32    12    30    1
    33    12    31    1
    34    13    32    1
    35    13    33    1
    36    16    34    1
    37    17    35    1
    38    18    36    1
    39    19    37    1
    40    21    38    1
    41    22    39    1
