
     RDKit          3D

 39 41  0  0  0  0  0  0  0  0999 V2000
    6.4366   -0.9635    1.6632 N   0  0  0  0  0  0  0  0  0  0  0  0
    5.2220    0.2071    2.0210 S   0  0  0  0  0  6  0  0  0  0  0  0
    5.8744    1.5794    2.0723 O   0  0  0  0  0  0  0  0  0  0  0  0
    4.7190   -0.0676    3.4056 O   0  0  0  0  0  0  0  0  0  0  0  0
    3.9316    0.1770    0.8488 C   0  0  0  0  0  0  0  0  0  0  0  0
    2.6250   -0.0851    1.1856 C   0  0  0  0  0  0  0  0  0  0  0  0
    1.5781   -0.1126    0.2548 C   0  0  0  0  0  0  0  0  0  0  0  0
    0.2159   -0.3992    0.6929 C   0  0  0  0  0  0  0  0  0  0  0  0
   -0.0295   -0.6257    1.9212 O   0  0  0  0  0  0  0  0  0  0  0  0
   -0.8627   -0.4392   -0.1878 N   0  0  0  0  0  0  0  0  0  0  0  0
   -2.2334   -0.7204    0.2055 C   0  0  0  0  0  0  0  0  0  0  0  0
   -2.6289   -2.0216   -0.4553 C   0  0  0  0  0  0  0  0  0  0  0  0
   -2.3048   -2.0530   -1.9237 C   0  0  0  0  0  0  0  0  0  0  0  0
   -2.9236   -0.5495   -2.7655 S   0  0  0  0  0  0  0  0  0  0  0  0
   -3.5463    0.5274   -1.4576 C   0  0  0  0  0  0  0  0  0  0  0  0
   -4.4184    1.5460   -1.7424 C   0  0  0  0  0  0  0  0  0  0  0  0
   -4.9044    2.3787   -0.7555 C   0  0  0  0  0  0  0  0  0  0  0  0
   -4.5285    2.2162    0.5624 C   0  0  0  0  0  0  0  0  0  0  0  0
   -3.6456    1.1826    0.8401 C   0  0  0  0  0  0  0  0  0  0  0  0
   -3.1598    0.3503   -0.1462 C   0  0  0  0  0  0  0  0  0  0  0  0
    1.8909    0.1378   -1.0603 C   0  0  0  0  0  0  0  0  0  0  0  0
    3.2210    0.4047   -1.4032 C   0  0  0  0  0  0  0  0  0  0  0  0
    4.2373    0.4273   -0.4728 C   0  0  0  0  0  0  0  0  0  0  0  0
    5.9016    0.7657   -0.9311 Cl  0  0  0  0  0  0  0  0  0  0  0  0
    6.3362   -1.3492    0.7003 H   0  0  0  0  0  0  0  0  0  0  0  0
    7.3607   -0.5606    1.8737 H   0  0  0  0  0  0  0  0  0  0  0  0
    2.3939   -0.2818    2.2339 H   0  0  0  0  0  0  0  0  0  0  0  0
   -0.7398   -0.2643   -1.2073 H   0  0  0  0  0  0  0  0  0  0  0  0
   -2.2145   -0.8848    1.3059 H   0  0  0  0  0  0  0  0  0  0  0  0
   -3.7059   -2.2302   -0.2538 H   0  0  0  0  0  0  0  0  0  0  0  0
   -2.0058   -2.8179    0.0260 H   0  0  0  0  0  0  0  0  0  0  0  0
   -2.8349   -2.9210   -2.3651 H   0  0  0  0  0  0  0  0  0  0  0  0
   -1.2224   -2.0660   -2.0607 H   0  0  0  0  0  0  0  0  0  0  0  0
   -4.7119    1.6675   -2.7949 H   0  0  0  0  0  0  0  0  0  0  0  0
   -5.6005    3.1858   -1.0083 H   0  0  0  0  0  0  0  0  0  0  0  0
   -4.9161    2.8757    1.3294 H   0  0  0  0  0  0  0  0  0  0  0  0
   -3.3519    1.0575    1.8780 H   0  0  0  0  0  0  0  0  0  0  0  0
    1.1193    0.1287   -1.8197 H   0  0  0  0  0  0  0  0  0  0  0  0
    3.4260    0.5977   -2.4552 H   0  0  0  0  0  0  0  0  0  0  0  0
  1  2  1  0
  2  3  2  0
  2  4  2  0
  2  5  1  0
  5  6  2  0
  6  7  1  0
  7  8  1  0
  8  9  2  0
  8 10  1  0
 10 11  1  0
 11 12  1  0
 12 13  1  0
 13 14  1  0
 14 15  1  0
 15 16  2  0
 16 17  1  0
 17 18  2  0
 18 19  1  0
 19 20  2  0
  7 21  2  0
 21 22  1  0
 22 23  2  0
 23 24  1  0
 23  5  1  0
 20 11  1  0
 20 15  1  0
  1 25  1  0
  1 26  1  0
  6 27  1  0
 10 28  1  0
 11 29  1  0
 12 30  1  0
 12 31  1  0
 13 32  1  0
 13 33  1  0
 16 34  1  0
 17 35  1  0
 18 36  1  0
 19 37  1  0
 21 38  1  0
 22 39  1  0
M  END
$$$$
