@<TRIPOS>MOLECULE
*****
 41 44 0 0 0
SMALL
GASTEIGER

@<TRIPOS>ATOM
      1 O          -0.4083    1.2487   -0.5309 O.2     1  UNL1       -0.2735
      2 C          -0.7575    0.0607   -0.4292 C.2     1  UNL1        0.2375
      3 C           0.1617   -1.0031   -0.8291 C.3     1  UNL1        0.1032
      4 N           1.3034   -1.2232   -0.0083 N.ar    1  UNL1       -0.2993
      5 C           1.1936   -2.1173    1.0233 C.ar    1  UNL1        0.2522
      6 O           0.0893   -2.6942    1.2001 O.2     1  UNL1       -0.2677
      7 C           2.3065   -2.3209    1.7984 C.ar    1  UNL1        0.0036
      8 C           3.4806   -1.6491    1.5428 C.ar    1  UNL1       -0.0475
      9 C           3.5958   -0.7438    0.5011 C.ar    1  UNL1       -0.0007
     10 C           4.7728   -0.0758    0.2559 C.ar    1  UNL1       -0.0410
     11 C           4.8753    0.8217   -0.7785 C.ar    1  UNL1        0.0555
     12 C           6.1666    1.5263   -1.0061 C.3     1  UNL1        0.4174
     13 F           6.2450    1.8570   -2.3450 F       1  UNL1       -0.1659
     14 F           7.1836    0.6054   -0.7621 F       1  UNL1       -0.1659
     15 F           6.2736    2.6546   -0.2485 F       1  UNL1       -0.1659
     16 C           3.7516    1.0349   -1.5730 C.ar    1  UNL1       -0.0481
     17 C           2.5907    0.3473   -1.2961 C.ar    1  UNL1       -0.0370
     18 C           2.4424   -0.5610   -0.2690 C.ar    1  UNL1        0.0526
     19 N          -2.0677   -0.1970    0.0796 N.am    1  UNL1       -0.2779
     20 C          -2.8979    0.8927    0.4311 C.ar    1  UNL1        0.0836
     21 S          -2.1627    2.5247    0.8268 S.2     1  UNL1       -0.0801
     22 C          -3.6643    3.3138    1.1504 C.ar    1  UNL1       -0.0078
     23 C          -4.6515    2.3450    0.9536 C.ar    1  UNL1        0.0374
     24 BR         -6.5311    2.8451    1.2276 Br      1  UNL1       -0.0490
     25 C          -4.2092    1.1142    0.5818 C.ar    1  UNL1        0.0614
     26 C          -5.2128    0.0465    0.2379 C.ar    1  UNL1        0.1648
     27 N          -6.5656    0.1409    0.3745 N.ar    1  UNL1       -0.1295
     28 N          -7.1832   -0.9167   -0.0543 N.ar    1  UNL1       -0.1377
     29 C          -6.2585   -1.7628   -0.4973 C.ar    1  UNL1        0.1175
     30 N          -5.0483   -1.1457   -0.3064 N.ar    1  UNL1       -0.3276
     31 H          -0.4226   -1.9973   -0.8554 H       1  UNL1        0.0589
     32 H           0.4435   -0.8756   -1.8852 H       1  UNL1        0.0589
     33 H           2.2511   -3.0274    2.6242 H       1  UNL1        0.0672
     34 H           4.3639   -1.8239    2.1683 H       1  UNL1        0.0626
     35 H           5.6554   -0.2323    0.8677 H       1  UNL1        0.0630
     36 H           3.8611    1.7484   -2.3738 H       1  UNL1        0.0624
     37 H           1.7583    0.5441   -1.9400 H       1  UNL1        0.0638
     38 H          -2.3484   -1.1789    0.2157 H       1  UNL1        0.1554
     39 H          -3.8275    4.3577    1.4441 H       1  UNL1        0.0705
     40 H          -6.3834   -2.7436   -0.9284 H       1  UNL1        0.1046
     41 H          -4.1651   -1.5908   -0.5883 H       1  UNL1        0.1683
@<TRIPOS>BOND
     1     1     2    2
     2     2     3    1
     3     3     4    1
     4     4     5   ar
     5     5     6    2
     6     5     7   ar
     7     7     8   ar
     8     8     9   ar
     9     9    10   ar
    10    10    11   ar
    11    11    12    1
    12    12    13    1
    13    12    14    1
    14    12    15    1
    15    11    16   ar
    16    16    17   ar
    17    17    18   ar
    18     2    19   am
    19    19    20    1
    20    20    21   ar
    21    21    22   ar
    22    22    23   ar
    23    23    24    1
    24    23    25   ar
    25    25    26    1
    26    26    27   ar
    27    27    28   ar
    28    28    29   ar
    29    29    30   ar
    30    18     4   ar
    31    25    20   ar
    32    30    26   ar
    33    18     9   ar
    34     3    31    1
    35     3    32    1
    36     7    33    1
    37     8    34    1
    38    10    35    1
    39    16    36    1
    40    17    37    1
    41    19    38    1
    42    22    39    1
    43    29    40    1
    44    30    41    1
