@<TRIPOS>MOLECULE
*****
 27 27 0 0 0
SMALL
GASTEIGER

@<TRIPOS>ATOM
      1 N1         -2.9612   -0.8805   -1.9873 N.3     1  <1>        -0.3178
      2 C1         -3.1022   -0.6878   -0.5677 C.3     1  <1>         0.1123
      3 C2         -2.0759    0.2430    0.0125 C.3     1  <1>         0.0196
      4 S1         -0.3958   -0.3871   -0.2611 S.3     1  <1>        -0.1540
      5 C3          0.7444    0.8261    0.4855 C.3     1  <1>         0.0189
      6 C4          2.1436    0.3913    0.3088 C.ar    1  <1>        -0.0376
      7 C5          2.6439   -0.4014    1.3300 C.ar    1  <1>        -0.0578
      8 C6          3.9186   -0.9001    1.3436 C.ar    1  <1>        -0.0615
      9 C7          4.7513   -0.5981    0.2841 C.ar    1  <1>        -0.0617
     10 C8          4.2513    0.1929   -0.7345 C.ar    1  <1>        -0.0615
     11 C9          2.9526    0.6995   -0.7457 C.ar    1  <1>        -0.0578
     12 C10        -4.4500   -0.1476   -0.2122 C.2     1  <1>         0.3225
     13 O1         -4.5895    0.0416    1.1761 O.3     1  <1>        -0.4795
     14 O2         -5.4505    0.1554   -0.9435 O.2     1  <1>        -0.2492
     15 H1         -3.8461   -0.6313   -2.4874 H       1  <1>         0.1190
     16 H2         -2.1502   -0.3271   -2.3623 H       1  <1>         0.1190
     17 H3         -3.0102   -1.6736   -0.0593 H       1  <1>         0.0582
     18 H4         -2.2256    0.2116    1.1277 H       1  <1>         0.0397
     19 H5         -2.2189    1.2532   -0.3806 H       1  <1>         0.0397
     20 H6          0.5359    1.7854   -0.0410 H       1  <1>         0.0425
     21 H7          0.4695    0.9122    1.5544 H       1  <1>         0.0425
     22 H8          2.0505   -0.6810    2.1946 H       1  <1>         0.0621
     23 H9          4.2995   -1.5237    2.1553 H       1  <1>         0.0618
     24 H10         5.7517   -0.9747    0.2696 H       1  <1>         0.0618
     25 H11         4.9071    0.4238   -1.5570 H       1  <1>         0.0618
     26 H12         2.5511    1.3117   -1.5245 H       1  <1>         0.0621
     27 H13        -5.4951    0.1559    1.6219 H       1  <1>         0.2951
@<TRIPOS>BOND
     1     1     2    1
     2     2     3    1
     3     3     4    1
     4     4     5    1
     5     5     6    1
     6     6     7   ar
     7     7     8   ar
     8     8     9   ar
     9     9    10   ar
    10    10    11   ar
    11     2    12    1
    12    12    13    1
    13    12    14    2
    14    11     6   ar
    15     1    15    1
    16     1    16    1
    17     2    17    1
    18     3    18    1
    19     3    19    1
    20     5    20    1
    21     5    21    1
    22     7    22    1
    23     8    23    1
    24     9    24    1
    25    10    25    1
    26    11    26    1
    27    13    27    1
