
     RDKit          3D

 27 27  0  0  0  0  0  0  0  0999 V2000
   -2.9612   -0.8805   -1.9873 N   0  0  0  0  0  0  0  0  0  0  0  0
   -3.1022   -0.6878   -0.5677 C   0  0  1  0  0  0  0  0  0  0  0  0
   -2.0759    0.2430    0.0125 C   0  0  0  0  0  0  0  0  0  0  0  0
   -0.3958   -0.3871   -0.2611 S   0  0  0  0  0  0  0  0  0  0  0  0
    0.7444    0.8261    0.4855 C   0  0  0  0  0  0  0  0  0  0  0  0
    2.1436    0.3913    0.3088 C   0  0  0  0  0  0  0  0  0  0  0  0
    2.6439   -0.4014    1.3300 C   0  0  0  0  0  0  0  0  0  0  0  0
    3.9186   -0.9001    1.3436 C   0  0  0  0  0  0  0  0  0  0  0  0
    4.7513   -0.5981    0.2841 C   0  0  0  0  0  0  0  0  0  0  0  0
    4.2513    0.1929   -0.7345 C   0  0  0  0  0  0  0  0  0  0  0  0
    2.9526    0.6995   -0.7457 C   0  0  0  0  0  0  0  0  0  0  0  0
   -4.4500   -0.1476   -0.2122 C   0  0  0  0  0  0  0  0  0  0  0  0
   -4.5895    0.0416    1.1761 O   0  0  0  0  0  0  0  0  0  0  0  0
   -5.4505    0.1554   -0.9435 O   0  0  0  0  0  0  0  0  0  0  0  0
   -3.8461   -0.6313   -2.4874 H   0  0  0  0  0  0  0  0  0  0  0  0
   -2.1502   -0.3271   -2.3623 H   0  0  0  0  0  0  0  0  0  0  0  0
   -3.0102   -1.6736   -0.0593 H   0  0  0  0  0  0  0  0  0  0  0  0
   -2.2256    0.2116    1.1277 H   0  0  0  0  0  0  0  0  0  0  0  0
   -2.2189    1.2532   -0.3806 H   0  0  0  0  0  0  0  0  0  0  0  0
    0.5359    1.7854   -0.0410 H   0  0  0  0  0  0  0  0  0  0  0  0
    0.4695    0.9122    1.5544 H   0  0  0  0  0  0  0  0  0  0  0  0
    2.0505   -0.6810    2.1946 H   0  0  0  0  0  0  0  0  0  0  0  0
    4.2995   -1.5237    2.1553 H   0  0  0  0  0  0  0  0  0  0  0  0
    5.7517   -0.9747    0.2696 H   0  0  0  0  0  0  0  0  0  0  0  0
    4.9071    0.4238   -1.5570 H   0  0  0  0  0  0  0  0  0  0  0  0
    2.5511    1.3117   -1.5245 H   0  0  0  0  0  0  0  0  0  0  0  0
   -5.4951    0.1559    1.6219 H   0  0  0  0  0  0  0  0  0  0  0  0
  1  2  1  0
  2  3  1  0
  3  4  1  0
  4  5  1  0
  5  6  1  0
  6  7  2  0
  7  8  1  0
  8  9  2  0
  9 10  1  0
 10 11  2  0
  2 12  1  0
 12 13  1  0
 12 14  2  0
 11  6  1  0
  1 15  1  0
  1 16  1  0
  2 17  1  1
  3 18  1  0
  3 19  1  0
  5 20  1  0
  5 21  1  0
  7 22  1  0
  8 23  1  0
  9 24  1  0
 10 25  1  0
 11 26  1  0
 13 27  1  0
M  END
$$$$
