@<TRIPOS>MOLECULE
*****
 72 74 0 0 0
SMALL
GASTEIGER

@<TRIPOS>ATOM
      1 C           4.1364    4.4425    1.3740 C.3     1  UNL1        0.0622
      2 O           3.3708    4.5047    0.2201 O.3     1  UNL1       -0.2829
      3 N           3.3074    3.2338   -0.3083 N.am    1  UNL1       -0.1909
      4 C           4.2587    2.7722   -1.2214 C.2     1  UNL1        0.2667
      5 O           5.1908    3.5651   -1.5450 O.2     1  UNL1       -0.2681
      6 C           4.2389    1.4630   -1.8061 C.ar    1  UNL1        0.0405
      7 C           5.3236    1.0160   -2.5785 C.ar    1  UNL1       -0.0492
      8 C           5.2704   -0.2285   -3.1214 C.ar    1  UNL1       -0.0564
      9 C           4.2082   -1.0796   -2.9563 C.ar    1  UNL1       -0.0292
     10 C           4.2241   -2.4353   -3.5857 C.3     1  UNL1       -0.0380
     11 C           3.1130   -0.6692   -2.1959 C.ar    1  UNL1        0.0372
     12 N           2.0495   -1.5708   -2.0271 N.pl3   1  UNL1       -0.2832
     13 C           0.8194   -1.3230   -1.4010 C.ar    1  UNL1        0.2254
     14 N          -0.0139   -2.3997   -1.1983 N.ar    1  UNL1       -0.1806
     15 C          -1.2086   -2.2316   -0.6271 C.ar    1  UNL1        0.2234
     16 N          -2.0192   -3.3871   -0.4599 N.pl3   1  UNL1       -0.3020
     17 C          -3.0681   -3.6459   -1.4038 C.3     1  UNL1        0.0034
     18 C          -1.7717   -4.2673    0.6395 C.3     1  UNL1        0.0195
     19 C          -2.8164   -4.2911    1.7038 C.3     1  UNL1       -0.0219
     20 C          -2.9935   -2.9115    2.3287 C.3     1  UNL1       -0.0586
     21 C          -2.3337   -5.2387    2.8120 C.3     1  UNL1       -0.0586
     22 C          -4.1412   -4.8174    1.2399 C.3     1  UNL1       -0.0586
     23 N          -1.6144   -1.0179   -0.2442 N.ar    1  UNL1       -0.1807
     24 C          -0.8318    0.0766   -0.4222 C.ar    1  UNL1        0.2237
     25 N          -1.3441    1.2946   -0.0056 N.pl3   1  UNL1       -0.2982
     26 C          -2.6005    1.3056    0.7977 C.3     1  UNL1        0.0161
     27 C          -2.8062    2.6401    1.2472 C.3     1  UNL1       -0.0243
     28 C          -2.7495    4.0066    1.5626 C.3     1  UNL1        0.0001
     29 N          -1.5315    4.5817    0.8980 N.3     1  UNL1       -0.3038
     30 C          -1.0297    5.7095    1.5808 C.3     1  UNL1       -0.0127
     31 C          -0.5144    3.5956    0.6387 C.3     1  UNL1        0.0144
     32 C          -0.6728    2.5411   -0.3691 C.3     1  UNL1        0.0276
     33 N           0.3562   -0.1274   -0.9952 N.ar    1  UNL1       -0.1806
     34 C           3.1628    0.5814   -1.6482 C.ar    1  UNL1       -0.0280
     35 H           4.7078    5.4126    1.4676 H       1  UNL1        0.0547
     36 H           3.5128    4.3216    2.2772 H       1  UNL1        0.0547
     37 H           4.8455    3.5965    1.2973 H       1  UNL1        0.0547
     38 H           2.5301    2.6223    0.0000 H       1  UNL1        0.1828
     39 H           6.1683    1.6951   -2.7081 H       1  UNL1        0.0625
     40 H           6.1110   -0.5616   -3.7124 H       1  UNL1        0.0621
     41 H           3.2720   -2.6371   -4.1346 H       1  UNL1        0.0278
     42 H           4.3488   -3.1793   -2.7762 H       1  UNL1        0.0278
     43 H           5.0970   -2.4979   -4.2713 H       1  UNL1        0.0278
     44 H           2.1704   -2.5711   -2.4162 H       1  UNL1        0.1550
     45 H          -3.9248   -2.9790   -1.1237 H       1  UNL1        0.0429
     46 H          -2.8041   -3.3269   -2.4367 H       1  UNL1        0.0429
     47 H          -3.3481   -4.7026   -1.4822 H       1  UNL1        0.0429
     48 H          -1.6805   -5.3187    0.2290 H       1  UNL1        0.0470
     49 H          -0.7869   -4.0890    1.1256 H       1  UNL1        0.0470
     50 H          -2.0242   -2.3650    2.2985 H       1  UNL1        0.0235
     51 H          -3.7652   -2.3916    1.7090 H       1  UNL1        0.0235
     52 H          -3.3816   -3.0312    3.3595 H       1  UNL1        0.0235
     53 H          -3.1683   -5.8270    3.2202 H       1  UNL1        0.0235
     54 H          -1.6144   -5.9489    2.3728 H       1  UNL1        0.0235
     55 H          -1.7872   -4.6776    3.5948 H       1  UNL1        0.0235
     56 H          -4.0463   -5.6830    0.5806 H       1  UNL1        0.0235
     57 H          -4.8110   -4.0441    0.8202 H       1  UNL1        0.0235
     58 H          -4.6767   -5.1887    2.1533 H       1  UNL1        0.0235
     59 H          -2.5450    0.5193    1.6057 H       1  UNL1        0.0465
     60 H          -3.4474    0.8742    0.1772 H       1  UNL1        0.0465
     61 H          -1.7904    2.5390    1.7832 H       1  UNL1        0.0293
     62 H          -2.7872    2.9445    0.1322 H       1  UNL1        0.0293
     63 H          -2.7494    4.2814    2.6476 H       1  UNL1        0.0427
     64 H          -3.6408    4.6115    1.2050 H       1  UNL1        0.0427
     65 H           0.0501    5.8409    1.5699 H       1  UNL1        0.0391
     66 H          -1.3653    5.7477    2.6595 H       1  UNL1        0.0391
     67 H          -1.5199    6.6282    1.1428 H       1  UNL1        0.0391
     68 H           0.0541    3.2808    1.5664 H       1  UNL1        0.0442
     69 H           0.3002    4.2694    0.1853 H       1  UNL1        0.0442
     70 H           0.3258    2.2119   -0.7203 H       1  UNL1        0.0477
     71 H          -1.1426    2.9968   -1.2693 H       1  UNL1        0.0477
     72 H           2.3444    0.9381   -1.0523 H       1  UNL1        0.0644
@<TRIPOS>BOND
     1     1     2    1
     2     2     3    1
     3     3     4   am
     4     4     5    2
     5     4     6    1
     6     6     7   ar
     7     7     8   ar
     8     8     9   ar
     9     9    10    1
    10     9    11   ar
    11    11    12    1
    12    12    13    1
    13    13    14   ar
    14    14    15   ar
    15    15    16    1
    16    16    17    1
    17    16    18    1
    18    18    19    1
    19    19    20    1
    20    19    21    1
    21    19    22    1
    22    15    23   ar
    23    23    24   ar
    24    24    25    1
    25    25    26    1
    26    26    27    1
    27    27    28    1
    28    28    29    1
    29    29    30    1
    30    29    31    1
    31    31    32    1
    32    24    33   ar
    33    11    34   ar
    34    34     6   ar
    35    33    13   ar
    36    32    25    1
    37     1    35    1
    38     1    36    1
    39     1    37    1
    40     3    38    1
    41     7    39    1
    42     8    40    1
    43    10    41    1
    44    10    42    1
    45    10    43    1
    46    12    44    1
    47    17    45    1
    48    17    46    1
    49    17    47    1
    50    18    48    1
    51    18    49    1
    52    20    50    1
    53    20    51    1
    54    20    52    1
    55    21    53    1
    56    21    54    1
    57    21    55    1
    58    22    56    1
    59    22    57    1
    60    22    58    1
    61    26    59    1
    62    26    60    1
    63    27    61    1
    64    27    62    1
    65    28    63    1
    66    28    64    1
    67    30    65    1
    68    30    66    1
    69    30    67    1
    70    31    68    1
    71    31    69    1
    72    32    70    1
    73    32    71    1
    74    34    72    1
