@<TRIPOS>MOLECULE
*****
 43 45 0 0 0
SMALL
GASTEIGER

@<TRIPOS>ATOM
      1 O           3.0923    1.7440    0.4688 O.2     1  UNL1       -0.2956
      2 C           3.7051    1.7011   -0.5839 C.2     1  UNL1        0.1536
      3 C           4.8644    2.5923   -0.7834 C.3     1  UNL1        0.0799
      4 N           5.0433    3.3974    0.4054 N.3     1  UNL1       -0.1971
      5 O           5.2656    2.6455    1.4867 O.3     1  UNL1       -0.3146
      6 C           3.2451    0.7358   -1.6313 C.3     1  UNL1        0.0344
      7 C           2.0870   -0.0137   -1.1521 C.ar    1  UNL1       -0.0144
      8 C           0.7692    0.1701   -1.5106 C.ar    1  UNL1        0.0203
      9 N          -0.0181   -0.7043   -0.8677 N.ar    1  UNL1       -0.2526
     10 C          -1.4512   -0.7560   -1.0391 C.2     1  UNL1        0.4202
     11 O          -2.0376    0.0288   -1.8159 O.2     1  UNL1       -0.2227
     12 O          -2.2174   -1.6692   -0.3541 O.3     1  UNL1       -0.4434
     13 C          -3.6083   -1.8397   -0.4158 C.3     1  UNL1        0.1193
     14 C          -4.4131   -0.6839   -0.0371 C.ar    1  UNL1       -0.0102
     15 C          -4.8852    0.1805   -0.9928 C.ar    1  UNL1       -0.0554
     16 C          -5.6435    1.3027   -0.6310 C.ar    1  UNL1       -0.0614
     17 C          -5.8968    1.5055    0.7039 C.ar    1  UNL1       -0.0617
     18 C          -5.4330    0.6520    1.6642 C.ar    1  UNL1       -0.0614
     19 C          -4.6881   -0.4477    1.2944 C.ar    1  UNL1       -0.0554
     20 C           0.7691   -1.4571   -0.0938 C.ar    1  UNL1        0.0599
     21 C           0.4846   -2.4873    0.7590 C.ar    1  UNL1       -0.0360
     22 C           1.4566   -3.1561    1.4863 C.ar    1  UNL1       -0.0458
     23 C           2.7561   -2.7301    1.3113 C.ar    1  UNL1        0.0186
     24 BR          4.1343   -3.6154    2.2888 Br      1  UNL1       -0.0503
     25 C           3.0784   -1.6982    0.4625 C.ar    1  UNL1       -0.0383
     26 C           2.0776   -1.0644   -0.2387 C.ar    1  UNL1        0.0050
     27 H           5.7783    1.9443   -0.8556 H       1  UNL1        0.0526
     28 H           4.7861    3.2300   -1.6768 H       1  UNL1        0.0526
     29 H           4.2705    4.0841    0.5584 H       1  UNL1        0.1540
     30 H           5.3938    3.1517    2.3028 H       1  UNL1        0.2363
     31 H           2.9423    1.2820   -2.5627 H       1  UNL1        0.0391
     32 H           4.0662    0.0544   -1.9594 H       1  UNL1        0.0391
     33 H           0.4105    0.9161   -2.2139 H       1  UNL1        0.0818
     34 H          -3.8298   -2.6717    0.3222 H       1  UNL1        0.0749
     35 H          -3.9426   -2.2676   -1.3871 H       1  UNL1        0.0749
     36 H          -4.7104    0.0381   -2.0424 H       1  UNL1        0.0621
     37 H          -6.0131    1.9824   -1.3889 H       1  UNL1        0.0618
     38 H          -6.4851    2.3709    1.0196 H       1  UNL1        0.0618
     39 H          -5.6237    0.7967    2.7307 H       1  UNL1        0.0618
     40 H          -4.3216   -1.1214    2.0504 H       1  UNL1        0.0621
     41 H          -0.5681   -2.7887    0.8630 H       1  UNL1        0.0639
     42 H           1.1937   -3.9692    2.1539 H       1  UNL1        0.0629
     43 H           4.1168   -1.3650    0.3278 H       1  UNL1        0.0635
@<TRIPOS>BOND
     1     1     2    2
     2     2     3    1
     3     3     4    1
     4     4     5    1
     5     2     6    1
     6     6     7    1
     7     7     8   ar
     8     8     9   ar
     9     9    10   am
    10    10    11    2
    11    10    12    1
    12    12    13    1
    13    13    14    1
    14    14    15   ar
    15    15    16   ar
    16    16    17   ar
    17    17    18   ar
    18    18    19   ar
    19     9    20   ar
    20    20    21   ar
    21    21    22   ar
    22    22    23   ar
    23    23    24    1
    24    23    25   ar
    25    25    26   ar
    26    26     7   ar
    27    19    14   ar
    28    26    20   ar
    29     3    27    1
    30     3    28    1
    31     4    29    1
    32     5    30    1
    33     6    31    1
    34     6    32    1
    35     8    33    1
    36    13    34    1
    37    13    35    1
    38    15    36    1
    39    16    37    1
    40    17    38    1
    41    18    39    1
    42    19    40    1
    43    21    41    1
    44    22    42    1
    45    25    43    1
