
     RDKit          3D

 43 45  0  0  0  0  0  0  0  0999 V2000
    3.0923    1.7440    0.4688 O   0  0  0  0  0  0  0  0  0  0  0  0
    3.7051    1.7011   -0.5839 C   0  0  0  0  0  0  0  0  0  0  0  0
    4.8644    2.5923   -0.7834 C   0  0  0  0  0  0  0  0  0  0  0  0
    5.0433    3.3974    0.4054 N   0  0  0  0  0  0  0  0  0  0  0  0
    5.2656    2.6455    1.4867 O   0  0  0  0  0  0  0  0  0  0  0  0
    3.2451    0.7358   -1.6313 C   0  0  0  0  0  0  0  0  0  0  0  0
    2.0870   -0.0137   -1.1521 C   0  0  0  0  0  0  0  0  0  0  0  0
    0.7692    0.1701   -1.5106 C   0  0  0  0  0  0  0  0  0  0  0  0
   -0.0181   -0.7043   -0.8677 N   0  0  0  0  0  0  0  0  0  0  0  0
   -1.4512   -0.7560   -1.0391 C   0  0  0  0  0  0  0  0  0  0  0  0
   -2.0376    0.0288   -1.8159 O   0  0  0  0  0  0  0  0  0  0  0  0
   -2.2174   -1.6692   -0.3541 O   0  0  0  0  0  0  0  0  0  0  0  0
   -3.6083   -1.8397   -0.4158 C   0  0  0  0  0  0  0  0  0  0  0  0
   -4.4131   -0.6839   -0.0371 C   0  0  0  0  0  0  0  0  0  0  0  0
   -4.8852    0.1805   -0.9928 C   0  0  0  0  0  0  0  0  0  0  0  0
   -5.6435    1.3027   -0.6310 C   0  0  0  0  0  0  0  0  0  0  0  0
   -5.8968    1.5055    0.7039 C   0  0  0  0  0  0  0  0  0  0  0  0
   -5.4330    0.6520    1.6642 C   0  0  0  0  0  0  0  0  0  0  0  0
   -4.6881   -0.4477    1.2944 C   0  0  0  0  0  0  0  0  0  0  0  0
    0.7691   -1.4571   -0.0938 C   0  0  0  0  0  0  0  0  0  0  0  0
    0.4846   -2.4873    0.7590 C   0  0  0  0  0  0  0  0  0  0  0  0
    1.4566   -3.1561    1.4863 C   0  0  0  0  0  0  0  0  0  0  0  0
    2.7561   -2.7301    1.3113 C   0  0  0  0  0  0  0  0  0  0  0  0
    4.1343   -3.6154    2.2888 Br  0  0  0  0  0  0  0  0  0  0  0  0
    3.0784   -1.6982    0.4625 C   0  0  0  0  0  0  0  0  0  0  0  0
    2.0776   -1.0644   -0.2387 C   0  0  0  0  0  0  0  0  0  0  0  0
    5.7783    1.9443   -0.8556 H   0  0  0  0  0  0  0  0  0  0  0  0
    4.7861    3.2300   -1.6768 H   0  0  0  0  0  0  0  0  0  0  0  0
    4.2705    4.0841    0.5584 H   0  0  0  0  0  0  0  0  0  0  0  0
    5.3938    3.1517    2.3028 H   0  0  0  0  0  0  0  0  0  0  0  0
    2.9423    1.2820   -2.5627 H   0  0  0  0  0  0  0  0  0  0  0  0
    4.0662    0.0544   -1.9594 H   0  0  0  0  0  0  0  0  0  0  0  0
    0.4105    0.9161   -2.2139 H   0  0  0  0  0  0  0  0  0  0  0  0
   -3.8298   -2.6717    0.3222 H   0  0  0  0  0  0  0  0  0  0  0  0
   -3.9426   -2.2676   -1.3871 H   0  0  0  0  0  0  0  0  0  0  0  0
   -4.7104    0.0381   -2.0424 H   0  0  0  0  0  0  0  0  0  0  0  0
   -6.0131    1.9824   -1.3889 H   0  0  0  0  0  0  0  0  0  0  0  0
   -6.4851    2.3709    1.0196 H   0  0  0  0  0  0  0  0  0  0  0  0
   -5.6237    0.7967    2.7307 H   0  0  0  0  0  0  0  0  0  0  0  0
   -4.3216   -1.1214    2.0504 H   0  0  0  0  0  0  0  0  0  0  0  0
   -0.5681   -2.7887    0.8630 H   0  0  0  0  0  0  0  0  0  0  0  0
    1.1937   -3.9692    2.1539 H   0  0  0  0  0  0  0  0  0  0  0  0
    4.1168   -1.3650    0.3278 H   0  0  0  0  0  0  0  0  0  0  0  0
  1  2  2  0
  2  3  1  0
  3  4  1  0
  4  5  1  0
  2  6  1  0
  6  7  1  0
  7  8  2  0
  8  9  1  0
  9 10  1  0
 10 11  2  0
 10 12  1  0
 12 13  1  0
 13 14  1  0
 14 15  2  0
 15 16  1  0
 16 17  2  0
 17 18  1  0
 18 19  2  0
  9 20  1  0
 20 21  2  0
 21 22  1  0
 22 23  2  0
 23 24  1  0
 23 25  1  0
 25 26  2  0
 26  7  1  0
 19 14  1  0
 26 20  1  0
  3 27  1  0
  3 28  1  0
  4 29  1  0
  5 30  1  0
  6 31  1  0
  6 32  1  0
  8 33  1  0
 13 34  1  0
 13 35  1  0
 15 36  1  0
 16 37  1  0
 17 38  1  0
 18 39  1  0
 19 40  1  0
 21 41  1  0
 22 42  1  0
 25 43  1  0
M  END
$$$$
