@<TRIPOS>MOLECULE
*****
 27 29 0 0 0
SMALL
GASTEIGER

@<TRIPOS>ATOM
      1 O           0.0830    1.5771    1.7133 O.2     1  UNL1       -0.2909
      2 C          -0.4297    1.0253    0.7059 C.2     1  UNL1        0.1787
      3 C           0.2689    0.6849   -0.5542 C.3     1  UNL1        0.1098
      4 C          -0.5365   -0.3766   -1.2077 C.2     1  UNL1        0.1787
      5 O          -0.0587   -1.1594   -2.0684 O.2     1  UNL1       -0.2909
      6 C          -1.8790   -0.2341   -0.6073 C.ar    1  UNL1        0.0289
      7 C          -3.0564   -0.8174   -1.0635 C.ar    1  UNL1       -0.0506
      8 C          -4.2110   -0.5413   -0.3340 C.ar    1  UNL1       -0.0611
      9 C          -4.1516    0.2705    0.7749 C.ar    1  UNL1       -0.0611
     10 C          -2.9705    0.8417    1.2132 C.ar    1  UNL1       -0.0506
     11 C          -1.8046    0.5826    0.5039 C.ar    1  UNL1        0.0289
     12 C           1.6586    0.2334   -0.2880 C.ar    1  UNL1       -0.0294
     13 C           2.7307    0.8868   -0.8875 C.ar    1  UNL1       -0.0575
     14 C           4.0221    0.4601   -0.6344 C.ar    1  UNL1       -0.0615
     15 C           4.2183   -0.6110    0.2126 C.ar    1  UNL1       -0.0617
     16 C           3.1593   -1.2833    0.8264 C.ar    1  UNL1       -0.0615
     17 C           1.8623   -0.8374    0.5582 C.ar    1  UNL1       -0.0575
     18 H           0.2610    1.5452   -1.2449 H       1  UNL1        0.0511
     19 H          -3.0763   -1.4486   -1.9335 H       1  UNL1        0.0625
     20 H          -5.1706   -0.9576   -0.6238 H       1  UNL1        0.0618
     21 H          -5.0743    0.4601    1.3147 H       1  UNL1        0.0618
     22 H          -2.9439    1.4826    2.0947 H       1  UNL1        0.0625
     23 H           2.5923    1.7220   -1.5489 H       1  UNL1        0.0621
     24 H           4.9007    0.9417   -1.0823 H       1  UNL1        0.0618
     25 H           5.2111   -0.9650    0.4281 H       1  UNL1        0.0618
     26 H           3.3712   -2.1305    1.4923 H       1  UNL1        0.0618
     27 H           1.0235   -1.3518    1.0297 H       1  UNL1        0.0621
@<TRIPOS>BOND
     1     1     2    2
     2     2     3    1
     3     3     4    1
     4     4     5    2
     5     4     6    1
     6     6     7   ar
     7     7     8   ar
     8     8     9   ar
     9     9    10   ar
    10    10    11   ar
    11     3    12    1
    12    12    13   ar
    13    13    14   ar
    14    14    15   ar
    15    15    16   ar
    16    16    17   ar
    17    11     2    1
    18    17    12   ar
    19    11     6   ar
    20     3    18    1
    21     7    19    1
    22     8    20    1
    23     9    21    1
    24    10    22    1
    25    13    23    1
    26    14    24    1
    27    15    25    1
    28    16    26    1
    29    17    27    1
