
     RDKit          3D

 27 29  0  0  0  0  0  0  0  0999 V2000
    0.0830    1.5771    1.7133 O   0  0  0  0  0  0  0  0  0  0  0  0
   -0.4297    1.0253    0.7059 C   0  0  0  0  0  0  0  0  0  0  0  0
    0.2689    0.6849   -0.5542 C   0  0  0  0  0  0  0  0  0  0  0  0
   -0.5365   -0.3766   -1.2077 C   0  0  0  0  0  0  0  0  0  0  0  0
   -0.0587   -1.1594   -2.0684 O   0  0  0  0  0  0  0  0  0  0  0  0
   -1.8790   -0.2341   -0.6073 C   0  0  0  0  0  0  0  0  0  0  0  0
   -3.0564   -0.8174   -1.0635 C   0  0  0  0  0  0  0  0  0  0  0  0
   -4.2110   -0.5413   -0.3340 C   0  0  0  0  0  0  0  0  0  0  0  0
   -4.1516    0.2705    0.7749 C   0  0  0  0  0  0  0  0  0  0  0  0
   -2.9705    0.8417    1.2132 C   0  0  0  0  0  0  0  0  0  0  0  0
   -1.8046    0.5826    0.5039 C   0  0  0  0  0  0  0  0  0  0  0  0
    1.6586    0.2334   -0.2880 C   0  0  0  0  0  0  0  0  0  0  0  0
    2.7307    0.8868   -0.8875 C   0  0  0  0  0  0  0  0  0  0  0  0
    4.0221    0.4601   -0.6344 C   0  0  0  0  0  0  0  0  0  0  0  0
    4.2183   -0.6110    0.2126 C   0  0  0  0  0  0  0  0  0  0  0  0
    3.1593   -1.2833    0.8264 C   0  0  0  0  0  0  0  0  0  0  0  0
    1.8623   -0.8374    0.5582 C   0  0  0  0  0  0  0  0  0  0  0  0
    0.2610    1.5452   -1.2449 H   0  0  0  0  0  0  0  0  0  0  0  0
   -3.0763   -1.4486   -1.9335 H   0  0  0  0  0  0  0  0  0  0  0  0
   -5.1706   -0.9576   -0.6238 H   0  0  0  0  0  0  0  0  0  0  0  0
   -5.0743    0.4601    1.3147 H   0  0  0  0  0  0  0  0  0  0  0  0
   -2.9439    1.4826    2.0947 H   0  0  0  0  0  0  0  0  0  0  0  0
    2.5923    1.7220   -1.5489 H   0  0  0  0  0  0  0  0  0  0  0  0
    4.9007    0.9417   -1.0823 H   0  0  0  0  0  0  0  0  0  0  0  0
    5.2111   -0.9650    0.4281 H   0  0  0  0  0  0  0  0  0  0  0  0
    3.3712   -2.1305    1.4923 H   0  0  0  0  0  0  0  0  0  0  0  0
    1.0235   -1.3518    1.0297 H   0  0  0  0  0  0  0  0  0  0  0  0
  1  2  2  0
  2  3  1  0
  3  4  1  0
  4  5  2  0
  4  6  1  0
  6  7  2  0
  7  8  1  0
  8  9  2  0
  9 10  1  0
 10 11  2  0
  3 12  1  0
 12 13  2  0
 13 14  1  0
 14 15  2  0
 15 16  1  0
 16 17  2  0
 11  2  1  0
 17 12  1  0
 11  6  1  0
  3 18  1  0
  7 19  1  0
  8 20  1  0
  9 21  1  0
 10 22  1  0
 13 23  1  0
 14 24  1  0
 15 25  1  0
 16 26  1  0
 17 27  1  0
M  END
$$$$
