@<TRIPOS>MOLECULE
*****
 52 56 0 0 0
SMALL
GASTEIGER

@<TRIPOS>ATOM
      1 C           9.2426    1.3608    0.3375 C.3     1  UNL1        0.0789
      2 O           7.9854    1.9885    0.4153 O.3     1  UNL1       -0.4936
      3 C           6.8169    1.2481    0.2946 C.ar    1  UNL1        0.1381
      4 C           6.8739   -0.1185    0.0961 C.ar    1  UNL1       -0.0163
      5 C           5.7127   -0.8875   -0.0286 C.ar    1  UNL1       -0.0277
      6 C           4.5070   -0.2492    0.0513 C.ar    1  UNL1        0.1259
      7 C           3.2636   -1.0444   -0.0781 C.2     1  UNL1        0.2666
      8 O           3.3902   -2.2591   -0.2538 O.2     1  UNL1       -0.2682
      9 N           2.0077   -0.4300   -0.0022 N.am    1  UNL1       -0.2802
     10 C           0.7740   -1.0582   -0.1072 C.ar    1  UNL1        0.0343
     11 C           0.6204   -2.3972   -0.3043 C.ar    1  UNL1       -0.0370
     12 C          -0.6685   -2.9614   -0.3995 C.ar    1  UNL1       -0.0172
     13 C          -1.7815   -2.1418   -0.2910 C.ar    1  UNL1        0.1345
     14 C          -1.6507   -0.8015   -0.0960 C.ar    1  UNL1        0.0285
     15 C          -0.3965   -0.2737   -0.0052 C.ar    1  UNL1       -0.0312
     16 C          -2.8308    0.1440   -0.0213 C.3     1  UNL1        0.1217
     17 C          -2.6545    1.0044   -1.2464 C.3     1  UNL1       -0.0096
     18 C          -3.4540    2.2345   -1.3681 C.3     1  UNL1        0.0037
     19 S          -3.2854    3.2630    0.1171 S.3     1  UNL1       -0.0910
     20 C          -2.8799    2.1089    1.4464 C.2     1  UNL1        0.1478
     21 N          -2.7433    2.6784    2.7492 N.pl3   1  UNL1       -0.3380
     22 N          -2.7406    0.8996    1.1777 N.2     1  UNL1       -0.2472
     23 C          -4.1140   -0.6157   -0.0730 C.ar    1  UNL1        0.0331
     24 C          -5.2859    0.0977    0.0442 C.ar    1  UNL1       -0.0107
     25 C          -6.5041   -0.5743   -0.0436 C.ar    1  UNL1        0.1202
     26 O          -7.6927    0.1396    0.0730 O.3     1  UNL1       -0.5067
     27 C          -6.5468   -1.9383   -0.2447 C.ar    1  UNL1        0.0187
     28 C          -5.3621   -2.6299   -0.3567 C.ar    1  UNL1        0.1692
     29 F          -5.4181   -3.9795   -0.5551 F       1  UNL1       -0.2015
     30 C          -4.1309   -1.9673   -0.2695 C.ar    1  UNL1        0.1695
     31 O          -3.0100   -2.7774   -0.3872 O.3     1  UNL1       -0.4524
     32 N           4.4415    1.0662    0.2423 N.ar    1  UNL1       -0.2467
     33 C           5.5667    1.8248    0.3651 C.ar    1  UNL1        0.0700
     34 H          10.0113    2.1585    0.1343 H       1  UNL1        0.0660
     35 H           9.4916    0.8848    1.3116 H       1  UNL1        0.0660
     36 H           9.3207    0.6431   -0.5063 H       1  UNL1        0.0660
     37 H           7.8189   -0.6287    0.0320 H       1  UNL1        0.0655
     38 H           5.8239   -1.9559   -0.1831 H       1  UNL1        0.0641
     39 H           2.0357    0.6245    0.1517 H       1  UNL1        0.1552
     40 H           1.4656   -3.0784   -0.3955 H       1  UNL1        0.0637
     41 H          -0.7712   -4.0190   -0.5549 H       1  UNL1        0.0655
     42 H          -0.2767    0.7816    0.1561 H       1  UNL1        0.0641
     43 H          -1.5666    1.3113   -1.2803 H       1  UNL1        0.0303
     44 H          -2.7734    0.3233   -2.1280 H       1  UNL1        0.0303
     45 H          -4.5036    2.1247   -1.6998 H       1  UNL1        0.0381
     46 H          -2.9620    2.8313   -2.2181 H       1  UNL1        0.0381
     47 H          -3.5234    2.7133    3.4296 H       1  UNL1        0.1442
     48 H          -1.8245    3.0714    3.0204 H       1  UNL1        0.1442
     49 H          -5.3555    1.1592    0.2187 H       1  UNL1        0.0659
     50 H          -8.4775   -0.3307    0.4980 H       1  UNL1        0.2921
     51 H          -7.4967   -2.4552   -0.3131 H       1  UNL1        0.0684
     52 H           5.5113    2.8873    0.5193 H       1  UNL1        0.0867
@<TRIPOS>BOND
     1     1     2    1
     2     2     3    1
     3     3     4   ar
     4     4     5   ar
     5     5     6   ar
     6     6     7    1
     7     7     8    2
     8     7     9   am
     9     9    10    1
    10    10    11   ar
    11    11    12   ar
    12    12    13   ar
    13    13    14   ar
    14    14    15   ar
    15    14    16    1
    16    16    17    1
    17    17    18    1
    18    18    19    1
    19    19    20    1
    20    20    21    1
    21    20    22    2
    22    16    23    1
    23    23    24   ar
    24    24    25   ar
    25    25    26    1
    26    25    27   ar
    27    27    28   ar
    28    28    29    1
    29    28    30   ar
    30    30    31    1
    31     6    32   ar
    32    32    33   ar
    33    33     3   ar
    34    15    10   ar
    35    22    16    1
    36    30    23   ar
    37    31    13    1
    38     1    34    1
    39     1    35    1
    40     1    36    1
    41     4    37    1
    42     5    38    1
    43     9    39    1
    44    11    40    1
    45    12    41    1
    46    15    42    1
    47    17    43    1
    48    17    44    1
    49    18    45    1
    50    18    46    1
    51    21    47    1
    52    21    48    1
    53    24    49    1
    54    26    50    1
    55    27    51    1
    56    33    52    1
