
     RDKit          3D

 52 56  0  0  0  0  0  0  0  0999 V2000
    9.2426    1.3608    0.3375 C   0  0  0  0  0  0  0  0  0  0  0  0
    7.9854    1.9885    0.4153 O   0  0  0  0  0  0  0  0  0  0  0  0
    6.8169    1.2481    0.2946 C   0  0  0  0  0  0  0  0  0  0  0  0
    6.8739   -0.1185    0.0961 C   0  0  0  0  0  0  0  0  0  0  0  0
    5.7127   -0.8875   -0.0286 C   0  0  0  0  0  0  0  0  0  0  0  0
    4.5070   -0.2492    0.0513 C   0  0  0  0  0  0  0  0  0  0  0  0
    3.2636   -1.0444   -0.0781 C   0  0  0  0  0  0  0  0  0  0  0  0
    3.3902   -2.2591   -0.2538 O   0  0  0  0  0  0  0  0  0  0  0  0
    2.0077   -0.4300   -0.0022 N   0  0  0  0  0  0  0  0  0  0  0  0
    0.7740   -1.0582   -0.1072 C   0  0  0  0  0  0  0  0  0  0  0  0
    0.6204   -2.3972   -0.3043 C   0  0  0  0  0  0  0  0  0  0  0  0
   -0.6685   -2.9614   -0.3995 C   0  0  0  0  0  0  0  0  0  0  0  0
   -1.7815   -2.1418   -0.2910 C   0  0  0  0  0  0  0  0  0  0  0  0
   -1.6507   -0.8015   -0.0960 C   0  0  0  0  0  0  0  0  0  0  0  0
   -0.3965   -0.2737   -0.0052 C   0  0  0  0  0  0  0  0  0  0  0  0
   -2.8308    0.1440   -0.0213 C   0  0  0  0  0  0  0  0  0  0  0  0
   -2.6545    1.0044   -1.2464 C   0  0  0  0  0  0  0  0  0  0  0  0
   -3.4540    2.2345   -1.3681 C   0  0  0  0  0  0  0  0  0  0  0  0
   -3.2854    3.2630    0.1171 S   0  0  0  0  0  0  0  0  0  0  0  0
   -2.8799    2.1089    1.4464 C   0  0  0  0  0  0  0  0  0  0  0  0
   -2.7433    2.6784    2.7492 N   0  0  0  0  0  0  0  0  0  0  0  0
   -2.7406    0.8996    1.1777 N   0  0  0  0  0  0  0  0  0  0  0  0
   -4.1140   -0.6157   -0.0730 C   0  0  0  0  0  0  0  0  0  0  0  0
   -5.2859    0.0977    0.0442 C   0  0  0  0  0  0  0  0  0  0  0  0
   -6.5041   -0.5743   -0.0436 C   0  0  0  0  0  0  0  0  0  0  0  0
   -7.6927    0.1396    0.0730 O   0  0  0  0  0  0  0  0  0  0  0  0
   -6.5468   -1.9383   -0.2447 C   0  0  0  0  0  0  0  0  0  0  0  0
   -5.3621   -2.6299   -0.3567 C   0  0  0  0  0  0  0  0  0  0  0  0
   -5.4181   -3.9795   -0.5551 F   0  0  0  0  0  0  0  0  0  0  0  0
   -4.1309   -1.9673   -0.2695 C   0  0  0  0  0  0  0  0  0  0  0  0
   -3.0100   -2.7774   -0.3872 O   0  0  0  0  0  0  0  0  0  0  0  0
    4.4415    1.0662    0.2423 N   0  0  0  0  0  0  0  0  0  0  0  0
    5.5667    1.8248    0.3651 C   0  0  0  0  0  0  0  0  0  0  0  0
   10.0113    2.1585    0.1343 H   0  0  0  0  0  0  0  0  0  0  0  0
    9.4916    0.8848    1.3116 H   0  0  0  0  0  0  0  0  0  0  0  0
    9.3207    0.6431   -0.5063 H   0  0  0  0  0  0  0  0  0  0  0  0
    7.8189   -0.6287    0.0320 H   0  0  0  0  0  0  0  0  0  0  0  0
    5.8239   -1.9559   -0.1831 H   0  0  0  0  0  0  0  0  0  0  0  0
    2.0357    0.6245    0.1517 H   0  0  0  0  0  0  0  0  0  0  0  0
    1.4656   -3.0784   -0.3955 H   0  0  0  0  0  0  0  0  0  0  0  0
   -0.7712   -4.0190   -0.5549 H   0  0  0  0  0  0  0  0  0  0  0  0
   -0.2767    0.7816    0.1561 H   0  0  0  0  0  0  0  0  0  0  0  0
   -1.5666    1.3113   -1.2803 H   0  0  0  0  0  0  0  0  0  0  0  0
   -2.7734    0.3233   -2.1280 H   0  0  0  0  0  0  0  0  0  0  0  0
   -4.5036    2.1247   -1.6998 H   0  0  0  0  0  0  0  0  0  0  0  0
   -2.9620    2.8313   -2.2181 H   0  0  0  0  0  0  0  0  0  0  0  0
   -3.5234    2.7133    3.4296 H   0  0  0  0  0  0  0  0  0  0  0  0
   -1.8245    3.0714    3.0204 H   0  0  0  0  0  0  0  0  0  0  0  0
   -5.3555    1.1592    0.2187 H   0  0  0  0  0  0  0  0  0  0  0  0
   -8.4775   -0.3307    0.4980 H   0  0  0  0  0  0  0  0  0  0  0  0
   -7.4967   -2.4552   -0.3131 H   0  0  0  0  0  0  0  0  0  0  0  0
    5.5113    2.8873    0.5193 H   0  0  0  0  0  0  0  0  0  0  0  0
  1  2  1  0
  2  3  1  0
  3  4  2  0
  4  5  1  0
  5  6  2  0
  6  7  1  0
  7  8  2  0
  7  9  1  0
  9 10  1  0
 10 11  2  0
 11 12  1  0
 12 13  2  0
 13 14  1  0
 14 15  2  0
 14 16  1  0
 16 17  1  0
 17 18  1  0
 18 19  1  0
 19 20  1  0
 20 21  1  0
 20 22  2  0
 16 23  1  0
 23 24  2  0
 24 25  1  0
 25 26  1  0
 25 27  2  0
 27 28  1  0
 28 29  1  0
 28 30  2  0
 30 31  1  0
  6 32  1  0
 32 33  2  0
 33  3  1  0
 15 10  1  0
 22 16  1  0
 30 23  1  0
 31 13  1  0
  1 34  1  0
  1 35  1  0
  1 36  1  0
  4 37  1  0
  5 38  1  0
  9 39  1  0
 11 40  1  0
 12 41  1  0
 15 42  1  0
 17 43  1  0
 17 44  1  0
 18 45  1  0
 18 46  1  0
 21 47  1  0
 21 48  1  0
 24 49  1  0
 26 50  1  0
 27 51  1  0
 33 52  1  0
M  END
$$$$
