
     RDKit          3D

 55 59  0  0  0  0  0  0  0  0999 V2000
   -1.0985   -3.0659    1.3615 C   0  0  0  0  0  0  0  0  0  0  0  0
   -1.2600   -1.9717    0.3314 C   0  0  2  0  0  0  0  0  0  0  0  0
   -0.2566   -2.2116   -0.7751 C   0  0  0  0  0  0  0  0  0  0  0  0
    1.0430   -1.9452   -0.4352 O   0  0  0  0  0  0  0  0  0  0  0  0
    1.2410   -1.2998    0.7567 C   0  0  0  0  0  0  0  0  0  0  0  0
    0.2892   -0.1510    0.9742 C   0  0  1  0  0  0  0  0  0  0  0  0
    0.5468    0.9836    0.0198 C   0  0  0  0  0  0  0  0  0  0  0  0
    1.8931    1.5532    0.1292 C   0  0  0  0  0  0  0  0  0  0  0  0
    2.1459    2.5938    1.0072 C   0  0  0  0  0  0  0  0  0  0  0  0
    3.4087    3.1059    1.0848 C   0  0  0  0  0  0  0  0  0  0  0  0
    4.4255    2.6192    0.3209 C   0  0  0  0  0  0  0  0  0  0  0  0
    4.2079    1.5834   -0.5637 C   0  0  0  0  0  0  0  0  0  0  0  0
    5.2687    1.0698   -1.3660 N   0  0  0  0  0  0  0  0  0  0  0  0
    5.3349    1.0317   -2.6823 N   0  0  0  0  0  0  0  0  0  0  0  0
    6.4991    0.4703   -3.0890 C   0  0  0  0  0  0  0  0  0  0  0  0
    7.1685    0.1543   -1.9301 C   0  0  0  0  0  0  0  0  0  0  0  0
    6.3904    0.5330   -0.9177 N   0  0  0  0  0  0  0  0  0  0  0  0
    2.9270    1.0689   -0.6379 C   0  0  0  0  0  0  0  0  0  0  0  0
   -1.0658   -0.6520    0.8650 N   0  0  0  0  0  0  0  0  0  0  0  0
   -2.1651    0.1709    1.2867 C   0  0  0  0  0  0  0  0  0  0  0  0
   -2.0086    1.3230    1.7534 O   0  0  0  0  0  0  0  0  0  0  0  0
   -3.5216   -0.3437    1.1720 C   0  0  0  0  0  0  0  0  0  0  0  0
   -4.1216   -1.0574    2.2124 C   0  0  0  0  0  0  0  0  0  0  0  0
   -5.4067   -1.4981    1.9986 C   0  0  0  0  0  0  0  0  0  0  0  0
   -6.0934   -1.2633    0.8285 C   0  0  0  0  0  0  0  0  0  0  0  0
   -5.4699   -0.5539   -0.1803 C   0  0  0  0  0  0  0  0  0  0  0  0
   -4.1780   -0.0862   -0.0207 C   0  0  0  0  0  0  0  0  0  0  0  0
   -3.5198    0.6527   -1.0635 N   0  0  0  0  0  0  0  0  0  0  0  0
   -2.7855    1.7361   -0.9854 N   0  0  0  0  0  0  0  0  0  0  0  0
   -2.3472    2.1200   -2.1984 C   0  0  0  0  0  0  0  0  0  0  0  0
   -2.8597    1.1912   -3.0809 C   0  0  0  0  0  0  0  0  0  0  0  0
   -3.5660    0.3199   -2.3381 N   0  0  0  0  0  0  0  0  0  0  0  0
   -2.0097   -3.7267    1.4244 H   0  0  0  0  0  0  0  0  0  0  0  0
   -0.9088   -2.6729    2.3830 H   0  0  0  0  0  0  0  0  0  0  0  0
   -0.2668   -3.7616    1.1280 H   0  0  0  0  0  0  0  0  0  0  0  0
   -2.2697   -2.1069   -0.1141 H   0  0  0  0  0  0  0  0  0  0  0  0
   -0.5225   -1.5378   -1.6422 H   0  0  0  0  0  0  0  0  0  0  0  0
   -0.3857   -3.2461   -1.2075 H   0  0  0  0  0  0  0  0  0  0  0  0
    2.2746   -0.8600    0.7350 H   0  0  0  0  0  0  0  0  0  0  0  0
    1.2610   -1.9856    1.6331 H   0  0  0  0  0  0  0  0  0  0  0  0
    0.4567    0.2698    2.0060 H   0  0  0  0  0  0  0  0  0  0  0  0
   -0.1995    1.7829    0.0874 H   0  0  0  0  0  0  0  0  0  0  0  0
    0.4514    0.5597   -1.0121 H   0  0  0  0  0  0  0  0  0  0  0  0
    1.3560    3.0082    1.6340 H   0  0  0  0  0  0  0  0  0  0  0  0
    3.6025    3.9282    1.7804 H   0  0  0  0  0  0  0  0  0  0  0  0
    5.4194    3.0212    0.3810 H   0  0  0  0  0  0  0  0  0  0  0  0
    6.8324    0.3052   -4.1123 H   0  0  0  0  0  0  0  0  0  0  0  0
    8.1342   -0.3095   -1.8857 H   0  0  0  0  0  0  0  0  0  0  0  0
    2.7456    0.2470   -1.3379 H   0  0  0  0  0  0  0  0  0  0  0  0
   -3.5844   -1.2384    3.1217 H   0  0  0  0  0  0  0  0  0  0  0  0
   -5.9235   -2.0573    2.7702 H   0  0  0  0  0  0  0  0  0  0  0  0
   -7.1048   -1.6237    0.6906 H   0  0  0  0  0  0  0  0  0  0  0  0
   -6.0158   -0.3756   -1.0919 H   0  0  0  0  0  0  0  0  0  0  0  0
   -1.7162    2.9863   -2.4418 H   0  0  0  0  0  0  0  0  0  0  0  0
   -2.6920    1.2123   -4.1487 H   0  0  0  0  0  0  0  0  0  0  0  0
  1  2  1  0
  2  3  1  0
  3  4  1  0
  4  5  1  0
  5  6  1  0
  6  7  1  0
  7  8  1  0
  8  9  2  0
  9 10  1  0
 10 11  2  0
 11 12  1  0
 12 13  1  0
 13 14  1  0
 14 15  2  0
 15 16  1  0
 16 17  2  0
 12 18  2  0
  6 19  1  0
 19 20  1  0
 20 21  2  0
 20 22  1  0
 22 23  2  0
 23 24  1  0
 24 25  2  0
 25 26  1  0
 26 27  2  0
 27 28  1  0
 28 29  1  0
 29 30  2  0
 30 31  1  0
 31 32  2  0
 19  2  1  0
 27 22  1  0
 32 28  1  0
 18  8  1  0
 17 13  1  0
  1 33  1  0
  1 34  1  0
  1 35  1  0
  2 36  1  6
  3 37  1  0
  3 38  1  0
  5 39  1  0
  5 40  1  0
  6 41  1  1
  7 42  1  0
  7 43  1  0
  9 44  1  0
 10 45  1  0
 11 46  1  0
 15 47  1  0
 16 48  1  0
 18 49  1  0
 23 50  1  0
 24 51  1  0
 25 52  1  0
 26 53  1  0
 30 54  1  0
 31 55  1  0
M  END
$$$$
