@<TRIPOS>MOLECULE
*****
 55 59 0 0 0
SMALL
GASTEIGER

@<TRIPOS>ATOM
      1 C          -1.0985   -3.0659    1.3615 C.3     1  UNL1       -0.0443
      2 C          -1.2600   -1.9717    0.3314 C.3     1  UNL1        0.0472
      3 C          -0.2566   -2.2116   -0.7751 C.3     1  UNL1        0.0661
      4 O           1.0430   -1.9452   -0.4352 O.3     1  UNL1       -0.3761
      5 C           1.2410   -1.2998    0.7567 C.3     1  UNL1        0.0666
      6 C           0.2892   -0.1510    0.9742 C.3     1  UNL1        0.0539
      7 C           0.5468    0.9836    0.0198 C.3     1  UNL1       -0.0067
      8 C           1.8931    1.5532    0.1292 C.ar    1  UNL1       -0.0435
      9 C           2.1459    2.5938    1.0072 C.ar    1  UNL1       -0.0584
     10 C           3.4087    3.1059    1.0848 C.ar    1  UNL1       -0.0594
     11 C           4.4255    2.6192    0.3209 C.ar    1  UNL1       -0.0345
     12 C           4.2079    1.5834   -0.5637 C.ar    1  UNL1        0.0864
     13 N           5.2687    1.0698   -1.3660 N.ar    1  UNL1       -0.1503
     14 N           5.3349    1.0317   -2.6823 N.ar    1  UNL1       -0.1556
     15 C           6.4991    0.4703   -3.0890 C.ar    1  UNL1        0.0697
     16 C           7.1685    0.1543   -1.9301 C.ar    1  UNL1        0.0697
     17 N           6.3904    0.5330   -0.9177 N.ar    1  UNL1       -0.1556
     18 C           2.9270    1.0689   -0.6379 C.ar    1  UNL1       -0.0313
     19 N          -1.0658   -0.6520    0.8650 N.am    1  UNL1       -0.2869
     20 C          -2.1651    0.1709    1.2867 C.2     1  UNL1        0.2493
     21 O          -2.0086    1.3230    1.7534 O.2     1  UNL1       -0.2699
     22 C          -3.5216   -0.3437    1.1720 C.ar    1  UNL1        0.0640
     23 C          -4.1216   -1.0574    2.2124 C.ar    1  UNL1       -0.0475
     24 C          -5.4067   -1.4981    1.9986 C.ar    1  UNL1       -0.0609
     25 C          -6.0934   -1.2633    0.8285 C.ar    1  UNL1       -0.0597
     26 C          -5.4699   -0.5539   -0.1803 C.ar    1  UNL1       -0.0338
     27 C          -4.1780   -0.0862   -0.0207 C.ar    1  UNL1        0.0982
     28 N          -3.5198    0.6527   -1.0635 N.ar    1  UNL1       -0.1496
     29 N          -2.7855    1.7361   -0.9854 N.ar    1  UNL1       -0.1556
     30 C          -2.3472    2.1200   -2.1984 C.ar    1  UNL1        0.0697
     31 C          -2.8597    1.1912   -3.0809 C.ar    1  UNL1        0.0697
     32 N          -3.5660    0.3199   -2.3381 N.ar    1  UNL1       -0.1556
     33 H          -2.0097   -3.7267    1.4244 H       1  UNL1        0.0248
     34 H          -0.9088   -2.6729    2.3830 H       1  UNL1        0.0248
     35 H          -0.2668   -3.7616    1.1280 H       1  UNL1        0.0248
     36 H          -2.2697   -2.1069   -0.1141 H       1  UNL1        0.0521
     37 H          -0.5225   -1.5378   -1.6422 H       1  UNL1        0.0578
     38 H          -0.3857   -3.2461   -1.2075 H       1  UNL1        0.0578
     39 H           2.2746   -0.8600    0.7350 H       1  UNL1        0.0578
     40 H           1.2610   -1.9856    1.6331 H       1  UNL1        0.0578
     41 H           0.4567    0.2698    2.0060 H       1  UNL1        0.0526
     42 H          -0.1995    1.7829    0.0874 H       1  UNL1        0.0332
     43 H           0.4514    0.5597   -1.0121 H       1  UNL1        0.0332
     44 H           1.3560    3.0082    1.6340 H       1  UNL1        0.0620
     45 H           3.6025    3.9282    1.7804 H       1  UNL1        0.0618
     46 H           5.4194    3.0212    0.3810 H       1  UNL1        0.0639
     47 H           6.8324    0.3052   -4.1123 H       1  UNL1        0.0864
     48 H           8.1342   -0.3095   -1.8857 H       1  UNL1        0.0864
     49 H           2.7456    0.2470   -1.3379 H       1  UNL1        0.0642
     50 H          -3.5844   -1.2384    3.1217 H       1  UNL1        0.0626
     51 H          -5.9235   -2.0573    2.7702 H       1  UNL1        0.0618
     52 H          -7.1048   -1.6237    0.6906 H       1  UNL1        0.0618
     53 H          -6.0158   -0.3756   -1.0919 H       1  UNL1        0.0639
     54 H          -1.7162    2.9863   -2.4418 H       1  UNL1        0.0864
     55 H          -2.6920    1.2123   -4.1487 H       1  UNL1        0.0864
@<TRIPOS>BOND
     1     1     2    1
     2     2     3    1
     3     3     4    1
     4     4     5    1
     5     5     6    1
     6     6     7    1
     7     7     8    1
     8     8     9   ar
     9     9    10   ar
    10    10    11   ar
    11    11    12   ar
    12    12    13    1
    13    13    14   ar
    14    14    15   ar
    15    15    16   ar
    16    16    17   ar
    17    12    18   ar
    18     6    19    1
    19    19    20   am
    20    20    21    2
    21    20    22    1
    22    22    23   ar
    23    23    24   ar
    24    24    25   ar
    25    25    26   ar
    26    26    27   ar
    27    27    28    1
    28    28    29   ar
    29    29    30   ar
    30    30    31   ar
    31    31    32   ar
    32    19     2    1
    33    27    22   ar
    34    32    28   ar
    35    18     8   ar
    36    17    13   ar
    37     1    33    1
    38     1    34    1
    39     1    35    1
    40     2    36    1
    41     3    37    1
    42     3    38    1
    43     5    39    1
    44     5    40    1
    45     6    41    1
    46     7    42    1
    47     7    43    1
    48     9    44    1
    49    10    45    1
    50    11    46    1
    51    15    47    1
    52    16    48    1
    53    18    49    1
    54    23    50    1
    55    24    51    1
    56    25    52    1
    57    26    53    1
    58    30    54    1
    59    31    55    1
