@<TRIPOS>MOLECULE
*****
 48 52 0 0 0
SMALL
GASTEIGER

@<TRIPOS>ATOM
      1 C          -3.5419    0.0110   -1.8111 C.3     1  UNL1       -0.0223
      2 C          -2.6427   -0.8037   -0.9063 C.3     1  UNL1        0.1365
      3 C          -3.5452   -1.9018   -0.3141 C.3     1  UNL1       -0.0085
      4 C          -3.8447   -1.6374    1.1293 C.3     1  UNL1       -0.0258
      5 C          -3.9871   -0.2042    1.4857 C.3     1  UNL1        0.0484
      6 O          -3.1592    0.6669    0.8258 O.3     1  UNL1       -0.3697
      7 C          -2.1157   -0.0478    0.2575 C.3     1  UNL1        0.1304
      8 C          -0.8907    0.7843    0.0185 C.3     1  UNL1        0.1583
      9 C          -1.1428    2.0245   -0.7752 C.3     1  UNL1        0.1244
     10 O          -1.7374    2.8456    0.2460 O.2     1  UNL1       -0.4630
     11 C          -1.0192    2.5121    1.4113 C.2     1  UNL1        0.2762
     12 N          -0.9166    3.4281    2.5038 N.pl3   1  UNL1       -0.3134
     13 N          -0.5241    1.3376    1.3068 N.2     1  UNL1       -0.2193
     14 C           0.1415   -0.0884   -0.5408 C.ar    1  UNL1        0.0282
     15 C           1.4655    0.1285   -0.2823 C.ar    1  UNL1       -0.0449
     16 C           2.4662   -0.6900   -0.8032 C.ar    1  UNL1       -0.0172
     17 C           3.8532   -0.4147   -0.4975 C.ar    1  UNL1       -0.0138
     18 C           4.7986   -1.4183   -0.4073 C.ar    1  UNL1       -0.0186
     19 C           6.1193   -1.1631   -0.1172 C.ar    1  UNL1        0.1254
     20 F           6.9983   -2.1827   -0.0418 F       1  UNL1       -0.2054
     21 C           6.5227    0.1352    0.0923 C.ar    1  UNL1       -0.0081
     22 C           5.6060    1.1720    0.0111 C.ar    1  UNL1        0.0443
     23 CL          6.0958    2.8405    0.2744 Cl      1  UNL1       -0.0834
     24 C           4.2949    0.8926   -0.2794 C.ar    1  UNL1       -0.0355
     25 C           2.0990   -1.7473   -1.6020 C.ar    1  UNL1       -0.0506
     26 C           0.7511   -1.9643   -1.8624 C.ar    1  UNL1       -0.0190
     27 C          -0.2298   -1.1390   -1.3350 C.ar    1  UNL1        0.1271
     28 O          -1.5862   -1.3918   -1.6221 O.3     1  UNL1       -0.4829
     29 H          -3.0377    0.2350   -2.7821 H       1  UNL1        0.0269
     30 H          -4.4609   -0.5629   -2.1024 H       1  UNL1        0.0269
     31 H          -3.9303    0.9295   -1.3117 H       1  UNL1        0.0269
     32 H          -2.9695   -2.8615   -0.3664 H       1  UNL1        0.0305
     33 H          -4.4642   -2.0313   -0.8991 H       1  UNL1        0.0305
     34 H          -3.1216   -2.1823    1.7899 H       1  UNL1        0.0289
     35 H          -4.8360   -2.1361    1.3448 H       1  UNL1        0.0289
     36 H          -3.7525   -0.1082    2.5865 H       1  UNL1        0.0560
     37 H          -5.0479    0.1556    1.4081 H       1  UNL1        0.0560
     38 H          -1.8138   -0.8140    1.0303 H       1  UNL1        0.0665
     39 H          -0.1947    2.4920   -1.0338 H       1  UNL1        0.0726
     40 H          -1.7733    1.9235   -1.6445 H       1  UNL1        0.0726
     41 H          -1.6929    3.5174    3.1926 H       1  UNL1        0.1466
     42 H          -0.0795    4.0174    2.6363 H       1  UNL1        0.1466
     43 H           1.7891    0.9658    0.3528 H       1  UNL1        0.0628
     44 H           4.5190   -2.4480   -0.5652 H       1  UNL1        0.0652
     45 H           7.5542    0.3879    0.3241 H       1  UNL1        0.0661
     46 H           3.6049    1.7282   -0.3350 H       1  UNL1        0.0638
     47 H           2.8656   -2.3862   -2.0096 H       1  UNL1        0.0625
     48 H           0.5131   -2.8061   -2.4942 H       1  UNL1        0.0654
@<TRIPOS>BOND
     1     2     1    1
     2     2     3    1
     3     3     4    1
     4     4     5    1
     5     5     6    1
     6     6     7    1
     7     7     8    1
     8     8     9    1
     9     9    10    1
    10    10    11    1
    11    11    12    1
    12    11    13    2
    13     8    14    1
    14    14    15   ar
    15    15    16   ar
    16    16    17    1
    17    17    18   ar
    18    18    19   ar
    19    19    20    1
    20    19    21   ar
    21    21    22   ar
    22    22    23    1
    23    22    24   ar
    24    16    25   ar
    25    25    26   ar
    26    26    27   ar
    27    27    28    1
    28     7     2    1
    29    13     8    1
    30    27    14   ar
    31    28     2    1
    32    24    17   ar
    33     1    29    1
    34     1    30    1
    35     1    31    1
    36     3    32    1
    37     3    33    1
    38     4    34    1
    39     4    35    1
    40     5    36    1
    41     5    37    1
    42     7    38    1
    43     9    39    1
    44     9    40    1
    45    12    41    1
    46    12    42    1
    47    15    43    1
    48    18    44    1
    49    21    45    1
    50    24    46    1
    51    25    47    1
    52    26    48    1
