
     RDKit          3D

 48 52  0  0  0  0  0  0  0  0999 V2000
   -3.5419    0.0110   -1.8111 C   0  0  0  0  0  0  0  0  0  0  0  0
   -2.6427   -0.8037   -0.9063 C   0  0  2  0  0  0  0  0  0  0  0  0
   -3.5452   -1.9018   -0.3141 C   0  0  0  0  0  0  0  0  0  0  0  0
   -3.8447   -1.6374    1.1293 C   0  0  0  0  0  0  0  0  0  0  0  0
   -3.9871   -0.2042    1.4857 C   0  0  0  0  0  0  0  0  0  0  0  0
   -3.1592    0.6669    0.8258 O   0  0  0  0  0  0  0  0  0  0  0  0
   -2.1157   -0.0478    0.2575 C   0  0  2  0  0  0  0  0  0  0  0  0
   -0.8907    0.7843    0.0185 C   0  0  1  0  0  0  0  0  0  0  0  0
   -1.1428    2.0245   -0.7752 C   0  0  0  0  0  0  0  0  0  0  0  0
   -1.7374    2.8456    0.2460 O   0  0  0  0  0  0  0  0  0  0  0  0
   -1.0192    2.5121    1.4113 C   0  0  0  0  0  0  0  0  0  0  0  0
   -0.9166    3.4281    2.5038 N   0  0  0  0  0  0  0  0  0  0  0  0
   -0.5241    1.3376    1.3068 N   0  0  0  0  0  0  0  0  0  0  0  0
    0.1415   -0.0884   -0.5408 C   0  0  0  0  0  0  0  0  0  0  0  0
    1.4655    0.1285   -0.2823 C   0  0  0  0  0  0  0  0  0  0  0  0
    2.4662   -0.6900   -0.8032 C   0  0  0  0  0  0  0  0  0  0  0  0
    3.8532   -0.4147   -0.4975 C   0  0  0  0  0  0  0  0  0  0  0  0
    4.7986   -1.4183   -0.4073 C   0  0  0  0  0  0  0  0  0  0  0  0
    6.1193   -1.1631   -0.1172 C   0  0  0  0  0  0  0  0  0  0  0  0
    6.9983   -2.1827   -0.0418 F   0  0  0  0  0  0  0  0  0  0  0  0
    6.5227    0.1352    0.0923 C   0  0  0  0  0  0  0  0  0  0  0  0
    5.6060    1.1720    0.0111 C   0  0  0  0  0  0  0  0  0  0  0  0
    6.0958    2.8405    0.2744 Cl  0  0  0  0  0  0  0  0  0  0  0  0
    4.2949    0.8926   -0.2794 C   0  0  0  0  0  0  0  0  0  0  0  0
    2.0990   -1.7473   -1.6020 C   0  0  0  0  0  0  0  0  0  0  0  0
    0.7511   -1.9643   -1.8624 C   0  0  0  0  0  0  0  0  0  0  0  0
   -0.2298   -1.1390   -1.3350 C   0  0  0  0  0  0  0  0  0  0  0  0
   -1.5862   -1.3918   -1.6221 O   0  0  0  0  0  0  0  0  0  0  0  0
   -3.0377    0.2350   -2.7821 H   0  0  0  0  0  0  0  0  0  0  0  0
   -4.4609   -0.5629   -2.1024 H   0  0  0  0  0  0  0  0  0  0  0  0
   -3.9303    0.9295   -1.3117 H   0  0  0  0  0  0  0  0  0  0  0  0
   -2.9695   -2.8615   -0.3664 H   0  0  0  0  0  0  0  0  0  0  0  0
   -4.4642   -2.0313   -0.8991 H   0  0  0  0  0  0  0  0  0  0  0  0
   -3.1216   -2.1823    1.7899 H   0  0  0  0  0  0  0  0  0  0  0  0
   -4.8360   -2.1361    1.3448 H   0  0  0  0  0  0  0  0  0  0  0  0
   -3.7525   -0.1082    2.5865 H   0  0  0  0  0  0  0  0  0  0  0  0
   -5.0479    0.1556    1.4081 H   0  0  0  0  0  0  0  0  0  0  0  0
   -1.8138   -0.8140    1.0303 H   0  0  0  0  0  0  0  0  0  0  0  0
   -0.1947    2.4920   -1.0338 H   0  0  0  0  0  0  0  0  0  0  0  0
   -1.7733    1.9235   -1.6445 H   0  0  0  0  0  0  0  0  0  0  0  0
   -1.6929    3.5174    3.1926 H   0  0  0  0  0  0  0  0  0  0  0  0
   -0.0795    4.0174    2.6363 H   0  0  0  0  0  0  0  0  0  0  0  0
    1.7891    0.9658    0.3528 H   0  0  0  0  0  0  0  0  0  0  0  0
    4.5190   -2.4480   -0.5652 H   0  0  0  0  0  0  0  0  0  0  0  0
    7.5542    0.3879    0.3241 H   0  0  0  0  0  0  0  0  0  0  0  0
    3.6049    1.7282   -0.3350 H   0  0  0  0  0  0  0  0  0  0  0  0
    2.8656   -2.3862   -2.0096 H   0  0  0  0  0  0  0  0  0  0  0  0
    0.5131   -2.8061   -2.4942 H   0  0  0  0  0  0  0  0  0  0  0  0
  2  1  1  6
  2  3  1  0
  3  4  1  0
  4  5  1  0
  5  6  1  0
  6  7  1  0
  7  8  1  0
  8  9  1  6
  9 10  1  0
 10 11  1  0
 11 12  1  0
 11 13  2  0
  8 14  1  0
 14 15  2  0
 15 16  1  0
 16 17  1  0
 17 18  2  0
 18 19  1  0
 19 20  1  0
 19 21  2  0
 21 22  1  0
 22 23  1  0
 22 24  2  0
 16 25  2  0
 25 26  1  0
 26 27  2  0
 27 28  1  0
  7  2  1  0
 13  8  1  0
 27 14  1  0
 28  2  1  0
 24 17  1  0
  1 29  1  0
  1 30  1  0
  1 31  1  0
  3 32  1  0
  3 33  1  0
  4 34  1  0
  4 35  1  0
  5 36  1  0
  5 37  1  0
  7 38  1  1
  9 39  1  0
  9 40  1  0
 12 41  1  0
 12 42  1  0
 15 43  1  0
 18 44  1  0
 21 45  1  0
 24 46  1  0
 25 47  1  0
 26 48  1  0
M  END
$$$$
