
     RDKit          3D

 39 42  0  0  0  0  0  0  0  0999 V2000
   -4.6382    4.4828    0.0293 C   0  0  0  0  0  0  0  0  0  0  0  0
   -3.3722    3.6702    0.0301 C   0  0  0  0  0  0  0  0  0  0  0  0
   -2.2674    4.2635   -0.0574 O   0  0  0  0  0  0  0  0  0  0  0  0
   -3.4861    2.2782    0.1292 N   0  0  0  0  0  0  0  0  0  0  0  0
   -2.3374    1.4234    0.1377 C   0  0  0  0  0  0  0  0  0  0  0  0
   -2.4432    0.0688    0.2337 N   0  0  0  0  0  0  0  0  0  0  0  0
   -1.2143   -0.4348    0.2149 C   0  0  0  0  0  0  0  0  0  0  0  0
   -0.8574   -1.8751    0.2967 C   0  0  0  0  0  0  0  0  0  0  0  0
   -1.2935   -2.7450   -0.6783 C   0  0  0  0  0  0  0  0  0  0  0  0
   -0.9847   -4.0992   -0.6432 C   0  0  0  0  0  0  0  0  0  0  0  0
   -0.2195   -4.5812    0.3997 C   0  0  0  0  0  0  0  0  0  0  0  0
    0.1033   -5.9130    0.4646 F   0  0  0  0  0  0  0  0  0  0  0  0
    0.2249   -3.7236    1.3837 C   0  0  0  0  0  0  0  0  0  0  0  0
   -0.1039   -2.3673    1.3178 C   0  0  0  0  0  0  0  0  0  0  0  0
   -0.3334    0.6081    0.1067 C   0  0  0  0  0  0  0  0  0  0  0  0
    1.1327    0.4989    0.0508 C   0  0  0  0  0  0  0  0  0  0  0  0
    1.8642    1.1001    1.0418 C   0  0  0  0  0  0  0  0  0  0  0  0
    3.2587    1.0476    1.0680 C   0  0  0  0  0  0  0  0  0  0  0  0
    3.8800    0.3600    0.0473 C   0  0  0  0  0  0  0  0  0  0  0  0
    5.2002    0.1769   -0.1352 N   0  0  0  0  0  0  0  0  0  0  0  0
    5.3129   -0.5426   -1.2449 C   0  0  0  0  0  0  0  0  0  0  0  0
    4.0626   -0.8023   -1.7452 C   0  0  0  0  0  0  0  0  0  0  0  0
    3.1747   -0.2317   -0.9270 N   0  0  0  0  0  0  0  0  0  0  0  0
    1.8094   -0.1735   -0.9420 C   0  0  0  0  0  0  0  0  0  0  0  0
   -1.0607    1.7373    0.0617 N   0  0  0  0  0  0  0  0  0  0  0  0
   -5.2986    3.9924   -0.7294 H   0  0  0  0  0  0  0  0  0  0  0  0
   -4.4389    5.5230   -0.2304 H   0  0  0  0  0  0  0  0  0  0  0  0
   -5.0685    4.3919    1.0307 H   0  0  0  0  0  0  0  0  0  0  0  0
   -4.4587    1.8675    0.1987 H   0  0  0  0  0  0  0  0  0  0  0  0
   -1.8919   -2.3744   -1.4960 H   0  0  0  0  0  0  0  0  0  0  0  0
   -1.3080   -4.8107   -1.3882 H   0  0  0  0  0  0  0  0  0  0  0  0
    0.8277   -4.1187    2.1998 H   0  0  0  0  0  0  0  0  0  0  0  0
    0.2568   -1.7119    2.1029 H   0  0  0  0  0  0  0  0  0  0  0  0
    1.4052    1.6454    1.8541 H   0  0  0  0  0  0  0  0  0  0  0  0
    3.8165    1.5266    1.8558 H   0  0  0  0  0  0  0  0  0  0  0  0
    6.2683   -0.8598   -1.6638 H   0  0  0  0  0  0  0  0  0  0  0  0
    3.8635   -1.3639   -2.6338 H   0  0  0  0  0  0  0  0  0  0  0  0
    1.2471   -0.6451   -1.7185 H   0  0  0  0  0  0  0  0  0  0  0  0
   -0.6323    2.7113   -0.0224 H   0  0  0  0  0  0  0  0  0  0  0  0
  1  2  1  0
  2  3  2  0
  2  4  1  0
  4  5  1  0
  5  6  2  0
  6  7  1  0
  7  8  1  0
  8  9  2  0
  9 10  1  0
 10 11  2  0
 11 12  1  0
 11 13  1  0
 13 14  2  0
  7 15  2  0
 15 16  1  0
 16 17  1  0
 17 18  2  0
 18 19  1  0
 19 20  2  0
 20 21  1  0
 21 22  2  0
 22 23  1  0
 23 24  1  0
 15 25  1  0
 25  5  1  0
 14  8  1  0
 24 16  2  0
 23 19  1  0
  1 26  1  0
  1 27  1  0
  1 28  1  0
  4 29  1  0
  9 30  1  0
 10 31  1  0
 13 32  1  0
 14 33  1  0
 17 34  1  0
 18 35  1  0
 21 36  1  0
 22 37  1  0
 24 38  1  0
 25 39  1  0
M  END
$$$$
