@<TRIPOS>MOLECULE
*****
 39 42 0 0 0
SMALL
GASTEIGER

@<TRIPOS>ATOM
      1 C          -4.6382    4.4828    0.0293 C.3     1  UNL1        0.0126
      2 C          -3.3722    3.6702    0.0301 C.2     1  UNL1        0.2162
      3 O          -2.2674    4.2635   -0.0574 O.2     1  UNL1       -0.2757
      4 N          -3.4861    2.2782    0.1292 N.am    1  UNL1       -0.2562
      5 C          -2.3374    1.4234    0.1377 C.ar    1  UNL1        0.2003
      6 N          -2.4432    0.0688    0.2337 N.ar    1  UNL1       -0.2137
      7 C          -1.2143   -0.4348    0.2149 C.ar    1  UNL1        0.0985
      8 C          -0.8574   -1.8751    0.2967 C.ar    1  UNL1        0.0027
      9 C          -1.2935   -2.7450   -0.6783 C.ar    1  UNL1       -0.0498
     10 C          -0.9847   -4.0992   -0.6432 C.ar    1  UNL1       -0.0258
     11 C          -0.2195   -4.5812    0.3997 C.ar    1  UNL1        0.1234
     12 F           0.1033   -5.9130    0.4646 F       1  UNL1       -0.2055
     13 C           0.2249   -3.7236    1.3837 C.ar    1  UNL1       -0.0258
     14 C          -0.1039   -2.3673    1.3178 C.ar    1  UNL1       -0.0498
     15 C          -0.3334    0.6081    0.1067 C.ar    1  UNL1        0.0767
     16 C           1.1327    0.4989    0.0508 C.ar    1  UNL1        0.0171
     17 C           1.8642    1.1001    1.0418 C.ar    1  UNL1       -0.0477
     18 C           3.2587    1.0476    1.0680 C.ar    1  UNL1       -0.0182
     19 C           3.8800    0.3600    0.0473 C.ar    1  UNL1        0.1375
     20 N           5.2002    0.1769   -0.1352 N.ar    1  UNL1       -0.2361
     21 C           5.3129   -0.5426   -1.2449 C.ar    1  UNL1        0.0464
     22 C           4.0626   -0.8023   -1.7452 C.ar    1  UNL1        0.0293
     23 N           3.1747   -0.2317   -0.9270 N.ar    1  UNL1       -0.3060
     24 C           1.8094   -0.1735   -0.9420 C.ar    1  UNL1        0.0203
     25 N          -1.0607    1.7373    0.0617 N.ar    1  UNL1       -0.3252
     26 H          -5.2986    3.9924   -0.7294 H       1  UNL1        0.0323
     27 H          -4.4389    5.5230   -0.2304 H       1  UNL1        0.0323
     28 H          -5.0685    4.3919    1.0307 H       1  UNL1        0.0323
     29 H          -4.4587    1.8675    0.1987 H       1  UNL1        0.1576
     30 H          -1.8919   -2.3744   -1.4960 H       1  UNL1        0.0625
     31 H          -1.3080   -4.8107   -1.3882 H       1  UNL1        0.0646
     32 H           0.8277   -4.1187    2.1998 H       1  UNL1        0.0646
     33 H           0.2568   -1.7119    2.1029 H       1  UNL1        0.0625
     34 H           1.4052    1.6454    1.8541 H       1  UNL1        0.0626
     35 H           3.8165    1.5266    1.8558 H       1  UNL1        0.0654
     36 H           6.2683   -0.8598   -1.6638 H       1  UNL1        0.0845
     37 H           3.8635   -1.3639   -2.6338 H       1  UNL1        0.0829
     38 H           1.2471   -0.6451   -1.7185 H       1  UNL1        0.0820
     39 H          -0.6323    2.7113   -0.0224 H       1  UNL1        0.1686
@<TRIPOS>BOND
     1     1     2    1
     2     2     3    2
     3     2     4   am
     4     4     5    1
     5     5     6   ar
     6     6     7   ar
     7     7     8    1
     8     8     9   ar
     9     9    10   ar
    10    10    11   ar
    11    11    12    1
    12    11    13   ar
    13    13    14   ar
    14     7    15   ar
    15    15    16    1
    16    16    17   ar
    17    17    18   ar
    18    18    19   ar
    19    19    20   ar
    20    20    21   ar
    21    21    22   ar
    22    22    23   ar
    23    23    24   ar
    24    15    25   ar
    25    25     5   ar
    26    14     8   ar
    27    24    16   ar
    28    23    19   ar
    29     1    26    1
    30     1    27    1
    31     1    28    1
    32     4    29    1
    33     9    30    1
    34    10    31    1
    35    13    32    1
    36    14    33    1
    37    17    34    1
    38    18    35    1
    39    21    36    1
    40    22    37    1
    41    24    38    1
    42    25    39    1
