@<TRIPOS>MOLECULE
*****
 46 50 0 0 0
SMALL
GASTEIGER

@<TRIPOS>ATOM
      1 N          -3.6733   -1.9468   -2.3163 N.1     1  UNL1       -0.1892
      2 C          -3.2535   -2.0944   -1.2270 C.1     1  UNL1        0.1208
      3 C          -2.7572   -2.2941    0.1006 C.ar    1  UNL1        0.1618
      4 C          -3.1817   -3.2341    1.0198 C.ar    1  UNL1        0.0659
      5 N          -2.4492   -3.0675    2.1288 N.ar    1  UNL1       -0.2333
      6 C          -1.5786   -2.0420    1.9146 C.ar    1  UNL1        0.1555
      7 C          -0.6198   -1.4797    2.7291 C.ar    1  UNL1       -0.0153
      8 C           0.1209   -0.4342    2.2268 C.ar    1  UNL1       -0.0290
      9 C          -0.1009    0.0273    0.9428 C.ar    1  UNL1        0.1103
     10 C           0.6826    1.1301    0.4184 C.ar    1  UNL1        0.0967
     11 C           0.0974    2.3389    0.0290 C.ar    1  UNL1        0.0983
     12 C          -1.3300    2.6426    0.0853 C.ar    1  UNL1        0.0040
     13 C          -2.0405    2.6902    1.2684 C.ar    1  UNL1       -0.0497
     14 C          -3.3917    2.9768    1.3058 C.ar    1  UNL1       -0.0244
     15 C          -4.0940    3.2303    0.1461 C.ar    1  UNL1        0.1417
     16 F          -5.4223    3.5166    0.1289 F       1  UNL1       -0.2040
     17 C          -3.3869    3.1835   -1.0376 C.ar    1  UNL1        0.0767
     18 CL         -4.2498    3.5008   -2.5305 Cl      1  UNL1       -0.0806
     19 C          -2.0375    2.8974   -1.0760 C.ar    1  UNL1       -0.0313
     20 N           1.1155    3.1108   -0.3885 N.ar    1  UNL1       -0.2351
     21 C           2.2753    2.4076   -0.2617 C.ar    1  UNL1        0.0972
     22 N           1.9995    1.1821    0.2382 N.ar    1  UNL1       -0.3259
     23 C           2.9889    0.1678    0.4920 C.3     1  UNL1        0.0510
     24 C           3.2409   -0.6665   -0.7034 C.3     1  UNL1        0.0766
     25 C           2.0755   -1.4247   -1.2436 C.3     1  UNL1       -0.0228
     26 C           2.7835   -2.4735   -2.0914 C.3     1  UNL1       -0.0271
     27 C           4.2118   -2.3294   -1.6659 C.3     1  UNL1        0.0482
     28 O           4.1689   -1.6797   -0.4153 O.3     1  UNL1       -0.3748
     29 N          -1.0417   -0.5605    0.2102 N.ar    1  UNL1       -0.1623
     30 N          -1.7569   -1.5579    0.6730 N.ar    1  UNL1       -0.2023
     31 H          -3.9757   -3.9750    0.8560 H       1  UNL1        0.0859
     32 H          -0.4482   -1.8495    3.7473 H       1  UNL1        0.0655
     33 H           0.8856    0.0178    2.8712 H       1  UNL1        0.0641
     34 H          -1.4851    2.4909    2.1737 H       1  UNL1        0.0625
     35 H          -3.9513    3.0140    2.2390 H       1  UNL1        0.0647
     36 H          -1.4757    2.8590   -2.0048 H       1  UNL1        0.0640
     37 H           3.2483    2.7967   -0.5275 H       1  UNL1        0.1029
     38 H           2.7303   -0.4144    1.4044 H       1  UNL1        0.0518
     39 H           3.9732    0.6561    0.7652 H       1  UNL1        0.0518
     40 H           3.6480    0.0101   -1.5000 H       1  UNL1        0.0614
     41 H           1.4541   -1.8976   -0.4657 H       1  UNL1        0.0291
     42 H           1.4479   -0.7627   -1.8420 H       1  UNL1        0.0291
     43 H           2.6047   -2.2289   -3.1404 H       1  UNL1        0.0288
     44 H           2.4131   -3.4789   -1.8307 H       1  UNL1        0.0288
     45 H           4.8009   -1.6716   -2.3539 H       1  UNL1        0.0560
     46 H           4.7351   -3.2839   -1.4926 H       1  UNL1        0.0560
@<TRIPOS>BOND
     1     1     2    3
     2     2     3    1
     3     3     4   ar
     4     4     5   ar
     5     5     6   ar
     6     6     7   ar
     7     7     8   ar
     8     8     9   ar
     9     9    10    1
    10    10    11   ar
    11    11    12    1
    12    12    13   ar
    13    13    14   ar
    14    14    15   ar
    15    15    16    1
    16    15    17   ar
    17    17    18    1
    18    17    19   ar
    19    11    20   ar
    20    20    21   ar
    21    21    22   ar
    22    22    23    1
    23    23    24    1
    24    24    25    1
    25    25    26    1
    26    26    27    1
    27    27    28    1
    28     9    29   ar
    29    29    30   ar
    30    30     3   ar
    31    30     6   ar
    32    22    10   ar
    33    28    24    1
    34    19    12   ar
    35     4    31    1
    36     7    32    1
    37     8    33    1
    38    13    34    1
    39    14    35    1
    40    19    36    1
    41    21    37    1
    42    23    38    1
    43    23    39    1
    44    24    40    1
    45    25    41    1
    46    25    42    1
    47    26    43    1
    48    26    44    1
    49    27    45    1
    50    27    46    1
