
     RDKit          3D

 48 51  0  0  0  0  0  0  0  0999 V2000
   -3.9447   -1.6268   -2.6831 C   0  0  0  0  0  0  0  0  0  0  0  0
   -3.7515   -0.6989   -1.5160 C   0  0  0  0  0  0  0  0  0  0  0  0
   -5.0794    0.0195   -1.2855 C   0  0  0  0  0  0  0  0  0  0  0  0
   -3.3294   -1.3193   -0.3586 O   0  0  0  0  0  0  0  0  0  0  0  0
   -2.7616    0.4055   -1.8449 C   0  0  0  0  0  0  0  0  0  0  0  0
   -1.4059   -0.0588   -2.2155 C   0  0  0  0  0  0  0  0  0  0  0  0
   -0.6993   -0.8380   -1.2282 N   0  0  0  0  0  0  0  0  0  0  0  0
   -0.8433   -2.1999   -1.0649 C   0  0  0  0  0  0  0  0  0  0  0  0
   -0.0580   -2.5975   -0.0505 N   0  0  0  0  0  0  0  0  0  0  0  0
    0.5909   -1.5309    0.4459 C   0  0  0  0  0  0  0  0  0  0  0  0
    1.5518   -1.5655    1.5237 C   0  0  0  0  0  0  0  0  0  0  0  0
    1.3344   -0.8982    2.6972 C   0  0  0  0  0  0  0  0  0  0  0  0
    2.2754   -0.9374    3.7388 C   0  0  0  0  0  0  0  0  0  0  0  0
    3.4517   -1.6511    3.6102 C   0  0  0  0  0  0  0  0  0  0  0  0
    4.3676   -1.6874    4.6235 F   0  0  0  0  0  0  0  0  0  0  0  0
    3.6859   -2.3383    2.4182 C   0  0  0  0  0  0  0  0  0  0  0  0
    5.1844   -3.2320    2.2988 Cl  0  0  0  0  0  0  0  0  0  0  0  0
    2.7466   -2.2803    1.4202 C   0  0  0  0  0  0  0  0  0  0  0  0
    0.1784   -0.4259   -0.3071 C   0  0  0  0  0  0  0  0  0  0  0  0
    0.7346    0.8836   -0.0325 C   0  0  0  0  0  0  0  0  0  0  0  0
   -0.0232    2.0000    0.1762 C   0  0  0  0  0  0  0  0  0  0  0  0
    0.5300    3.2622    0.4580 C   0  0  0  0  0  0  0  0  0  0  0  0
    1.9019    3.3176    0.5153 C   0  0  0  0  0  0  0  0  0  0  0  0
    2.7444    4.3591    0.7694 N   0  0  0  0  0  0  0  0  0  0  0  0
    4.0110    3.8969    0.7229 C   0  0  0  0  0  0  0  0  0  0  0  0
    3.9635    2.5663    0.4402 C   0  0  0  0  0  0  0  0  0  0  0  0
    5.0564    1.6149    0.2920 C   0  0  0  0  0  0  0  0  0  0  0  0
    5.9137    0.8769    0.1951 N   0  0  0  0  0  0  0  0  0  0  0  0
    2.6429    2.2175    0.3105 N   0  0  0  0  0  0  0  0  0  0  0  0
    2.0836    1.0582    0.0492 N   0  0  0  0  0  0  0  0  0  0  0  0
   -5.0166   -1.6237   -3.0352 H   0  0  0  0  0  0  0  0  0  0  0  0
   -3.3226   -1.3959   -3.5591 H   0  0  0  0  0  0  0  0  0  0  0  0
   -3.7773   -2.6629   -2.3241 H   0  0  0  0  0  0  0  0  0  0  0  0
   -5.9036   -0.7173   -1.2252 H   0  0  0  0  0  0  0  0  0  0  0  0
   -4.9851    0.6268   -0.3630 H   0  0  0  0  0  0  0  0  0  0  0  0
   -5.3054    0.7001   -2.1358 H   0  0  0  0  0  0  0  0  0  0  0  0
   -4.0947   -1.8678   -0.0157 H   0  0  0  0  0  0  0  0  0  0  0  0
   -2.8346    1.1221   -1.0306 H   0  0  0  0  0  0  0  0  0  0  0  0
   -3.2168    0.9037   -2.7629 H   0  0  0  0  0  0  0  0  0  0  0  0
   -1.4835   -0.7244   -3.1223 H   0  0  0  0  0  0  0  0  0  0  0  0
   -0.7766    0.8209   -2.5388 H   0  0  0  0  0  0  0  0  0  0  0  0
   -1.4744   -2.8129   -1.6616 H   0  0  0  0  0  0  0  0  0  0  0  0
    0.4173   -0.3196    2.8440 H   0  0  0  0  0  0  0  0  0  0  0  0
    2.1220   -0.4212    4.6632 H   0  0  0  0  0  0  0  0  0  0  0  0
    2.9245   -2.8065    0.5005 H   0  0  0  0  0  0  0  0  0  0  0  0
   -1.1044    1.9496    0.1438 H   0  0  0  0  0  0  0  0  0  0  0  0
   -0.1240    4.1165    0.6132 H   0  0  0  0  0  0  0  0  0  0  0  0
    4.9031    4.5204    0.8912 H   0  0  0  0  0  0  0  0  0  0  0  0
  1  2  1  0
  2  3  1  0
  2  4  1  0
  2  5  1  0
  5  6  1  0
  6  7  1  0
  7  8  1  0
  8  9  2  0
  9 10  1  0
 10 11  1  0
 11 12  2  0
 12 13  1  0
 13 14  2  0
 14 15  1  0
 14 16  1  0
 16 17  1  0
 16 18  2  0
 10 19  2  0
 19 20  1  0
 20 21  1  0
 21 22  2  0
 22 23  1  0
 23 24  2  0
 24 25  1  0
 25 26  2  0
 26 27  1  0
 27 28  3  0
 26 29  1  0
 29 30  1  0
 19  7  1  0
 30 20  2  0
 18 11  1  0
 29 23  1  0
  1 31  1  0
  1 32  1  0
  1 33  1  0
  3 34  1  0
  3 35  1  0
  3 36  1  0
  4 37  1  0
  5 38  1  0
  5 39  1  0
  6 40  1  0
  6 41  1  0
  8 42  1  0
 12 43  1  0
 13 44  1  0
 18 45  1  0
 21 46  1  0
 22 47  1  0
 25 48  1  0
M  END
$$$$
