@<TRIPOS>MOLECULE
*****
 48 51 0 0 0
SMALL
GASTEIGER

@<TRIPOS>ATOM
      1 C          -3.9447   -1.6268   -2.6831 C.3     1  UNL1       -0.0363
      2 C          -3.7515   -0.6989   -1.5160 C.3     1  UNL1        0.0622
      3 C          -5.0794    0.0195   -1.2855 C.3     1  UNL1       -0.0363
      4 O          -3.3294   -1.3193   -0.3586 O.3     1  UNL1       -0.3891
      5 C          -2.7616    0.4055   -1.8449 C.3     1  UNL1       -0.0064
      6 C          -1.4059   -0.0588   -2.2155 C.3     1  UNL1        0.0273
      7 N          -0.6993   -0.8380   -1.2282 N.ar    1  UNL1       -0.3283
      8 C          -0.8433   -2.1999   -1.0649 C.ar    1  UNL1        0.0971
      9 N          -0.0580   -2.5975   -0.0505 N.ar    1  UNL1       -0.2351
     10 C           0.5909   -1.5309    0.4459 C.ar    1  UNL1        0.0983
     11 C           1.5518   -1.5655    1.5237 C.ar    1  UNL1        0.0040
     12 C           1.3344   -0.8982    2.6972 C.ar    1  UNL1       -0.0497
     13 C           2.2754   -0.9374    3.7388 C.ar    1  UNL1       -0.0244
     14 C           3.4517   -1.6511    3.6102 C.ar    1  UNL1        0.1417
     15 F           4.3676   -1.6874    4.6235 F       1  UNL1       -0.2040
     16 C           3.6859   -2.3383    2.4182 C.ar    1  UNL1        0.0767
     17 CL          5.1844   -3.2320    2.2988 Cl      1  UNL1       -0.0806
     18 C           2.7466   -2.2803    1.4202 C.ar    1  UNL1       -0.0313
     19 C           0.1784   -0.4259   -0.3071 C.ar    1  UNL1        0.0966
     20 C           0.7346    0.8836   -0.0325 C.ar    1  UNL1        0.1103
     21 C          -0.0232    2.0000    0.1762 C.ar    1  UNL1       -0.0290
     22 C           0.5300    3.2622    0.4580 C.ar    1  UNL1       -0.0153
     23 C           1.9019    3.3176    0.5153 C.ar    1  UNL1        0.1555
     24 N           2.7444    4.3591    0.7694 N.ar    1  UNL1       -0.2333
     25 C           4.0110    3.8969    0.7229 C.ar    1  UNL1        0.0659
     26 C           3.9635    2.5663    0.4402 C.ar    1  UNL1        0.1618
     27 C           5.0564    1.6149    0.2920 C.1     1  UNL1        0.1208
     28 N           5.9137    0.8769    0.1951 N.1     1  UNL1       -0.1892
     29 N           2.6429    2.2175    0.3105 N.ar    1  UNL1       -0.2023
     30 N           2.0836    1.0582    0.0492 N.ar    1  UNL1       -0.1623
     31 H          -5.0166   -1.6237   -3.0352 H       1  UNL1        0.0257
     32 H          -3.3226   -1.3959   -3.5591 H       1  UNL1        0.0257
     33 H          -3.7773   -2.6629   -2.3241 H       1  UNL1        0.0257
     34 H          -5.9036   -0.7173   -1.2252 H       1  UNL1        0.0257
     35 H          -4.9851    0.6268   -0.3630 H       1  UNL1        0.0257
     36 H          -5.3054    0.7001   -2.1358 H       1  UNL1        0.0257
     37 H          -4.0947   -1.8678   -0.0157 H       1  UNL1        0.2101
     38 H          -2.8346    1.1221   -1.0306 H       1  UNL1        0.0310
     39 H          -3.2168    0.9037   -2.7629 H       1  UNL1        0.0310
     40 H          -1.4835   -0.7244   -3.1223 H       1  UNL1        0.0493
     41 H          -0.7766    0.8209   -2.5388 H       1  UNL1        0.0493
     42 H          -1.4744   -2.8129   -1.6616 H       1  UNL1        0.1029
     43 H           0.4173   -0.3196    2.8440 H       1  UNL1        0.0625
     44 H           2.1220   -0.4212    4.6632 H       1  UNL1        0.0647
     45 H           2.9245   -2.8065    0.5005 H       1  UNL1        0.0640
     46 H          -1.1044    1.9496    0.1438 H       1  UNL1        0.0641
     47 H          -0.1240    4.1165    0.6132 H       1  UNL1        0.0655
     48 H           4.9031    4.5204    0.8912 H       1  UNL1        0.0859
@<TRIPOS>BOND
     1     1     2    1
     2     2     3    1
     3     2     4    1
     4     2     5    1
     5     5     6    1
     6     6     7    1
     7     7     8   ar
     8     8     9   ar
     9     9    10   ar
    10    10    11    1
    11    11    12   ar
    12    12    13   ar
    13    13    14   ar
    14    14    15    1
    15    14    16   ar
    16    16    17    1
    17    16    18   ar
    18    10    19   ar
    19    19    20    1
    20    20    21   ar
    21    21    22   ar
    22    22    23   ar
    23    23    24   ar
    24    24    25   ar
    25    25    26   ar
    26    26    27    1
    27    27    28    3
    28    26    29   ar
    29    29    30   ar
    30    19     7   ar
    31    30    20   ar
    32    18    11   ar
    33    29    23   ar
    34     1    31    1
    35     1    32    1
    36     1    33    1
    37     3    34    1
    38     3    35    1
    39     3    36    1
    40     4    37    1
    41     5    38    1
    42     5    39    1
    43     6    40    1
    44     6    41    1
    45     8    42    1
    46    12    43    1
    47    13    44    1
    48    18    45    1
    49    21    46    1
    50    22    47    1
    51    25    48    1
