@<TRIPOS>MOLECULE
*****
 32 34 0 0 0
SMALL
GASTEIGER

@<TRIPOS>ATOM
      1 O          -0.8143   -2.8457   -0.6136 O.2     1  UNL1       -0.2917
      2 C          -0.8553   -1.9422    0.2409 C.2     1  UNL1        0.1740
      3 C          -0.0153   -1.9923    1.4651 C.3     1  UNL1        0.0520
      4 C           0.5305   -0.6411    1.8351 C.3     1  UNL1        0.1322
      5 C           1.6127   -0.1754    0.9641 C.ar    1  UNL1       -0.0067
      6 C           1.9790    1.1543    1.0381 C.ar    1  UNL1       -0.0516
      7 C           2.9916    1.6567    0.2440 C.ar    1  UNL1       -0.0198
      8 C           3.6787    0.8633   -0.6519 C.ar    1  UNL1        0.1169
      9 O           4.7019    1.3437   -1.4629 O.3     1  UNL1       -0.5068
     10 C           3.3107   -0.4644   -0.7237 C.ar    1  UNL1       -0.0198
     11 C           2.2975   -0.9706    0.0698 C.ar    1  UNL1       -0.0516
     12 O          -0.5162    0.3036    1.7817 O.3     1  UNL1       -0.4828
     13 C          -1.5251    0.2989    0.8567 C.ar    1  UNL1        0.1389
     14 C          -2.3485    1.4087    0.7120 C.ar    1  UNL1        0.0225
     15 C          -3.3742    1.4283   -0.2150 C.ar    1  UNL1        0.1238
     16 O          -4.2025    2.5309   -0.3681 O.3     1  UNL1       -0.5065
     17 C          -3.5686    0.3163   -1.0021 C.ar    1  UNL1        0.0222
     18 C          -2.7643   -0.7998   -0.8784 C.ar    1  UNL1        0.1343
     19 O          -2.9358   -1.9264   -1.6525 O.3     1  UNL1       -0.5058
     20 C          -1.7357   -0.8041    0.0597 C.ar    1  UNL1        0.1007
     21 H          -0.7231   -2.2779    2.3000 H       1  UNL1        0.0385
     22 H           0.7438   -2.7820    1.4452 H       1  UNL1        0.0385
     23 H           0.8796   -0.6938    2.8873 H       1  UNL1        0.0789
     24 H           1.4698    1.8360    1.7315 H       1  UNL1        0.0623
     25 H           3.2900    2.7020    0.2924 H       1  UNL1        0.0654
     26 H           5.6275    1.5449   -1.1512 H       1  UNL1        0.2921
     27 H           3.8227   -1.1454   -1.4195 H       1  UNL1        0.0654
     28 H           1.9927   -2.0116    0.0288 H       1  UNL1        0.0623
     29 H          -2.1606    2.2698    1.3557 H       1  UNL1        0.0691
     30 H          -3.9041    3.2641   -1.0121 H       1  UNL1        0.2921
     31 H          -4.3767    0.3311   -1.7328 H       1  UNL1        0.0691
     32 H          -3.1083   -1.7797   -2.6498 H       1  UNL1        0.2922
@<TRIPOS>BOND
     1     1     2    2
     2     2     3    1
     3     3     4    1
     4     4     5    1
     5     5     6   ar
     6     6     7   ar
     7     7     8   ar
     8     8     9    1
     9     8    10   ar
    10    10    11   ar
    11     4    12    1
    12    12    13    1
    13    13    14   ar
    14    14    15   ar
    15    15    16    1
    16    15    17   ar
    17    17    18   ar
    18    18    19    1
    19    18    20   ar
    20    20     2    1
    21    11     5   ar
    22    20    13   ar
    23     3    21    1
    24     3    22    1
    25     4    23    1
    26     6    24    1
    27     7    25    1
    28     9    26    1
    29    10    27    1
    30    11    28    1
    31    14    29    1
    32    16    30    1
    33    17    31    1
    34    19    32    1
