
     RDKit          3D

 34 35  0  0  0  0  0  0  0  0999 V2000
    1.0347    1.0808    0.0504 C   0  0  0  0  0  0  0  0  0  0  0  0
    0.8700   -0.3790    0.0728 C   0  0  0  0  0  0  0  0  0  0  0  0
   -0.4464   -0.9395    0.2537 C   0  0  0  0  0  0  0  0  0  0  0  0
   -1.5192   -0.2553    0.4726 C   0  0  0  0  0  0  0  0  0  0  0  0
   -1.6074    1.5350    0.6015 S   0  0  0  0  0  0  0  0  0  0  0  0
   -3.3525    1.6045    0.9154 C   0  0  0  0  0  0  0  0  0  0  0  0
   -4.1842    2.9617    1.1566 S   0  0  0  0  0  0  0  0  0  0  0  0
   -3.8328    0.2966    0.9062 N   0  0  0  0  0  0  0  0  0  0  0  0
   -5.2668    0.0009    1.1240 C   0  0  0  0  0  0  0  0  0  0  0  0
   -5.9764    0.0191   -0.1592 C   0  0  0  0  0  0  0  0  0  0  0  0
   -7.2190   -0.1524   -0.2552 O   0  0  0  0  0  0  0  0  0  0  0  0
   -5.3004    0.2307   -1.3649 O   0  0  0  0  0  0  0  0  0  0  0  0
   -2.8963   -0.6934    0.6766 C   0  0  0  0  0  0  0  0  0  0  0  0
   -3.1537   -1.9537    0.6324 O   0  0  0  0  0  0  0  0  0  0  0  0
    1.9238   -1.1570   -0.0715 C   0  0  0  0  0  0  0  0  0  0  0  0
    3.2897   -0.7232   -0.2513 C   0  0  0  0  0  0  0  0  0  0  0  0
    4.0704   -1.1750   -1.2982 C   0  0  0  0  0  0  0  0  0  0  0  0
    5.3722   -0.7766   -1.4131 C   0  0  0  0  0  0  0  0  0  0  0  0
    5.9393    0.0882   -0.4846 C   0  0  0  0  0  0  0  0  0  0  0  0
    5.1469    0.5211    0.5424 C   0  0  0  0  0  0  0  0  0  0  0  0
    3.8460    0.1378    0.6788 C   0  0  0  0  0  0  0  0  0  0  0  0
    0.3776    1.5313   -0.7690 H   0  0  0  0  0  0  0  0  0  0  0  0
    2.0815    1.3009   -0.3233 H   0  0  0  0  0  0  0  0  0  0  0  0
    0.8704    1.5689    1.0060 H   0  0  0  0  0  0  0  0  0  0  0  0
   -0.5543   -2.0309    0.2025 H   0  0  0  0  0  0  0  0  0  0  0  0
   -5.3608   -0.9342    1.7036 H   0  0  0  0  0  0  0  0  0  0  0  0
   -5.6544    0.8036    1.7692 H   0  0  0  0  0  0  0  0  0  0  0  0
   -5.7569    0.5415   -2.1976 H   0  0  0  0  0  0  0  0  0  0  0  0
    1.7286   -2.2393   -0.0482 H   0  0  0  0  0  0  0  0  0  0  0  0
    3.6654   -1.8428   -2.0317 H   0  0  0  0  0  0  0  0  0  0  0  0
    6.0275   -1.1126   -2.2320 H   0  0  0  0  0  0  0  0  0  0  0  0
    6.9639    0.4146   -0.5561 H   0  0  0  0  0  0  0  0  0  0  0  0
    5.5886    1.2038    1.2802 H   0  0  0  0  0  0  0  0  0  0  0  0
    3.2850    0.5238    1.5334 H   0  0  0  0  0  0  0  0  0  0  0  0
  1  2  1  0
  2  3  1  0
  3  4  2  0
  4  5  1  0
  5  6  1  0
  6  7  2  0
  6  8  1  0
  8  9  1  0
  9 10  1  0
 10 11  2  0
 10 12  1  0
  8 13  1  0
 13 14  2  0
  2 15  2  0
 15 16  1  0
 16 17  2  0
 17 18  1  0
 18 19  2  0
 19 20  1  0
 20 21  2  0
 13  4  1  0
 21 16  1  0
  1 22  1  0
  1 23  1  0
  1 24  1  0
  3 25  1  0
  9 26  1  0
  9 27  1  0
 12 28  1  0
 15 29  1  0
 17 30  1  0
 18 31  1  0
 19 32  1  0
 20 33  1  0
 21 34  1  0
M  END
$$$$
