@<TRIPOS>MOLECULE
*****
 34 35 0 0 0
SMALL
GASTEIGER

@<TRIPOS>ATOM
      1 C           1.0347    1.0808    0.0504 C.3     1  UNL1       -0.0397
      2 C           0.8700   -0.3790    0.0728 C.2     1  UNL1       -0.0487
      3 C          -0.4464   -0.9395    0.2537 C.2     1  UNL1       -0.0400
      4 C          -1.5192   -0.2553    0.4726 C.2     1  UNL1        0.0769
      5 S          -1.6074    1.5350    0.6015 S.3     1  UNL1       -0.0610
      6 C          -3.3525    1.6045    0.9154 C.2     1  UNL1        0.1210
      7 S          -4.1842    2.9617    1.1566 S.2     1  UNL1       -0.0272
      8 N          -3.8328    0.2966    0.9062 N.am    1  UNL1       -0.2445
      9 C          -5.2668    0.0009    1.1240 C.3     1  UNL1        0.1180
     10 C          -5.9764    0.0191   -0.1592 C.2     1  UNL1        0.3227
     11 O          -7.2190   -0.1524   -0.2552 O.2     1  UNL1       -0.2492
     12 O          -5.3004    0.2307   -1.3649 O.3     1  UNL1       -0.4795
     13 C          -2.8963   -0.6934    0.6766 C.2     1  UNL1        0.2588
     14 O          -3.1537   -1.9537    0.6324 O.2     1  UNL1       -0.2690
     15 C           1.9238   -1.1570   -0.0715 C.2     1  UNL1       -0.0516
     16 C           3.2897   -0.7232   -0.2513 C.ar    1  UNL1       -0.0248
     17 C           4.0704   -1.1750   -1.2982 C.ar    1  UNL1       -0.0546
     18 C           5.3722   -0.7766   -1.4131 C.ar    1  UNL1       -0.0612
     19 C           5.9393    0.0882   -0.4846 C.ar    1  UNL1       -0.0617
     20 C           5.1469    0.5211    0.5424 C.ar    1  UNL1       -0.0612
     21 C           3.8460    0.1378    0.6788 C.ar    1  UNL1       -0.0546
     22 H           0.3776    1.5313   -0.7690 H       1  UNL1        0.0278
     23 H           2.0815    1.3009   -0.3233 H       1  UNL1        0.0278
     24 H           0.8704    1.5689    1.0060 H       1  UNL1        0.0278
     25 H          -0.5543   -2.0309    0.2025 H       1  UNL1        0.0633
     26 H          -5.3608   -0.9342    1.7036 H       1  UNL1        0.0584
     27 H          -5.6544    0.8036    1.7692 H       1  UNL1        0.0584
     28 H          -5.7569    0.5415   -2.1976 H       1  UNL1        0.2951
     29 H           1.7286   -2.2393   -0.0482 H       1  UNL1        0.0626
     30 H           3.6654   -1.8428   -2.0317 H       1  UNL1        0.0623
     31 H           6.0275   -1.1126   -2.2320 H       1  UNL1        0.0618
     32 H           6.9639    0.4146   -0.5561 H       1  UNL1        0.0618
     33 H           5.5886    1.2038    1.2802 H       1  UNL1        0.0618
     34 H           3.2850    0.5238    1.5334 H       1  UNL1        0.0623
@<TRIPOS>BOND
     1     1     2    1
     2     2     3    1
     3     3     4    2
     4     4     5    1
     5     5     6    1
     6     6     7    2
     7     6     8    1
     8     8     9    1
     9     9    10    1
    10    10    11    2
    11    10    12    1
    12     8    13   am
    13    13    14    2
    14     2    15    2
    15    15    16    1
    16    16    17   ar
    17    17    18   ar
    18    18    19   ar
    19    19    20   ar
    20    20    21   ar
    21    13     4    1
    22    21    16   ar
    23     1    22    1
    24     1    23    1
    25     1    24    1
    26     3    25    1
    27     9    26    1
    28     9    27    1
    29    12    28    1
    30    15    29    1
    31    17    30    1
    32    18    31    1
    33    19    32    1
    34    20    33    1
    35    21    34    1
