@<TRIPOS>MOLECULE
*****
 69 71 0 0 0
SMALL
GASTEIGER

@<TRIPOS>ATOM
      1 C           7.7408   -0.6227   -0.3212 C.3     1  UNL1       -0.0130
      2 N           6.9781    0.4717    0.1761 N.3     1  UNL1       -0.3069
      3 C           7.4912    1.7663   -0.2081 C.3     1  UNL1       -0.0130
      4 C           5.5489    0.3565   -0.1095 C.3     1  UNL1        0.0141
      5 C           5.0242   -0.7893    0.7050 C.3     1  UNL1        0.0275
      6 N           3.6367   -1.0483    0.5545 N.am    1  UNL1       -0.2987
      7 C           2.7838   -0.3363    1.4743 C.3     1  UNL1        0.0305
      8 C           1.5306    0.1808    0.7476 C.3     1  UNL1        0.0308
      9 N           0.5820   -0.8999    0.6859 N.am    1  UNL1       -0.2955
     10 C          -0.7895   -0.6670    0.6157 C.2     1  UNL1        0.2490
     11 O          -1.5157   -1.7358    0.6367 O.2     1  UNL1       -0.2699
     12 C          -1.5122    0.6079    0.5258 C.ar    1  UNL1        0.0657
     13 C          -0.9917    1.7657    0.0739 C.ar    1  UNL1       -0.0370
     14 C          -1.8033    2.8779   -0.0135 C.ar    1  UNL1       -0.0023
     15 C          -1.5078    4.2595   -0.4650 C.3     1  UNL1       -0.0064
     16 C          -0.0497    4.3012   -0.8556 C.3     1  UNL1       -0.0556
     17 C          -1.6868    5.1742    0.7149 C.3     1  UNL1       -0.0556
     18 C          -2.4119    4.7034   -1.5735 C.3     1  UNL1       -0.0556
     19 S          -3.3545    2.3169    0.5466 S.2     1  UNL1       -0.0771
     20 C          -2.8449    0.6226    0.8719 C.ar    1  UNL1        0.0853
     21 N          -3.6936   -0.3870    1.3810 N.am    1  UNL1       -0.2629
     22 C          -4.4699   -1.2334    0.5736 C.2     1  UNL1        0.3085
     23 O          -4.4155   -1.0914   -0.6761 O.2     1  UNL1       -0.2521
     24 N          -5.3201   -2.2483    1.0717 N.am    1  UNL1       -0.2678
     25 C          -6.0889   -3.0774    0.2167 C.ar    1  UNL1        0.0546
     26 C          -7.3887   -2.6857   -0.1323 C.ar    1  UNL1       -0.0389
     27 C          -8.1618   -3.4659   -0.9576 C.ar    1  UNL1       -0.0585
     28 C          -7.6265   -4.6431   -1.4328 C.ar    1  UNL1       -0.0419
     29 C          -6.3433   -5.0222   -1.0840 C.ar    1  UNL1        0.0610
     30 CL         -5.6841   -6.5200   -1.6977 Cl      1  UNL1       -0.0820
     31 C          -5.5493   -4.2528   -0.2559 C.ar    1  UNL1        0.0804
     32 CL         -3.9218   -4.6938    0.2073 Cl      1  UNL1       -0.0801
     33 C           0.9983   -2.3210    0.6638 C.3     1  UNL1        0.0233
     34 C           1.7919   -2.5440   -0.6100 C.3     1  UNL1        0.0399
     35 C           3.1686   -1.9537   -0.4481 C.2     1  UNL1        0.2171
     36 O           4.0227   -2.2789   -1.2779 O.2     1  UNL1       -0.2755
     37 H           7.9875   -1.3957    0.4277 H       1  UNL1        0.0391
     38 H           8.7355   -0.2086   -0.6619 H       1  UNL1        0.0391
     39 H           7.2532   -1.0124   -1.2196 H       1  UNL1        0.0391
     40 H           7.3371    2.5491    0.5357 H       1  UNL1        0.0391
     41 H           6.9747    2.0588   -1.1505 H       1  UNL1        0.0391
     42 H           8.5654    1.6110   -0.4733 H       1  UNL1        0.0391
     43 H           5.4797    0.1655   -1.2044 H       1  UNL1        0.0442
     44 H           5.1083    1.3341    0.1773 H       1  UNL1        0.0442
     45 H           5.2194   -0.5360    1.7777 H       1  UNL1        0.0477
     46 H           5.6443   -1.6746    0.4882 H       1  UNL1        0.0477
     47 H           3.3551    0.5375    1.8708 H       1  UNL1        0.0480
     48 H           2.5278   -0.9830    2.3319 H       1  UNL1        0.0480
     49 H           1.9110    0.5118   -0.2339 H       1  UNL1        0.0480
     50 H           1.1799    1.0071    1.4139 H       1  UNL1        0.0480
     51 H           0.0796    1.8696   -0.2751 H       1  UNL1        0.0634
     52 H           0.5876    3.8333   -0.0828 H       1  UNL1        0.0238
     53 H           0.2370    5.3644   -0.9979 H       1  UNL1        0.0238
     54 H           0.1597    3.7679   -1.8039 H       1  UNL1        0.0238
     55 H          -1.3345    6.1950    0.4730 H       1  UNL1        0.0238
     56 H          -1.1483    4.8012    1.6198 H       1  UNL1        0.0238
     57 H          -2.7700    5.2330    0.9924 H       1  UNL1        0.0238
     58 H          -2.7454    5.7456   -1.3957 H       1  UNL1        0.0238
     59 H          -3.3176    4.0620   -1.6588 H       1  UNL1        0.0238
     60 H          -1.8649    4.6837   -2.5425 H       1  UNL1        0.0238
     61 H          -3.7397   -0.5033    2.4167 H       1  UNL1        0.1569
     62 H          -5.3975   -2.4067    2.0971 H       1  UNL1        0.1564
     63 H          -7.7959   -1.7603    0.2481 H       1  UNL1        0.0637
     64 H          -9.1616   -3.1491   -1.2162 H       1  UNL1        0.0619
     65 H          -8.2258   -5.2817   -2.0914 H       1  UNL1        0.0633
     66 H           1.6551   -2.5750    1.5089 H       1  UNL1        0.0469
     67 H           0.1202   -2.9874    0.6073 H       1  UNL1        0.0469
     68 H           1.9279   -3.6266   -0.8040 H       1  UNL1        0.0374
     69 H           1.2884   -2.1169   -1.4992 H       1  UNL1        0.0374
@<TRIPOS>BOND
     1     1     2    1
     2     2     3    1
     3     2     4    1
     4     4     5    1
     5     5     6    1
     6     6     7    1
     7     7     8    1
     8     8     9    1
     9     9    10   am
    10    10    11    2
    11    10    12    1
    12    12    13   ar
    13    13    14   ar
    14    14    15    1
    15    15    16    1
    16    15    17    1
    17    15    18    1
    18    14    19   ar
    19    19    20   ar
    20    20    21    1
    21    21    22   am
    22    22    23    2
    23    22    24   am
    24    24    25    1
    25    25    26   ar
    26    26    27   ar
    27    27    28   ar
    28    28    29   ar
    29    29    30    1
    30    29    31   ar
    31    31    32    1
    32     9    33    1
    33    33    34    1
    34    34    35    1
    35    35    36    2
    36    35     6   am
    37    20    12   ar
    38    31    25   ar
    39     1    37    1
    40     1    38    1
    41     1    39    1
    42     3    40    1
    43     3    41    1
    44     3    42    1
    45     4    43    1
    46     4    44    1
    47     5    45    1
    48     5    46    1
    49     7    47    1
    50     7    48    1
    51     8    49    1
    52     8    50    1
    53    13    51    1
    54    16    52    1
    55    16    53    1
    56    16    54    1
    57    17    55    1
    58    17    56    1
    59    17    57    1
    60    18    58    1
    61    18    59    1
    62    18    60    1
    63    21    61    1
    64    24    62    1
    65    26    63    1
    66    27    64    1
    67    28    65    1
    68    33    66    1
    69    33    67    1
    70    34    68    1
    71    34    69    1
