
     RDKit          3D

 69 71  0  0  0  0  0  0  0  0999 V2000
    7.7408   -0.6227   -0.3212 C   0  0  0  0  0  0  0  0  0  0  0  0
    6.9781    0.4717    0.1761 N   0  0  0  0  0  0  0  0  0  0  0  0
    7.4912    1.7663   -0.2081 C   0  0  0  0  0  0  0  0  0  0  0  0
    5.5489    0.3565   -0.1095 C   0  0  0  0  0  0  0  0  0  0  0  0
    5.0242   -0.7893    0.7050 C   0  0  0  0  0  0  0  0  0  0  0  0
    3.6367   -1.0483    0.5545 N   0  0  0  0  0  0  0  0  0  0  0  0
    2.7838   -0.3363    1.4743 C   0  0  0  0  0  0  0  0  0  0  0  0
    1.5306    0.1808    0.7476 C   0  0  0  0  0  0  0  0  0  0  0  0
    0.5820   -0.8999    0.6859 N   0  0  0  0  0  0  0  0  0  0  0  0
   -0.7895   -0.6670    0.6157 C   0  0  0  0  0  0  0  0  0  0  0  0
   -1.5157   -1.7358    0.6367 O   0  0  0  0  0  0  0  0  0  0  0  0
   -1.5122    0.6079    0.5258 C   0  0  0  0  0  0  0  0  0  0  0  0
   -0.9917    1.7657    0.0739 C   0  0  0  0  0  0  0  0  0  0  0  0
   -1.8033    2.8779   -0.0135 C   0  0  0  0  0  0  0  0  0  0  0  0
   -1.5078    4.2595   -0.4650 C   0  0  0  0  0  0  0  0  0  0  0  0
   -0.0497    4.3012   -0.8556 C   0  0  0  0  0  0  0  0  0  0  0  0
   -1.6868    5.1742    0.7149 C   0  0  0  0  0  0  0  0  0  0  0  0
   -2.4119    4.7034   -1.5735 C   0  0  0  0  0  0  0  0  0  0  0  0
   -3.3545    2.3169    0.5466 S   0  0  0  0  0  0  0  0  0  0  0  0
   -2.8449    0.6226    0.8719 C   0  0  0  0  0  0  0  0  0  0  0  0
   -3.6936   -0.3870    1.3810 N   0  0  0  0  0  0  0  0  0  0  0  0
   -4.4699   -1.2334    0.5736 C   0  0  0  0  0  0  0  0  0  0  0  0
   -4.4155   -1.0914   -0.6761 O   0  0  0  0  0  0  0  0  0  0  0  0
   -5.3201   -2.2483    1.0717 N   0  0  0  0  0  0  0  0  0  0  0  0
   -6.0889   -3.0774    0.2167 C   0  0  0  0  0  0  0  0  0  0  0  0
   -7.3887   -2.6857   -0.1323 C   0  0  0  0  0  0  0  0  0  0  0  0
   -8.1618   -3.4659   -0.9576 C   0  0  0  0  0  0  0  0  0  0  0  0
   -7.6265   -4.6431   -1.4328 C   0  0  0  0  0  0  0  0  0  0  0  0
   -6.3433   -5.0222   -1.0840 C   0  0  0  0  0  0  0  0  0  0  0  0
   -5.6841   -6.5200   -1.6977 Cl  0  0  0  0  0  0  0  0  0  0  0  0
   -5.5493   -4.2528   -0.2559 C   0  0  0  0  0  0  0  0  0  0  0  0
   -3.9218   -4.6938    0.2073 Cl  0  0  0  0  0  0  0  0  0  0  0  0
    0.9983   -2.3210    0.6638 C   0  0  0  0  0  0  0  0  0  0  0  0
    1.7919   -2.5440   -0.6100 C   0  0  0  0  0  0  0  0  0  0  0  0
    3.1686   -1.9537   -0.4481 C   0  0  0  0  0  0  0  0  0  0  0  0
    4.0227   -2.2789   -1.2779 O   0  0  0  0  0  0  0  0  0  0  0  0
    7.9875   -1.3957    0.4277 H   0  0  0  0  0  0  0  0  0  0  0  0
    8.7355   -0.2086   -0.6619 H   0  0  0  0  0  0  0  0  0  0  0  0
    7.2532   -1.0124   -1.2196 H   0  0  0  0  0  0  0  0  0  0  0  0
    7.3371    2.5491    0.5357 H   0  0  0  0  0  0  0  0  0  0  0  0
    6.9747    2.0588   -1.1505 H   0  0  0  0  0  0  0  0  0  0  0  0
    8.5654    1.6110   -0.4733 H   0  0  0  0  0  0  0  0  0  0  0  0
    5.4797    0.1655   -1.2044 H   0  0  0  0  0  0  0  0  0  0  0  0
    5.1083    1.3341    0.1773 H   0  0  0  0  0  0  0  0  0  0  0  0
    5.2194   -0.5360    1.7777 H   0  0  0  0  0  0  0  0  0  0  0  0
    5.6443   -1.6746    0.4882 H   0  0  0  0  0  0  0  0  0  0  0  0
    3.3551    0.5375    1.8708 H   0  0  0  0  0  0  0  0  0  0  0  0
    2.5278   -0.9830    2.3319 H   0  0  0  0  0  0  0  0  0  0  0  0
    1.9110    0.5118   -0.2339 H   0  0  0  0  0  0  0  0  0  0  0  0
    1.1799    1.0071    1.4139 H   0  0  0  0  0  0  0  0  0  0  0  0
    0.0796    1.8696   -0.2751 H   0  0  0  0  0  0  0  0  0  0  0  0
    0.5876    3.8333   -0.0828 H   0  0  0  0  0  0  0  0  0  0  0  0
    0.2370    5.3644   -0.9979 H   0  0  0  0  0  0  0  0  0  0  0  0
    0.1597    3.7679   -1.8039 H   0  0  0  0  0  0  0  0  0  0  0  0
   -1.3345    6.1950    0.4730 H   0  0  0  0  0  0  0  0  0  0  0  0
   -1.1483    4.8012    1.6198 H   0  0  0  0  0  0  0  0  0  0  0  0
   -2.7700    5.2330    0.9924 H   0  0  0  0  0  0  0  0  0  0  0  0
   -2.7454    5.7456   -1.3957 H   0  0  0  0  0  0  0  0  0  0  0  0
   -3.3176    4.0620   -1.6588 H   0  0  0  0  0  0  0  0  0  0  0  0
   -1.8649    4.6837   -2.5425 H   0  0  0  0  0  0  0  0  0  0  0  0
   -3.7397   -0.5033    2.4167 H   0  0  0  0  0  0  0  0  0  0  0  0
   -5.3975   -2.4067    2.0971 H   0  0  0  0  0  0  0  0  0  0  0  0
   -7.7959   -1.7603    0.2481 H   0  0  0  0  0  0  0  0  0  0  0  0
   -9.1616   -3.1491   -1.2162 H   0  0  0  0  0  0  0  0  0  0  0  0
   -8.2258   -5.2817   -2.0914 H   0  0  0  0  0  0  0  0  0  0  0  0
    1.6551   -2.5750    1.5089 H   0  0  0  0  0  0  0  0  0  0  0  0
    0.1202   -2.9874    0.6073 H   0  0  0  0  0  0  0  0  0  0  0  0
    1.9279   -3.6266   -0.8040 H   0  0  0  0  0  0  0  0  0  0  0  0
    1.2884   -2.1169   -1.4992 H   0  0  0  0  0  0  0  0  0  0  0  0
  1  2  1  0
  2  3  1  0
  2  4  1  0
  4  5  1  0
  5  6  1  0
  6  7  1  0
  7  8  1  0
  8  9  1  0
  9 10  1  0
 10 11  2  0
 10 12  1  0
 12 13  1  0
 13 14  2  0
 14 15  1  0
 15 16  1  0
 15 17  1  0
 15 18  1  0
 14 19  1  0
 19 20  1  0
 20 21  1  0
 21 22  1  0
 22 23  2  0
 22 24  1  0
 24 25  1  0
 25 26  2  0
 26 27  1  0
 27 28  2  0
 28 29  1  0
 29 30  1  0
 29 31  2  0
 31 32  1  0
  9 33  1  0
 33 34  1  0
 34 35  1  0
 35 36  2  0
 35  6  1  0
 20 12  2  0
 31 25  1  0
  1 37  1  0
  1 38  1  0
  1 39  1  0
  3 40  1  0
  3 41  1  0
  3 42  1  0
  4 43  1  0
  4 44  1  0
  5 45  1  0
  5 46  1  0
  7 47  1  0
  7 48  1  0
  8 49  1  0
  8 50  1  0
 13 51  1  0
 16 52  1  0
 16 53  1  0
 16 54  1  0
 17 55  1  0
 17 56  1  0
 17 57  1  0
 18 58  1  0
 18 59  1  0
 18 60  1  0
 21 61  1  0
 24 62  1  0
 26 63  1  0
 27 64  1  0
 28 65  1  0
 33 66  1  0
 33 67  1  0
 34 68  1  0
 34 69  1  0
M  END
$$$$
