@<TRIPOS>MOLECULE
*****
 54 57 0 0 0
SMALL
GASTEIGER

@<TRIPOS>ATOM
      1 C          -2.4626    1.1630   -1.7517 C.3     1  UNL1       -0.0436
      2 C          -2.7462    1.4605   -0.2804 C.3     1  UNL1        0.0543
      3 C          -4.2358    1.2102   -0.0081 C.3     1  UNL1        0.0758
      4 C          -5.0854    2.3708   -0.3986 C.3     1  UNL1       -0.0369
      5 O          -4.5670    0.0466   -0.6541 O.3     1  UNL1       -0.3599
      6 C          -3.9616   -1.0601   -0.1190 C.3     1  UNL1        0.1402
      7 C          -3.4926   -1.9301   -1.2910 C.3     1  UNL1       -0.0274
      8 C          -4.9420   -1.9051    0.6936 C.3     1  UNL1       -0.0274
      9 C          -2.7845   -0.7749    0.7146 C.2     1  UNL1        0.2516
     10 O          -2.3922   -1.5450    1.6208 O.2     1  UNL1       -0.2721
     11 N          -2.0466    0.4244    0.4960 N.am    1  UNL1       -0.2626
     12 C          -0.7255    0.6234    0.9866 C.ar    1  UNL1        0.0547
     13 C           0.4078    0.2954    0.2895 C.ar    1  UNL1       -0.0298
     14 C           1.6855    0.5036    0.7993 C.ar    1  UNL1        0.0023
     15 C           2.8579    0.1329    0.0078 C.ar    1  UNL1        0.0740
     16 C           3.0922    0.3723   -1.3273 C.ar    1  UNL1       -0.0219
     17 C           4.3355   -0.1503   -1.6803 C.ar    1  UNL1        0.0855
     18 C           4.9489   -0.0927   -3.0322 C.3     1  UNL1        0.4195
     19 F           4.0865    0.5622   -3.9003 F       1  UNL1       -0.1658
     20 F           5.2566   -1.3304   -3.5053 F       1  UNL1       -0.1658
     21 F           6.1148    0.6656   -2.9088 F       1  UNL1       -0.1658
     22 C           4.8479   -0.7098   -0.5336 C.ar    1  UNL1        0.1171
     23 C           6.0440   -1.3587   -0.3257 C.ar    1  UNL1        0.1442
     24 N           7.0308   -1.5854   -1.3169 N.pl3   1  UNL1       -0.3414
     25 N           6.2992   -1.8150    0.9122 N.ar    1  UNL1       -0.2173
     26 C           5.3826   -1.6246    1.9043 C.ar    1  UNL1        0.1388
     27 N           4.2316   -0.9884    1.6599 N.ar    1  UNL1       -0.1543
     28 N           3.9448   -0.5257    0.4573 N.ar    1  UNL1       -0.2269
     29 C           1.7779    1.0637    2.0579 C.ar    1  UNL1       -0.0512
     30 C           0.6709    1.4145    2.8068 C.ar    1  UNL1       -0.0419
     31 C          -0.5660    1.1810    2.2417 C.ar    1  UNL1        0.0732
     32 C          -1.7579    1.5341    2.9931 C.1     1  UNL1        0.1010
     33 N          -2.6846    1.8071    3.5996 N.1     1  UNL1       -0.1908
     34 H          -2.0271    2.0708   -2.2168 H       1  UNL1        0.0248
     35 H          -3.3971    0.8588   -2.2732 H       1  UNL1        0.0248
     36 H          -1.7115    0.3577   -1.8715 H       1  UNL1        0.0248
     37 H          -2.4458    2.4683    0.0050 H       1  UNL1        0.0527
     38 H          -4.2965    1.0122    1.0970 H       1  UNL1        0.0612
     39 H          -5.5916    2.2675   -1.3614 H       1  UNL1        0.0255
     40 H          -4.4020    3.2639   -0.4924 H       1  UNL1        0.0255
     41 H          -5.8003    2.6684    0.4224 H       1  UNL1        0.0255
     42 H          -2.3791   -1.9038   -1.3816 H       1  UNL1        0.0262
     43 H          -3.7999   -2.9768   -1.1758 H       1  UNL1        0.0262
     44 H          -3.8856   -1.5549   -2.2556 H       1  UNL1        0.0262
     45 H          -5.8179   -1.3078    0.9953 H       1  UNL1        0.0262
     46 H          -5.2902   -2.7854    0.0955 H       1  UNL1        0.0262
     47 H          -4.4598   -2.3230    1.5975 H       1  UNL1        0.0262
     48 H           0.3175   -0.1405   -0.6906 H       1  UNL1        0.0643
     49 H           2.4184    0.8841   -1.9947 H       1  UNL1        0.0645
     50 H           7.0679   -2.4728   -1.9024 H       1  UNL1        0.1438
     51 H           7.7895   -0.9051   -1.5388 H       1  UNL1        0.1438
     52 H           5.6108   -1.9997    2.8877 H       1  UNL1        0.1066
     53 H           2.7709    1.2249    2.4526 H       1  UNL1        0.0624
     54 H           0.7645    1.8579    3.8040 H       1  UNL1        0.0631
@<TRIPOS>BOND
     1     1     2    1
     2     2     3    1
     3     3     4    1
     4     3     5    1
     5     5     6    1
     6     6     7    1
     7     6     8    1
     8     6     9    1
     9     9    10    2
    10     9    11   am
    11    11    12    1
    12    12    13   ar
    13    13    14   ar
    14    14    15    1
    15    15    16   ar
    16    16    17   ar
    17    17    18    1
    18    18    19    1
    19    18    20    1
    20    18    21    1
    21    17    22   ar
    22    22    23   ar
    23    23    24    1
    24    23    25   ar
    25    25    26   ar
    26    26    27   ar
    27    27    28   ar
    28    14    29   ar
    29    29    30   ar
    30    30    31   ar
    31    31    32    1
    32    32    33    3
    33    11     2    1
    34    31    12   ar
    35    28    15   ar
    36    28    22   ar
    37     1    34    1
    38     1    35    1
    39     1    36    1
    40     2    37    1
    41     3    38    1
    42     4    39    1
    43     4    40    1
    44     4    41    1
    45     7    42    1
    46     7    43    1
    47     7    44    1
    48     8    45    1
    49     8    46    1
    50     8    47    1
    51    13    48    1
    52    16    49    1
    53    24    50    1
    54    24    51    1
    55    26    52    1
    56    29    53    1
    57    30    54    1
