@<TRIPOS>MOLECULE
*****
 62 67 0 0 0
SMALL
GASTEIGER

@<TRIPOS>ATOM
      1 C          -1.7686    0.6398    5.8120 C.3     1  UNL1        0.0805
      2 O          -0.8570    0.6354    4.6984 O.3     1  UNL1       -0.4772
      3 C          -1.4459    0.3543    3.4532 C.ar    1  UNL1        0.2592
      4 N          -2.7584    0.1028    3.3401 N.ar    1  UNL1       -0.2101
      5 C          -3.3268   -0.1678    2.1490 C.ar    1  UNL1        0.0713
      6 C          -4.7610   -0.4341    2.0823 C.2     1  UNL1       -0.0215
      7 C          -5.5147   -0.3842    3.1472 C.2     1  UNL1       -0.0534
      8 C          -6.9686   -0.6460    3.1355 C.3     1  UNL1        0.0665
      9 O          -7.4635   -0.6067    1.8706 O.3     1  UNL1       -0.3754
     10 C          -6.7535   -1.3240    0.9272 C.3     1  UNL1        0.0521
     11 C          -5.3468   -0.7811    0.7733 C.3     1  UNL1       -0.0024
     12 C          -2.5096   -0.1761    1.0440 C.ar    1  UNL1       -0.0264
     13 C          -1.1359    0.0763    1.0787 C.ar    1  UNL1        0.0342
     14 C          -0.6161    0.3485    2.3586 C.ar    1  UNL1        0.1954
     15 O           0.7203    0.6104    2.5442 O.3     1  UNL1       -0.4499
     16 C           1.5578    0.6022    1.4389 C.ar    1  UNL1        0.1346
     17 C           2.9260    0.8549    1.6025 C.ar    1  UNL1       -0.0172
     18 C           3.7933    0.8479    0.5290 C.ar    1  UNL1       -0.0370
     19 C           3.3621    0.5941   -0.7526 C.ar    1  UNL1        0.0343
     20 N           4.2003    0.5177   -1.9033 N.am    1  UNL1       -0.2802
     21 C           5.6051    0.5153   -1.9245 C.2     1  UNL1        0.2666
     22 O           6.2536    0.5838   -0.8832 O.2     1  UNL1       -0.2682
     23 C           6.3382    0.4229   -3.2111 C.ar    1  UNL1        0.1258
     24 C           7.7012    0.3462   -3.2934 C.ar    1  UNL1       -0.0285
     25 C           8.3599    0.2335   -4.5195 C.ar    1  UNL1       -0.0228
     26 C           7.6465    0.1970   -5.6877 C.ar    1  UNL1        0.1414
     27 F           8.2575    0.0892   -6.8929 F       1  UNL1       -0.2039
     28 C           6.2598    0.2785   -5.5600 C.ar    1  UNL1        0.0636
     29 N           5.6530    0.3862   -4.3685 N.ar    1  UNL1       -0.2475
     30 C           2.0068    0.3456   -0.9128 C.ar    1  UNL1       -0.0312
     31 C           1.1233    0.3531    0.1818 C.ar    1  UNL1        0.0287
     32 C          -0.3172    0.0983   -0.1109 C.3     1  UNL1        0.1265
     33 C          -0.7137    1.2009   -1.0825 C.3     1  UNL1        0.0155
     34 C          -1.7945    0.8543   -2.0291 C.3     1  UNL1        0.0953
     35 O          -1.9124   -0.5216   -2.2946 O.2     1  UNL1       -0.4658
     36 C          -1.0642   -1.4689   -1.7701 C.2     1  UNL1        0.2763
     37 N          -1.0129   -2.7928   -2.3805 N.pl3   1  UNL1       -0.3134
     38 N          -0.3299   -1.2024   -0.7759 N.2     1  UNL1       -0.2205
     39 H          -2.1744   -0.3758    5.9773 H       1  UNL1        0.0660
     40 H          -1.3317    1.0974    6.7065 H       1  UNL1        0.0660
     41 H          -2.6151    1.3025    5.4674 H       1  UNL1        0.0660
     42 H          -5.0065   -0.1338    4.0974 H       1  UNL1        0.0598
     43 H          -7.4455    0.1925    3.7062 H       1  UNL1        0.0604
     44 H          -7.2398   -1.5644    3.7146 H       1  UNL1        0.0604
     45 H          -6.7035   -2.3950    1.2353 H       1  UNL1        0.0563
     46 H          -7.2888   -1.2801   -0.0318 H       1  UNL1        0.0563
     47 H          -4.7211   -1.4645    0.1834 H       1  UNL1        0.0336
     48 H          -5.4441    0.1498    0.1771 H       1  UNL1        0.0336
     49 H          -2.9952   -0.4006    0.1051 H       1  UNL1        0.0644
     50 H           3.2704    1.0523    2.6214 H       1  UNL1        0.0655
     51 H           4.8356    1.0583    0.6929 H       1  UNL1        0.0637
     52 H           3.7443    0.4575   -2.8658 H       1  UNL1        0.1552
     53 H           8.2801    0.3704   -2.3974 H       1  UNL1        0.0641
     54 H           9.4444    0.1732   -4.5631 H       1  UNL1        0.0647
     55 H           5.6959    0.2514   -6.4956 H       1  UNL1        0.0859
     56 H           1.6353    0.1448   -1.8905 H       1  UNL1        0.0641
     57 H           0.1672    1.5948   -1.6225 H       1  UNL1        0.0328
     58 H          -1.0978    2.0454   -0.4479 H       1  UNL1        0.0328
     59 H          -2.8041    1.2507   -1.7215 H       1  UNL1        0.0698
     60 H          -1.5985    1.3575   -3.0126 H       1  UNL1        0.0698
     61 H          -1.3757   -3.5775   -1.8171 H       1  UNL1        0.1466
     62 H          -0.6249   -2.8900   -3.3247 H       1  UNL1        0.1466
@<TRIPOS>BOND
     1     1     2    1
     2     2     3    1
     3     3     4   ar
     4     4     5   ar
     5     5     6    1
     6     6     7    2
     7     7     8    1
     8     8     9    1
     9     9    10    1
    10    10    11    1
    11     5    12   ar
    12    12    13   ar
    13    13    14   ar
    14    14    15    1
    15    15    16    1
    16    16    17   ar
    17    17    18   ar
    18    18    19   ar
    19    19    20    1
    20    20    21   am
    21    21    22    2
    22    21    23    1
    23    23    24   ar
    24    24    25   ar
    25    25    26   ar
    26    26    27    1
    27    26    28   ar
    28    28    29   ar
    29    19    30   ar
    30    30    31   ar
    31    31    32    1
    32    32    33    1
    33    33    34    1
    34    34    35    1
    35    35    36    1
    36    36    37    1
    37    36    38    2
    38    14     3   ar
    39    31    16   ar
    40    38    32    1
    41    11     6    1
    42    32    13    1
    43    29    23   ar
    44     1    39    1
    45     1    40    1
    46     1    41    1
    47     7    42    1
    48     8    43    1
    49     8    44    1
    50    10    45    1
    51    10    46    1
    52    11    47    1
    53    11    48    1
    54    12    49    1
    55    17    50    1
    56    18    51    1
    57    20    52    1
    58    24    53    1
    59    25    54    1
    60    28    55    1
    61    30    56    1
    62    33    57    1
    63    33    58    1
    64    34    59    1
    65    34    60    1
    66    37    61    1
    67    37    62    1
