@<TRIPOS>MOLECULE
*****
 23 23 0 0 0
SMALL
GASTEIGER

@<TRIPOS>ATOM
      1 C          -1.6988   -0.6411   -0.1959 C.3     1  UNL1        0.1391
      2 O          -2.2265   -0.0459    0.9536 O.3     1  UNL1       -0.3838
      3 C          -0.8801    0.4494   -0.8952 C.3     1  UNL1        0.1173
      4 O          -1.7057    1.4582   -1.3698 O.3     1  UNL1       -0.3863
      5 C           0.0427    0.9282    0.2009 C.3     1  UNL1        0.1442
      6 O           0.8126    2.0267   -0.1607 O.3     1  UNL1       -0.3834
      7 C           0.8898   -0.1825    0.6721 C.3     1  UNL1        0.2645
      8 F           1.1948    0.0860    2.0149 F       1  UNL1       -0.2054
      9 C           2.2242   -0.0909   -0.0483 C.3     1  UNL1        0.1056
     10 O           3.1619   -0.9321    0.5452 O.3     1  UNL1       -0.3893
     11 O           0.4509   -1.4521    0.6073 O.3     1  UNL1       -0.3042
     12 C          -0.7801   -1.7455    0.1396 C.3     1  UNL1        0.2313
     13 F          -0.6614   -2.5436   -0.9850 F       1  UNL1       -0.2117
     14 H          -2.4958   -0.9747   -0.8686 H       1  UNL1        0.0674
     15 H          -3.2160   -0.0220    0.9667 H       1  UNL1        0.2101
     16 H          -0.3384   -0.0231   -1.7183 H       1  UNL1        0.0649
     17 H          -1.6362    2.2561   -0.7894 H       1  UNL1        0.2100
     18 H          -0.6455    1.2351    1.0413 H       1  UNL1        0.0678
     19 H           0.3706    2.6219   -0.8021 H       1  UNL1        0.2101
     20 H           2.5556    0.9358   -0.1961 H       1  UNL1        0.0615
     21 H           2.0495   -0.5241   -1.0711 H       1  UNL1        0.0615
     22 H           3.8381   -0.4262    1.0623 H       1  UNL1        0.2096
     23 H          -1.3064   -2.3936    0.8969 H       1  UNL1        0.0993
@<TRIPOS>BOND
     1     1     2    1
     2     1     3    1
     3     3     4    1
     4     3     5    1
     5     5     6    1
     6     5     7    1
     7     7     8    1
     8     7     9    1
     9     9    10    1
    10     7    11    1
    11    11    12    1
    12    12    13    1
    13    12     1    1
    14     1    14    1
    15     2    15    1
    16     3    16    1
    17     4    17    1
    18     5    18    1
    19     6    19    1
    20     9    20    1
    21     9    21    1
    22    10    22    1
    23    12    23    1
