@<TRIPOS>MOLECULE
*****
 49 51 0 0 0
SMALL
GASTEIGER

@<TRIPOS>ATOM
      1 C           8.3737   -0.1932    2.2270 C.3     1  UNL1        0.0805
      2 O           7.9544    0.2006    0.9274 O.3     1  UNL1       -0.4786
      3 C           6.5865    0.1867    0.6475 C.ar    1  UNL1        0.2332
      4 C           6.1736    0.5684   -0.6134 C.ar    1  UNL1        0.0899
      5 N           4.8470    0.5620   -0.9065 N.ar    1  UNL1       -0.2435
      6 C           3.9260    0.1941   -0.0019 C.ar    1  UNL1        0.1439
      7 C           2.4994    0.1830   -0.3043 C.2     1  UNL1        0.2681
      8 O           1.7102   -0.1725    0.5935 O.2     1  UNL1       -0.2681
      9 N           1.9899    0.5566   -1.5636 N.am    1  UNL1       -0.2802
     10 C           0.6483    0.5922   -1.9879 C.ar    1  UNL1        0.0343
     11 C           0.4000    1.0016   -3.2947 C.ar    1  UNL1       -0.0377
     12 C          -0.8615    1.0664   -3.7892 C.ar    1  UNL1       -0.0243
     13 C          -1.9692    0.7361   -3.0432 C.ar    1  UNL1        0.1311
     14 F          -3.2190    0.8045   -3.5462 F       1  UNL1       -0.2050
     15 C          -1.7340    0.3303   -1.7509 C.ar    1  UNL1        0.0420
     16 C          -2.8427   -0.0506   -0.8507 C.3     1  UNL1        0.1958
     17 C          -3.4945   -1.2807   -1.4715 C.3     1  UNL1       -0.0112
     18 C          -3.8289    1.1007   -0.7785 C.3     1  UNL1        0.1180
     19 S          -4.7762    1.0621    0.7265 S.O2    1  UNL1       -0.0126
     20 O          -4.3071    2.1805    1.6276 O.2     1  UNL1       -0.1734
     21 O          -6.2359    1.2299    0.4769 O.2     1  UNL1       -0.1734
     22 C          -4.4170   -0.5004    1.4974 C.3     1  UNL1        0.1754
     23 C          -5.0048   -0.6071    2.8658 C.3     1  UNL1       -0.0315
     24 C          -2.9392   -0.6401    1.4896 C.2     1  UNL1        0.3038
     25 N          -2.2124   -1.0071    2.6513 N.pl3   1  UNL1       -0.2491
     26 N          -2.3166   -0.4239    0.4112 N.2     1  UNL1       -0.0730
     27 C          -0.4364    0.2639   -1.2428 C.ar    1  UNL1       -0.0301
     28 C           4.3462   -0.1835    1.2481 C.ar    1  UNL1        0.0619
     29 N           5.6731   -0.1840    1.5626 N.ar    1  UNL1       -0.2178
     30 H           8.2007    0.6640    2.8961 H       1  UNL1        0.0660
     31 H           7.7735   -1.0642    2.5504 H       1  UNL1        0.0660
     32 H           9.4230   -0.5004    2.1798 H       1  UNL1        0.0660
     33 H           6.9223    0.8633   -1.3360 H       1  UNL1        0.0884
     34 H           2.7514    0.8434   -2.2585 H       1  UNL1        0.1552
     35 H           1.2394    1.2763   -3.9341 H       1  UNL1        0.0637
     36 H          -1.0620    1.3854   -4.8089 H       1  UNL1        0.0647
     37 H          -4.6063   -1.1123   -1.5763 H       1  UNL1        0.0279
     38 H          -3.2742   -2.1940   -0.8814 H       1  UNL1        0.0279
     39 H          -3.1393   -1.4700   -2.5028 H       1  UNL1        0.0279
     40 H          -4.5671    0.9350   -1.6104 H       1  UNL1        0.0550
     41 H          -3.2960    2.0548   -0.8655 H       1  UNL1        0.0550
     42 H          -4.8302   -1.2867    0.8065 H       1  UNL1        0.0659
     43 H          -6.0017   -0.0839    2.8566 H       1  UNL1        0.0254
     44 H          -4.3506   -0.2742    3.6694 H       1  UNL1        0.0254
     45 H          -5.2423   -1.6936    3.0419 H       1  UNL1        0.0254
     46 H          -2.2808   -0.5182    3.5647 H       1  UNL1        0.2881
     47 H          -1.5685   -1.8194    2.5844 H       1  UNL1        0.2881
     48 H          -0.2886   -0.0641   -0.2080 H       1  UNL1        0.0641
     49 H           3.6642   -0.4910    2.0251 H       1  UNL1        0.0854
@<TRIPOS>BOND
     1     1     2    1
     2     2     3    1
     3     3     4   ar
     4     4     5   ar
     5     5     6   ar
     6     6     7    1
     7     7     8    2
     8     7     9   am
     9     9    10    1
    10    10    11   ar
    11    11    12   ar
    12    12    13   ar
    13    13    14    1
    14    13    15   ar
    15    15    16    1
    16    16    17    1
    17    16    18    1
    18    18    19    1
    19    19    20    2
    20    19    21    2
    21    19    22    1
    22    22    23    1
    23    22    24    1
    24    24    25    1
    25    24    26    2
    26    15    27   ar
    27     6    28   ar
    28    28    29   ar
    29    29     3   ar
    30    27    10   ar
    31    26    16    1
    32     1    30    1
    33     1    31    1
    34     1    32    1
    35     4    33    1
    36     9    34    1
    37    11    35    1
    38    12    36    1
    39    17    37    1
    40    17    38    1
    41    17    39    1
    42    18    40    1
    43    18    41    1
    44    22    42    1
    45    23    43    1
    46    23    44    1
    47    23    45    1
    48    25    46    1
    49    25    47    1
    50    27    48    1
    51    28    49    1
