
     RDKit          3D

 50 53  0  0  0  0  0  0  0  0999 V2000
    4.0190    2.5618    1.7107 C   0  0  0  0  0  0  0  0  0  0  0  0
    4.1690    1.0973    1.5070 C   0  0  0  0  0  0  0  0  0  0  0  0
    3.3931    0.5168    0.5350 C   0  0  0  0  0  0  0  0  0  0  0  0
    3.5032   -0.8604    0.3146 C   0  0  0  0  0  0  0  0  0  0  0  0
    2.7308   -1.4878   -0.6613 C   0  0  0  0  0  0  0  0  0  0  0  0
    1.8556   -0.6519   -1.3905 N   0  0  0  0  0  0  0  0  0  0  0  0
    0.5009   -0.4464   -0.9337 C   0  0  0  0  0  0  0  0  0  0  0  0
    0.1941   -1.0571    0.1074 O   0  0  0  0  0  0  0  0  0  0  0  0
   -0.3792    0.3818   -1.6263 N   0  0  0  0  0  0  0  0  0  0  0  0
   -1.7689    0.6180   -1.2649 C   0  0  2  0  0  0  0  0  0  0  0  0
   -1.9628    1.9544   -0.6675 C   0  0  0  0  0  0  0  0  0  0  0  0
   -3.3251    2.0936   -0.0442 C   0  0  0  0  0  0  0  0  0  0  0  0
   -3.6025    3.4493    0.5149 C   0  0  0  0  0  0  0  0  0  0  0  0
   -3.5336    4.4291   -0.4494 F   0  0  0  0  0  0  0  0  0  0  0  0
   -4.3760    1.7885   -1.1024 C   0  0  0  0  0  0  0  0  0  0  0  0
   -4.2802    2.6550   -2.1676 F   0  0  0  0  0  0  0  0  0  0  0  0
   -3.4027    1.1059    1.0064 O   0  0  0  0  0  0  0  0  0  0  0  0
   -3.1522   -0.2264    0.6162 C   0  0  0  0  0  0  0  0  0  0  0  0
   -3.7343   -1.2282    1.3799 C   0  0  0  0  0  0  0  0  0  0  0  0
   -4.5074   -0.9596    2.4593 F   0  0  0  0  0  0  0  0  0  0  0  0
   -3.5386   -2.5501    1.0498 C   0  0  0  0  0  0  0  0  0  0  0  0
   -2.7481   -2.7815   -0.0582 C   0  0  0  0  0  0  0  0  0  0  0  0
   -2.1717   -1.8009   -0.8148 C   0  0  0  0  0  0  0  0  0  0  0  0
   -2.3721   -0.4647   -0.4732 C   0  0  0  0  0  0  0  0  0  0  0  0
    2.8255   -2.8507   -0.8912 C   0  0  0  0  0  0  0  0  0  0  0  0
    3.7147   -3.5627   -0.1148 C   0  0  0  0  0  0  0  0  0  0  0  0
    4.4960   -2.9751    0.8610 C   0  0  0  0  0  0  0  0  0  0  0  0
    4.3827   -1.5985    1.0736 C   0  0  0  0  0  0  0  0  0  0  0  0
    5.1511   -0.9799    2.0461 C   0  0  0  0  0  0  0  0  0  0  0  0
    5.0179    0.3502    2.2311 N   0  0  0  0  0  0  0  0  0  0  0  0
    4.0493    3.0977    0.7219 H   0  0  0  0  0  0  0  0  0  0  0  0
    2.9877    2.7246    2.1104 H   0  0  0  0  0  0  0  0  0  0  0  0
    4.8051    3.0130    2.3163 H   0  0  0  0  0  0  0  0  0  0  0  0
    2.6956    1.0606   -0.0748 H   0  0  0  0  0  0  0  0  0  0  0  0
    2.1497   -0.1691   -2.2544 H   0  0  0  0  0  0  0  0  0  0  0  0
   -0.0024    0.8775   -2.4894 H   0  0  0  0  0  0  0  0  0  0  0  0
   -2.3517    0.5573   -2.2486 H   0  0  0  0  0  0  0  0  0  0  0  0
   -1.7856    2.7892   -1.3879 H   0  0  0  0  0  0  0  0  0  0  0  0
   -1.2294    2.0370    0.1903 H   0  0  0  0  0  0  0  0  0  0  0  0
   -2.9871    3.6808    1.4224 H   0  0  0  0  0  0  0  0  0  0  0  0
   -4.6759    3.4316    0.8664 H   0  0  0  0  0  0  0  0  0  0  0  0
   -4.2616    0.7215   -1.4100 H   0  0  0  0  0  0  0  0  0  0  0  0
   -5.4101    1.8708   -0.6715 H   0  0  0  0  0  0  0  0  0  0  0  0
   -3.9827   -3.3490    1.6306 H   0  0  0  0  0  0  0  0  0  0  0  0
   -2.5832   -3.8305   -0.3365 H   0  0  0  0  0  0  0  0  0  0  0  0
   -1.5652   -1.9872   -1.6854 H   0  0  0  0  0  0  0  0  0  0  0  0
    2.2116   -3.2893   -1.6513 H   0  0  0  0  0  0  0  0  0  0  0  0
    3.8109   -4.6294   -0.2690 H   0  0  0  0  0  0  0  0  0  0  0  0
    5.2007   -3.5235    1.4814 H   0  0  0  0  0  0  0  0  0  0  0  0
    5.8259   -1.6035    2.6150 H   0  0  0  0  0  0  0  0  0  0  0  0
  1  2  1  0
  2  3  2  0
  3  4  1  0
  4  5  2  0
  5  6  1  0
  6  7  1  0
  7  8  2  0
  7  9  1  0
  9 10  1  0
 10 11  1  0
 11 12  1  0
 12 13  1  0
 13 14  1  0
 12 15  1  0
 15 16  1  0
 12 17  1  0
 17 18  1  0
 18 19  2  0
 19 20  1  0
 19 21  1  0
 21 22  2  0
 22 23  1  0
 23 24  2  0
  5 25  1  0
 25 26  2  0
 26 27  1  0
 27 28  2  0
 28 29  1  0
 29 30  2  0
 30  2  1  0
 28  4  1  0
 24 10  1  0
 24 18  1  0
  1 31  1  0
  1 32  1  0
  1 33  1  0
  3 34  1  0
  6 35  1  0
  9 36  1  0
 10 37  1  6
 11 38  1  0
 11 39  1  0
 13 40  1  0
 13 41  1  0
 15 42  1  0
 15 43  1  0
 21 44  1  0
 22 45  1  0
 23 46  1  0
 25 47  1  0
 26 48  1  0
 27 49  1  0
 29 50  1  0
M  END
$$$$
