@<TRIPOS>MOLECULE
*****
 50 53 0 0 0
SMALL
GASTEIGER

@<TRIPOS>ATOM
      1 C           4.0190    2.5618    1.7107 C.3     1  UNL1       -0.0223
      2 C           4.1690    1.0973    1.5070 C.ar    1  UNL1        0.0389
      3 C           3.3931    0.5168    0.5350 C.ar    1  UNL1       -0.0312
      4 C           3.5032   -0.8604    0.3146 C.ar    1  UNL1        0.0065
      5 C           2.7308   -1.4878   -0.6613 C.ar    1  UNL1        0.0426
      6 N           1.8556   -0.6519   -1.3905 N.am    1  UNL1       -0.2689
      7 C           0.5009   -0.4464   -0.9337 C.2     1  UNL1        0.3044
      8 O           0.1941   -1.0571    0.1074 O.2     1  UNL1       -0.2525
      9 N          -0.3792    0.3818   -1.6263 N.am    1  UNL1       -0.2921
     10 C          -1.7689    0.6180   -1.2649 C.3     1  UNL1        0.0571
     11 C          -1.9628    1.9544   -0.6675 C.3     1  UNL1        0.0149
     12 C          -3.3251    2.0936   -0.0442 C.3     1  UNL1        0.1684
     13 C          -3.6025    3.4493    0.5149 C.3     1  UNL1        0.1322
     14 F          -3.5336    4.4291   -0.4494 F       1  UNL1       -0.2448
     15 C          -4.3760    1.7885   -1.1024 C.3     1  UNL1        0.1322
     16 F          -4.2802    2.6550   -2.1676 F       1  UNL1       -0.2448
     17 O          -3.4027    1.1059    1.0064 O.3     1  UNL1       -0.4772
     18 C          -3.1522   -0.2264    0.6162 C.ar    1  UNL1        0.1615
     19 C          -3.7343   -1.2282    1.3799 C.ar    1  UNL1        0.1652
     20 F          -4.5074   -0.9596    2.4593 F       1  UNL1       -0.2016
     21 C          -3.5386   -2.5501    1.0498 C.ar    1  UNL1       -0.0228
     22 C          -2.7481   -2.7815   -0.0582 C.ar    1  UNL1       -0.0585
     23 C          -2.1717   -1.8009   -0.8148 C.ar    1  UNL1       -0.0531
     24 C          -2.3721   -0.4647   -0.4732 C.ar    1  UNL1        0.0175
     25 C           2.8255   -2.8507   -0.8912 C.ar    1  UNL1       -0.0398
     26 C           3.7147   -3.5627   -0.1148 C.ar    1  UNL1       -0.0594
     27 C           4.4960   -2.9751    0.8610 C.ar    1  UNL1       -0.0525
     28 C           4.3827   -1.5985    1.0736 C.ar    1  UNL1        0.0020
     29 C           5.1511   -0.9799    2.0461 C.ar    1  UNL1        0.0356
     30 N           5.0179    0.3502    2.2311 N.ar    1  UNL1       -0.2595
     31 H           4.0493    3.0977    0.7219 H       1  UNL1        0.0292
     32 H           2.9877    2.7246    2.1104 H       1  UNL1        0.0292
     33 H           4.8051    3.0130    2.3163 H       1  UNL1        0.0292
     34 H           2.6956    1.0606   -0.0748 H       1  UNL1        0.0642
     35 H           2.1497   -0.1691   -2.2544 H       1  UNL1        0.1564
     36 H          -0.0024    0.8775   -2.4894 H       1  UNL1        0.1508
     37 H          -2.3517    0.5573   -2.2486 H       1  UNL1        0.0551
     38 H          -1.7856    2.7892   -1.3879 H       1  UNL1        0.0327
     39 H          -1.2294    2.0370    0.1903 H       1  UNL1        0.0327
     40 H          -2.9871    3.6808    1.4224 H       1  UNL1        0.0656
     41 H          -4.6759    3.4316    0.8664 H       1  UNL1        0.0656
     42 H          -4.2616    0.7215   -1.4100 H       1  UNL1        0.0656
     43 H          -5.4101    1.8708   -0.6715 H       1  UNL1        0.0656
     44 H          -3.9827   -3.3490    1.6306 H       1  UNL1        0.0647
     45 H          -2.5832   -3.8305   -0.3365 H       1  UNL1        0.0619
     46 H          -1.5652   -1.9872   -1.6854 H       1  UNL1        0.0622
     47 H           2.2116   -3.2893   -1.6513 H       1  UNL1        0.0636
     48 H           3.8109   -4.6294   -0.2690 H       1  UNL1        0.0618
     49 H           5.2007   -3.5235    1.4814 H       1  UNL1        0.0624
     50 H           5.8259   -1.6035    2.6150 H       1  UNL1        0.0836
@<TRIPOS>BOND
     1     1     2    1
     2     2     3   ar
     3     3     4   ar
     4     4     5   ar
     5     5     6    1
     6     6     7   am
     7     7     8    2
     8     7     9   am
     9     9    10    1
    10    10    11    1
    11    11    12    1
    12    12    13    1
    13    13    14    1
    14    12    15    1
    15    15    16    1
    16    12    17    1
    17    17    18    1
    18    18    19   ar
    19    19    20    1
    20    19    21   ar
    21    21    22   ar
    22    22    23   ar
    23    23    24   ar
    24     5    25   ar
    25    25    26   ar
    26    26    27   ar
    27    27    28   ar
    28    28    29   ar
    29    29    30   ar
    30    30     2   ar
    31    28     4   ar
    32    24    10    1
    33    24    18   ar
    34     1    31    1
    35     1    32    1
    36     1    33    1
    37     3    34    1
    38     6    35    1
    39     9    36    1
    40    10    37    1
    41    11    38    1
    42    11    39    1
    43    13    40    1
    44    13    41    1
    45    15    42    1
    46    15    43    1
    47    21    44    1
    48    22    45    1
    49    23    46    1
    50    25    47    1
    51    26    48    1
    52    27    49    1
    53    29    50    1
