@<TRIPOS>MOLECULE
*****
 33 34 0 0 0
SMALL
GASTEIGER

@<TRIPOS>ATOM
      1 O           4.2982    0.3634   -1.4320 O.2     1  UNL1       -0.2490
      2 C           4.2620    1.2335   -0.5374 C.2     1  UNL1        0.3248
      3 O           5.1494    2.2916   -0.5449 O.3     1  UNL1       -0.4794
      4 C           3.2599    1.1463    0.5558 C.3     1  UNL1        0.1243
      5 N           2.4180   -0.0274    0.3966 N.ar    1  UNL1       -0.2896
      6 C           2.7992   -1.1726    0.9665 C.ar    1  UNL1        0.0151
      7 C           1.9931   -2.2794    0.8090 C.ar    1  UNL1        0.0194
      8 C           0.8165   -2.1888    0.0725 C.ar    1  UNL1        0.2568
      9 O           0.1379   -3.2450   -0.0235 O.2     1  UNL1       -0.2675
     10 N           0.4573   -1.0186   -0.4914 N.ar    1  UNL1       -0.2565
     11 C          -0.7653   -0.9377   -1.2536 C.3     1  UNL1        0.0562
     12 C          -1.9516   -0.5779   -0.4724 C.ar    1  UNL1       -0.0211
     13 C          -2.7672   -1.5056    0.1558 C.ar    1  UNL1       -0.0565
     14 C          -3.8720   -1.1097    0.8771 C.ar    1  UNL1       -0.0550
     15 C          -4.1967    0.2305    0.9930 C.ar    1  UNL1        0.0156
     16 C          -3.4062    1.1770    0.3803 C.ar    1  UNL1        0.2735
     17 N          -3.7203    2.5721    0.4846 N.pl3   1  UNL1        0.0796
     18 O          -4.7179    2.9408    1.1349 O.2     1  UNL1        0.0414
     19 O          -2.9607    3.5395   -0.1085 O.co2   1  UNL1       -0.5760
     20 C          -2.3031    0.7660   -0.3387 C.ar    1  UNL1        0.0205
     21 C           1.2722    0.0321   -0.3120 C.ar    1  UNL1        0.3327
     22 O           0.9971    1.1534   -0.8112 O.2     1  UNL1       -0.2462
     23 H           5.8478    2.3389   -1.2795 H       1  UNL1        0.2951
     24 H           2.5933    2.0326    0.5682 H       1  UNL1        0.0609
     25 H           3.7871    1.1412    1.5329 H       1  UNL1        0.0609
     26 H           3.7336   -1.2274    1.5463 H       1  UNL1        0.0812
     27 H           2.2919   -3.2307    1.2715 H       1  UNL1        0.0686
     28 H          -0.9907   -1.9227   -1.7575 H       1  UNL1        0.0544
     29 H          -0.6641   -0.2182   -2.1176 H       1  UNL1        0.0544
     30 H          -2.5141   -2.5620    0.0652 H       1  UNL1        0.0621
     31 H          -4.5004   -1.8480    1.3631 H       1  UNL1        0.0620
     32 H          -5.0761    0.5515    1.5667 H       1  UNL1        0.0685
     33 H          -1.7082    1.5613   -0.8084 H       1  UNL1        0.0689
@<TRIPOS>UNITY_ATOM_ATTR
17 1
charge 1
19 1
charge -1
@<TRIPOS>BOND
     1     1     2    2
     2     2     3    1
     3     2     4    1
     4     4     5    1
     5     5     6   ar
     6     6     7   ar
     7     7     8   ar
     8     8     9    2
     9     8    10   ar
    10    10    11    1
    11    11    12    1
    12    12    13   ar
    13    13    14   ar
    14    14    15   ar
    15    15    16   ar
    16    16    17    1
    17    17    18    2
    18    17    19    1
    19    16    20   ar
    20    10    21   ar
    21    21    22    2
    22    21     5   ar
    23    20    12   ar
    24     3    23    1
    25     4    24    1
    26     4    25    1
    27     6    26    1
    28     7    27    1
    29    11    28    1
    30    11    29    1
    31    13    30    1
    32    14    31    1
    33    15    32    1
    34    20    33    1
