
     RDKit          3D

 33 34  0  0  0  0  0  0  0  0999 V2000
    4.2982    0.3634   -1.4320 O   0  0  0  0  0  0  0  0  0  0  0  0
    4.2620    1.2335   -0.5374 C   0  0  0  0  0  0  0  0  0  0  0  0
    5.1494    2.2916   -0.5449 O   0  0  0  0  0  0  0  0  0  0  0  0
    3.2599    1.1463    0.5558 C   0  0  0  0  0  0  0  0  0  0  0  0
    2.4180   -0.0274    0.3966 N   0  0  0  0  0  0  0  0  0  0  0  0
    2.7992   -1.1726    0.9665 C   0  0  0  0  0  0  0  0  0  0  0  0
    1.9931   -2.2794    0.8090 C   0  0  0  0  0  0  0  0  0  0  0  0
    0.8165   -2.1888    0.0725 C   0  0  0  0  0  0  0  0  0  0  0  0
    0.1379   -3.2450   -0.0235 O   0  0  0  0  0  0  0  0  0  0  0  0
    0.4573   -1.0186   -0.4914 N   0  0  0  0  0  0  0  0  0  0  0  0
   -0.7653   -0.9377   -1.2536 C   0  0  0  0  0  0  0  0  0  0  0  0
   -1.9516   -0.5779   -0.4724 C   0  0  0  0  0  0  0  0  0  0  0  0
   -2.7672   -1.5056    0.1558 C   0  0  0  0  0  0  0  0  0  0  0  0
   -3.8720   -1.1097    0.8771 C   0  0  0  0  0  0  0  0  0  0  0  0
   -4.1967    0.2305    0.9930 C   0  0  0  0  0  0  0  0  0  0  0  0
   -3.4062    1.1770    0.3803 C   0  0  0  0  0  0  0  0  0  0  0  0
   -3.7203    2.5721    0.4846 N   0  0  0  0  0  4  0  0  0  0  0  0
   -4.7179    2.9408    1.1349 O   0  0  0  0  0  0  0  0  0  0  0  0
   -2.9607    3.5395   -0.1085 O   0  0  0  0  0  1  0  0  0  0  0  0
   -2.3031    0.7660   -0.3387 C   0  0  0  0  0  0  0  0  0  0  0  0
    1.2722    0.0321   -0.3120 C   0  0  0  0  0  0  0  0  0  0  0  0
    0.9971    1.1534   -0.8112 O   0  0  0  0  0  0  0  0  0  0  0  0
    5.8478    2.3389   -1.2795 H   0  0  0  0  0  0  0  0  0  0  0  0
    2.5933    2.0326    0.5682 H   0  0  0  0  0  0  0  0  0  0  0  0
    3.7871    1.1412    1.5329 H   0  0  0  0  0  0  0  0  0  0  0  0
    3.7336   -1.2274    1.5463 H   0  0  0  0  0  0  0  0  0  0  0  0
    2.2919   -3.2307    1.2715 H   0  0  0  0  0  0  0  0  0  0  0  0
   -0.9907   -1.9227   -1.7575 H   0  0  0  0  0  0  0  0  0  0  0  0
   -0.6641   -0.2182   -2.1176 H   0  0  0  0  0  0  0  0  0  0  0  0
   -2.5141   -2.5620    0.0652 H   0  0  0  0  0  0  0  0  0  0  0  0
   -4.5004   -1.8480    1.3631 H   0  0  0  0  0  0  0  0  0  0  0  0
   -5.0761    0.5515    1.5667 H   0  0  0  0  0  0  0  0  0  0  0  0
   -1.7082    1.5613   -0.8084 H   0  0  0  0  0  0  0  0  0  0  0  0
  1  2  2  0
  2  3  1  0
  2  4  1  0
  4  5  1  0
  5  6  1  0
  6  7  2  0
  7  8  1  0
  8  9  2  0
  8 10  1  0
 10 11  1  0
 11 12  1  0
 12 13  2  0
 13 14  1  0
 14 15  2  0
 15 16  1  0
 16 17  1  0
 17 18  2  0
 17 19  1  0
 16 20  2  0
 10 21  1  0
 21 22  2  0
 21  5  1  0
 20 12  1  0
  3 23  1  0
  4 24  1  0
  4 25  1  0
  6 26  1  0
  7 27  1  0
 11 28  1  0
 11 29  1  0
 13 30  1  0
 14 31  1  0
 15 32  1  0
 20 33  1  0
M  CHG  2  17   1  19  -1
M  END
$$$$
