@<TRIPOS>MOLECULE
*****
 58 61 0 0 0
SMALL
GASTEIGER

@<TRIPOS>ATOM
      1 N           8.5924    2.3769   -0.7700 N.pl3   1  UNL1       -0.3431
      2 C           7.5128    1.5222   -0.4563 C.ar    1  UNL1        0.1162
      3 C           7.1826    1.3282    0.8602 C.ar    1  UNL1       -0.0202
      4 C           6.1399    0.5060    1.2204 C.ar    1  UNL1       -0.0306
      5 C           5.3823   -0.1595    0.2526 C.ar    1  UNL1        0.1236
      6 S           4.0629   -1.1984    0.7323 S.O2    1  UNL1        0.0624
      7 O           4.3440   -1.9054    2.0311 O.2     1  UNL1       -0.1528
      8 O           3.9153   -2.2657   -0.3359 O.2     1  UNL1       -0.1528
      9 N           2.6025   -0.3180    0.8293 N.3     1  UNL1       -0.1735
     10 C           2.2431    0.2385   -0.4369 C.3     1  UNL1        0.0363
     11 C           0.8886    0.8921   -0.2959 C.3     1  UNL1        0.0280
     12 N          -0.1362   -0.1123    0.0339 N.pl3   1  UNL1       -0.3122
     13 C          -1.4893    0.2675   -0.1158 C.ar    1  UNL1        0.1291
     14 N          -1.7968    1.6131   -0.1377 N.ar    1  UNL1       -0.2393
     15 C          -3.0171    2.1033   -0.2152 C.ar    1  UNL1        0.0362
     16 C          -4.1136    1.2849   -0.2823 C.ar    1  UNL1        0.0203
     17 C          -5.4616    1.8213   -0.3675 C.3     1  UNL1        0.2830
     18 O          -6.2402    0.8460   -1.0350 O.3     1  UNL1       -0.3692
     19 C          -6.0151    2.0207    1.0313 C.3     1  UNL1        0.4311
     20 F          -6.0162    0.7665    1.6419 F       1  UNL1       -0.1669
     21 F          -5.2711    2.9246    1.7257 F       1  UNL1       -0.1669
     22 F          -7.3276    2.4460    1.0174 F       1  UNL1       -0.1669
     23 C          -5.6211    3.0876   -1.1383 C.3     1  UNL1        0.4311
     24 F          -5.2122    2.9537   -2.4641 F       1  UNL1       -0.1669
     25 F          -5.1079    4.1829   -0.5124 F       1  UNL1       -0.1669
     26 F          -7.0053    3.3375   -1.2471 F       1  UNL1       -0.1669
     27 C          -3.8643   -0.0689   -0.2652 C.ar    1  UNL1       -0.0428
     28 C          -2.5602   -0.5807   -0.1836 C.ar    1  UNL1        0.0239
     29 C          -2.3795   -2.0307   -0.2374 C.ar    1  UNL1        0.0035
     30 C          -3.0099   -2.8074    0.7070 C.ar    1  UNL1       -0.0510
     31 C          -2.8862   -4.1712    0.6433 C.ar    1  UNL1       -0.0430
     32 C          -2.1471   -4.7769   -0.3428 C.ar    1  UNL1        0.0276
     33 N          -1.5563   -3.9793   -1.2335 N.ar    1  UNL1       -0.2627
     34 C          -1.6452   -2.6492   -1.2156 C.ar    1  UNL1        0.0354
     35 C           0.3972   -1.3497    0.5160 C.3     1  UNL1        0.0280
     36 C           1.5535   -1.0084    1.4994 C.3     1  UNL1        0.0363
     37 C           5.7400    0.0570   -1.0587 C.ar    1  UNL1        0.0560
     38 N           6.7764    0.8759   -1.3874 N.ar    1  UNL1       -0.2388
     39 H           8.5017    3.0858   -1.5165 H       1  UNL1        0.1437
     40 H           9.4811    2.2939   -0.2498 H       1  UNL1        0.1437
     41 H           7.7558    1.8331    1.6180 H       1  UNL1        0.0652
     42 H           5.8565    0.3332    2.2366 H       1  UNL1        0.0639
     43 H           2.2826   -0.5041   -1.2549 H       1  UNL1        0.0459
     44 H           2.9564    1.0425   -0.7073 H       1  UNL1        0.0459
     45 H           0.5511    1.4002   -1.2056 H       1  UNL1        0.0477
     46 H           0.9469    1.5521    0.5950 H       1  UNL1        0.0477
     47 H          -3.1111    3.1793   -0.2226 H       1  UNL1        0.0834
     48 H          -6.5815    0.1762   -0.4023 H       1  UNL1        0.2112
     49 H          -4.6642   -0.7759   -0.3140 H       1  UNL1        0.0629
     50 H          -3.6101   -2.3567    1.5110 H       1  UNL1        0.0625
     51 H          -3.3924   -4.7866    1.4010 H       1  UNL1        0.0633
     52 H          -2.0535   -5.8704   -0.3862 H       1  UNL1        0.0829
     53 H          -1.1523   -2.0605   -1.9528 H       1  UNL1        0.0836
     54 H           0.9098   -1.9594   -0.2568 H       1  UNL1        0.0477
     55 H          -0.3078   -1.8949    1.1532 H       1  UNL1        0.0477
     56 H           1.0887   -0.3503    2.2551 H       1  UNL1        0.0459
     57 H           1.9170   -1.9638    1.8920 H       1  UNL1        0.0459
     58 H           5.1720   -0.4443   -1.8291 H       1  UNL1        0.0850
@<TRIPOS>BOND
     1     1     2    1
     2     2     3   ar
     3     3     4   ar
     4     4     5   ar
     5     5     6    1
     6     6     7    2
     7     6     8    2
     8     6     9    1
     9     9    10    1
    10    10    11    1
    11    11    12    1
    12    12    13    1
    13    13    14   ar
    14    14    15   ar
    15    15    16   ar
    16    16    17    1
    17    17    18    1
    18    17    19    1
    19    19    20    1
    20    19    21    1
    21    19    22    1
    22    17    23    1
    23    23    24    1
    24    23    25    1
    25    23    26    1
    26    16    27   ar
    27    27    28   ar
    28    28    29    1
    29    29    30   ar
    30    30    31   ar
    31    31    32   ar
    32    32    33   ar
    33    33    34   ar
    34    12    35    1
    35    35    36    1
    36     5    37   ar
    37    37    38   ar
    38    38     2   ar
    39    36     9    1
    40    28    13   ar
    41    34    29   ar
    42     1    39    1
    43     1    40    1
    44     3    41    1
    45     4    42    1
    46    10    43    1
    47    10    44    1
    48    11    45    1
    49    11    46    1
    50    15    47    1
    51    18    48    1
    52    27    49    1
    53    30    50    1
    54    31    51    1
    55    32    52    1
    56    34    53    1
    57    35    54    1
    58    35    55    1
    59    36    56    1
    60    36    57    1
    61    37    58    1
