
     RDKit          3D

 58 61  0  0  0  0  0  0  0  0999 V2000
    8.5924    2.3769   -0.7700 N   0  0  0  0  0  0  0  0  0  0  0  0
    7.5128    1.5222   -0.4563 C   0  0  0  0  0  0  0  0  0  0  0  0
    7.1826    1.3282    0.8602 C   0  0  0  0  0  0  0  0  0  0  0  0
    6.1399    0.5060    1.2204 C   0  0  0  0  0  0  0  0  0  0  0  0
    5.3823   -0.1595    0.2526 C   0  0  0  0  0  0  0  0  0  0  0  0
    4.0629   -1.1984    0.7323 S   0  0  0  0  0  6  0  0  0  0  0  0
    4.3440   -1.9054    2.0311 O   0  0  0  0  0  0  0  0  0  0  0  0
    3.9153   -2.2657   -0.3359 O   0  0  0  0  0  0  0  0  0  0  0  0
    2.6025   -0.3180    0.8293 N   0  0  0  0  0  0  0  0  0  0  0  0
    2.2431    0.2385   -0.4369 C   0  0  0  0  0  0  0  0  0  0  0  0
    0.8886    0.8921   -0.2959 C   0  0  0  0  0  0  0  0  0  0  0  0
   -0.1362   -0.1123    0.0339 N   0  0  0  0  0  0  0  0  0  0  0  0
   -1.4893    0.2675   -0.1158 C   0  0  0  0  0  0  0  0  0  0  0  0
   -1.7968    1.6131   -0.1377 N   0  0  0  0  0  0  0  0  0  0  0  0
   -3.0171    2.1033   -0.2152 C   0  0  0  0  0  0  0  0  0  0  0  0
   -4.1136    1.2849   -0.2823 C   0  0  0  0  0  0  0  0  0  0  0  0
   -5.4616    1.8213   -0.3675 C   0  0  0  0  0  0  0  0  0  0  0  0
   -6.2402    0.8460   -1.0350 O   0  0  0  0  0  0  0  0  0  0  0  0
   -6.0151    2.0207    1.0313 C   0  0  0  0  0  0  0  0  0  0  0  0
   -6.0162    0.7665    1.6419 F   0  0  0  0  0  0  0  0  0  0  0  0
   -5.2711    2.9246    1.7257 F   0  0  0  0  0  0  0  0  0  0  0  0
   -7.3276    2.4460    1.0174 F   0  0  0  0  0  0  0  0  0  0  0  0
   -5.6211    3.0876   -1.1383 C   0  0  0  0  0  0  0  0  0  0  0  0
   -5.2122    2.9537   -2.4641 F   0  0  0  0  0  0  0  0  0  0  0  0
   -5.1079    4.1829   -0.5124 F   0  0  0  0  0  0  0  0  0  0  0  0
   -7.0053    3.3375   -1.2471 F   0  0  0  0  0  0  0  0  0  0  0  0
   -3.8643   -0.0689   -0.2652 C   0  0  0  0  0  0  0  0  0  0  0  0
   -2.5602   -0.5807   -0.1836 C   0  0  0  0  0  0  0  0  0  0  0  0
   -2.3795   -2.0307   -0.2374 C   0  0  0  0  0  0  0  0  0  0  0  0
   -3.0099   -2.8074    0.7070 C   0  0  0  0  0  0  0  0  0  0  0  0
   -2.8862   -4.1712    0.6433 C   0  0  0  0  0  0  0  0  0  0  0  0
   -2.1471   -4.7769   -0.3428 C   0  0  0  0  0  0  0  0  0  0  0  0
   -1.5563   -3.9793   -1.2335 N   0  0  0  0  0  0  0  0  0  0  0  0
   -1.6452   -2.6492   -1.2156 C   0  0  0  0  0  0  0  0  0  0  0  0
    0.3972   -1.3497    0.5160 C   0  0  0  0  0  0  0  0  0  0  0  0
    1.5535   -1.0084    1.4994 C   0  0  0  0  0  0  0  0  0  0  0  0
    5.7400    0.0570   -1.0587 C   0  0  0  0  0  0  0  0  0  0  0  0
    6.7764    0.8759   -1.3874 N   0  0  0  0  0  0  0  0  0  0  0  0
    8.5017    3.0858   -1.5165 H   0  0  0  0  0  0  0  0  0  0  0  0
    9.4811    2.2939   -0.2498 H   0  0  0  0  0  0  0  0  0  0  0  0
    7.7558    1.8331    1.6180 H   0  0  0  0  0  0  0  0  0  0  0  0
    5.8565    0.3332    2.2366 H   0  0  0  0  0  0  0  0  0  0  0  0
    2.2826   -0.5041   -1.2549 H   0  0  0  0  0  0  0  0  0  0  0  0
    2.9564    1.0425   -0.7073 H   0  0  0  0  0  0  0  0  0  0  0  0
    0.5511    1.4002   -1.2056 H   0  0  0  0  0  0  0  0  0  0  0  0
    0.9469    1.5521    0.5950 H   0  0  0  0  0  0  0  0  0  0  0  0
   -3.1111    3.1793   -0.2226 H   0  0  0  0  0  0  0  0  0  0  0  0
   -6.5815    0.1762   -0.4023 H   0  0  0  0  0  0  0  0  0  0  0  0
   -4.6642   -0.7759   -0.3140 H   0  0  0  0  0  0  0  0  0  0  0  0
   -3.6101   -2.3567    1.5110 H   0  0  0  0  0  0  0  0  0  0  0  0
   -3.3924   -4.7866    1.4010 H   0  0  0  0  0  0  0  0  0  0  0  0
   -2.0535   -5.8704   -0.3862 H   0  0  0  0  0  0  0  0  0  0  0  0
   -1.1523   -2.0605   -1.9528 H   0  0  0  0  0  0  0  0  0  0  0  0
    0.9098   -1.9594   -0.2568 H   0  0  0  0  0  0  0  0  0  0  0  0
   -0.3078   -1.8949    1.1532 H   0  0  0  0  0  0  0  0  0  0  0  0
    1.0887   -0.3503    2.2551 H   0  0  0  0  0  0  0  0  0  0  0  0
    1.9170   -1.9638    1.8920 H   0  0  0  0  0  0  0  0  0  0  0  0
    5.1720   -0.4443   -1.8291 H   0  0  0  0  0  0  0  0  0  0  0  0
  1  2  1  0
  2  3  2  0
  3  4  1  0
  4  5  2  0
  5  6  1  0
  6  7  2  0
  6  8  2  0
  6  9  1  0
  9 10  1  0
 10 11  1  0
 11 12  1  0
 12 13  1  0
 13 14  2  0
 14 15  1  0
 15 16  2  0
 16 17  1  0
 17 18  1  0
 17 19  1  0
 19 20  1  0
 19 21  1  0
 19 22  1  0
 17 23  1  0
 23 24  1  0
 23 25  1  0
 23 26  1  0
 16 27  1  0
 27 28  2  0
 28 29  1  0
 29 30  2  0
 30 31  1  0
 31 32  2  0
 32 33  1  0
 33 34  2  0
 12 35  1  0
 35 36  1  0
  5 37  1  0
 37 38  2  0
 38  2  1  0
 36  9  1  0
 28 13  1  0
 34 29  1  0
  1 39  1  0
  1 40  1  0
  3 41  1  0
  4 42  1  0
 10 43  1  0
 10 44  1  0
 11 45  1  0
 11 46  1  0
 15 47  1  0
 18 48  1  0
 27 49  1  0
 30 50  1  0
 31 51  1  0
 32 52  1  0
 34 53  1  0
 35 54  1  0
 35 55  1  0
 36 56  1  0
 36 57  1  0
 37 58  1  0
M  END
$$$$
