@<TRIPOS>MOLECULE
*****
 38 40 0 0 0
SMALL
GASTEIGER

@<TRIPOS>ATOM
      1 F          -0.2440    5.0462    1.5445 F       1  UNL1       -0.2040
      2 C          -0.4096    4.2376    0.4962 C.ar    1  UNL1        0.1420
      3 C          -0.2502    2.8812    0.6832 C.ar    1  UNL1       -0.0183
      4 C          -0.4043    1.9793   -0.3499 C.ar    1  UNL1       -0.0046
      5 C          -0.2456    0.5427   -0.1952 C.3     1  UNL1        0.1256
      6 C          -1.4792    0.0440    0.5758 C.3     1  UNL1       -0.0064
      7 C          -1.3333   -1.4557    0.7483 C.3     1  UNL1       -0.0123
      8 C          -2.4900   -2.0812    1.4982 C.3     1  UNL1        0.0000
      9 N          -3.2627   -1.9770    0.2611 N.3     1  UNL1       -0.3154
     10 C          -1.9859   -2.1506   -0.4490 C.3     1  UNL1        0.0000
     11 O           0.8608    0.1264    0.5358 O.3     1  UNL1       -0.4842
     12 C           1.8269   -0.7837    0.1912 C.ar    1  UNL1        0.1228
     13 C           1.8881   -1.4785   -0.9766 C.ar    1  UNL1       -0.0198
     14 C           2.9034   -2.3823   -1.2441 C.ar    1  UNL1       -0.0569
     15 C           3.8700   -2.5637   -0.2776 C.ar    1  UNL1       -0.0432
     16 C           3.8487   -1.8869    0.9112 C.ar    1  UNL1        0.0444
     17 CL          5.1003   -2.1357    2.1377 Cl      1  UNL1       -0.0834
     18 C           2.8211   -0.9984    1.1347 C.ar    1  UNL1       -0.0016
     19 C          -0.7269    2.4989   -1.5848 C.ar    1  UNL1       -0.0535
     20 C          -0.8941    3.8463   -1.8096 C.ar    1  UNL1       -0.0402
     21 C          -0.7352    4.7243   -0.7649 C.ar    1  UNL1        0.0761
     22 CL         -0.9329    6.4480   -0.9802 Cl      1  UNL1       -0.0806
     23 H           0.0015    2.4689    1.6440 H       1  UNL1        0.0650
     24 H          -0.3177    0.0484   -1.1806 H       1  UNL1        0.0784
     25 H          -1.4479    0.4915    1.5882 H       1  UNL1        0.0308
     26 H          -2.4075    0.3245    0.0792 H       1  UNL1        0.0308
     27 H          -0.3342   -1.8021    1.0033 H       1  UNL1        0.0327
     28 H          -2.8921   -1.4750    2.3309 H       1  UNL1        0.0427
     29 H          -2.2906   -3.1239    1.7622 H       1  UNL1        0.0427
     30 H          -3.9049   -2.7744    0.0869 H       1  UNL1        0.1220
     31 H          -1.8808   -1.5437   -1.3534 H       1  UNL1        0.0427
     32 H          -1.7515   -3.2233   -0.5222 H       1  UNL1        0.0427
     33 H           1.1073   -1.3036   -1.7063 H       1  UNL1        0.0654
     34 H           2.9153   -2.9193   -2.1939 H       1  UNL1        0.0619
     35 H           4.6702   -3.2688   -0.4753 H       1  UNL1        0.0632
     36 H           2.8211   -0.4670    2.0905 H       1  UNL1        0.0669
     37 H          -0.8642    1.8418   -2.4490 H       1  UNL1        0.0622
     38 H          -1.1490    4.2448   -2.7905 H       1  UNL1        0.0633
@<TRIPOS>BOND
     1     1     2    1
     2     2     3   ar
     3     3     4   ar
     4     4     5    1
     5     5     6    1
     6     6     7    1
     7     7     8    1
     8     8     9    1
     9     9    10    1
    10     5    11    1
    11    11    12    1
    12    12    13   ar
    13    13    14   ar
    14    14    15   ar
    15    15    16   ar
    16    16    17    1
    17    16    18   ar
    18     4    19   ar
    19    19    20   ar
    20    20    21   ar
    21    21    22    1
    22    21     2   ar
    23    10     7    1
    24    18    12   ar
    25     3    23    1
    26     5    24    1
    27     6    25    1
    28     6    26    1
    29     7    27    1
    30     8    28    1
    31     8    29    1
    32     9    30    1
    33    10    31    1
    34    10    32    1
    35    13    33    1
    36    14    34    1
    37    15    35    1
    38    18    36    1
    39    19    37    1
    40    20    38    1
