@<TRIPOS>MOLECULE
*****
 40 42 0 0 0
SMALL
GASTEIGER

@<TRIPOS>ATOM
      1 N           4.8857    2.2630   -0.5019 N.3     1  UNL1       -0.3300
      2 C           4.1044    1.1671    0.0923 C.3     1  UNL1       -0.0066
      3 C           2.6617    1.4563   -0.2047 C.3     1  UNL1       -0.0375
      4 C           1.7146    0.4377    0.3288 C.3     1  UNL1       -0.0351
      5 C           1.9374   -0.9430   -0.2059 C.3     1  UNL1       -0.0245
      6 C           0.7225   -1.7916   -0.1825 C.ar    1  UNL1       -0.0433
      7 C           0.8419   -3.0838   -0.6237 C.ar    1  UNL1       -0.0583
      8 C          -0.2372   -3.9486   -0.6382 C.ar    1  UNL1       -0.0615
      9 C          -1.4749   -3.5159   -0.2003 C.ar    1  UNL1       -0.0615
     10 C          -1.5802   -2.2153    0.2402 C.ar    1  UNL1       -0.0577
     11 C          -0.5030   -1.3604    0.2520 C.ar    1  UNL1       -0.0368
     12 C          -0.6432    0.0160    0.7252 C.3     1  UNL1        0.0098
     13 C          -1.9918    0.5838    0.5382 C.ar    1  UNL1       -0.0385
     14 C          -2.9361    0.4435    1.5260 C.ar    1  UNL1       -0.0565
     15 C          -4.2251    0.9712    1.3787 C.ar    1  UNL1       -0.0417
     16 C          -4.5463    1.6362    0.2323 C.ar    1  UNL1        0.0593
     17 CL         -6.1732    2.2824    0.0873 Cl      1  UNL1       -0.0820
     18 C          -3.6121    1.7799   -0.7551 C.ar    1  UNL1        0.0595
     19 CL         -4.0554    2.6354   -2.2079 Cl      1  UNL1       -0.0820
     20 C          -2.3535    1.2603   -0.6023 C.ar    1  UNL1       -0.0382
     21 C           0.3120    0.8643   -0.1273 C.3     1  UNL1       -0.0390
     22 H           4.4125    3.1795   -0.2389 H       1  UNL1        0.1182
     23 H           4.8560    2.2222   -1.5427 H       1  UNL1        0.1182
     24 H           4.2761    1.2294    1.1797 H       1  UNL1        0.0422
     25 H           4.4856    0.2461   -0.3481 H       1  UNL1        0.0422
     26 H           2.4167    2.4309    0.2594 H       1  UNL1        0.0280
     27 H           2.4740    1.5699   -1.2883 H       1  UNL1        0.0280
     28 H           1.6741    0.3933    1.4357 H       1  UNL1        0.0305
     29 H           2.7008   -1.4404    0.4191 H       1  UNL1        0.0316
     30 H           2.3492   -0.9187   -1.2457 H       1  UNL1        0.0316
     31 H           1.7927   -3.4995   -0.9867 H       1  UNL1        0.0620
     32 H          -0.1720   -4.9732   -0.9810 H       1  UNL1        0.0618
     33 H          -2.3304   -4.1836   -0.2061 H       1  UNL1        0.0618
     34 H          -2.5584   -1.8961    0.5791 H       1  UNL1        0.0621
     35 H          -0.2947    0.1342    1.7721 H       1  UNL1        0.0397
     36 H          -2.7393   -0.0699    2.4488 H       1  UNL1        0.0621
     37 H          -4.9653    0.8555    2.1648 H       1  UNL1        0.0633
     38 H          -1.5901    1.3708   -1.3946 H       1  UNL1        0.0635
     39 H           0.2245    0.4792   -1.1642 H       1  UNL1        0.0277
     40 H           0.1399    1.9318   -0.0135 H       1  UNL1        0.0277
@<TRIPOS>BOND
     1     1     2    1
     2     2     3    1
     3     3     4    1
     4     4     5    1
     5     5     6    1
     6     6     7   ar
     7     7     8   ar
     8     8     9   ar
     9     9    10   ar
    10    10    11   ar
    11    11    12    1
    12    12    13    1
    13    13    14   ar
    14    14    15   ar
    15    15    16   ar
    16    16    17    1
    17    16    18   ar
    18    18    19    1
    19    18    20   ar
    20    12    21    1
    21    21     4    1
    22    11     6   ar
    23    20    13   ar
    24     1    22    1
    25     1    23    1
    26     2    24    1
    27     2    25    1
    28     3    26    1
    29     3    27    1
    30     4    28    1
    31     5    29    1
    32     5    30    1
    33     7    31    1
    34     8    32    1
    35     9    33    1
    36    10    34    1
    37    12    35    1
    38    14    36    1
    39    15    37    1
    40    20    38    1
    41    21    39    1
    42    21    40    1
