
     RDKit          3D

 40 42  0  0  0  0  0  0  0  0999 V2000
    4.8857    2.2630   -0.5019 N   0  0  0  0  0  0  0  0  0  0  0  0
    4.1044    1.1671    0.0923 C   0  0  0  0  0  0  0  0  0  0  0  0
    2.6617    1.4563   -0.2047 C   0  0  0  0  0  0  0  0  0  0  0  0
    1.7146    0.4377    0.3288 C   0  0  2  0  0  0  0  0  0  0  0  0
    1.9374   -0.9430   -0.2059 C   0  0  0  0  0  0  0  0  0  0  0  0
    0.7225   -1.7916   -0.1825 C   0  0  0  0  0  0  0  0  0  0  0  0
    0.8419   -3.0838   -0.6237 C   0  0  0  0  0  0  0  0  0  0  0  0
   -0.2372   -3.9486   -0.6382 C   0  0  0  0  0  0  0  0  0  0  0  0
   -1.4749   -3.5159   -0.2003 C   0  0  0  0  0  0  0  0  0  0  0  0
   -1.5802   -2.2153    0.2402 C   0  0  0  0  0  0  0  0  0  0  0  0
   -0.5030   -1.3604    0.2520 C   0  0  0  0  0  0  0  0  0  0  0  0
   -0.6432    0.0160    0.7252 C   0  0  2  0  0  0  0  0  0  0  0  0
   -1.9918    0.5838    0.5382 C   0  0  0  0  0  0  0  0  0  0  0  0
   -2.9361    0.4435    1.5260 C   0  0  0  0  0  0  0  0  0  0  0  0
   -4.2251    0.9712    1.3787 C   0  0  0  0  0  0  0  0  0  0  0  0
   -4.5463    1.6362    0.2323 C   0  0  0  0  0  0  0  0  0  0  0  0
   -6.1732    2.2824    0.0873 Cl  0  0  0  0  0  0  0  0  0  0  0  0
   -3.6121    1.7799   -0.7551 C   0  0  0  0  0  0  0  0  0  0  0  0
   -4.0554    2.6354   -2.2079 Cl  0  0  0  0  0  0  0  0  0  0  0  0
   -2.3535    1.2603   -0.6023 C   0  0  0  0  0  0  0  0  0  0  0  0
    0.3120    0.8643   -0.1273 C   0  0  0  0  0  0  0  0  0  0  0  0
    4.4125    3.1795   -0.2389 H   0  0  0  0  0  0  0  0  0  0  0  0
    4.8560    2.2222   -1.5427 H   0  0  0  0  0  0  0  0  0  0  0  0
    4.2761    1.2294    1.1797 H   0  0  0  0  0  0  0  0  0  0  0  0
    4.4856    0.2461   -0.3481 H   0  0  0  0  0  0  0  0  0  0  0  0
    2.4167    2.4309    0.2594 H   0  0  0  0  0  0  0  0  0  0  0  0
    2.4740    1.5699   -1.2883 H   0  0  0  0  0  0  0  0  0  0  0  0
    1.6741    0.3933    1.4357 H   0  0  0  0  0  0  0  0  0  0  0  0
    2.7008   -1.4404    0.4191 H   0  0  0  0  0  0  0  0  0  0  0  0
    2.3492   -0.9187   -1.2457 H   0  0  0  0  0  0  0  0  0  0  0  0
    1.7927   -3.4995   -0.9867 H   0  0  0  0  0  0  0  0  0  0  0  0
   -0.1720   -4.9732   -0.9810 H   0  0  0  0  0  0  0  0  0  0  0  0
   -2.3304   -4.1836   -0.2061 H   0  0  0  0  0  0  0  0  0  0  0  0
   -2.5584   -1.8961    0.5791 H   0  0  0  0  0  0  0  0  0  0  0  0
   -0.2947    0.1342    1.7721 H   0  0  0  0  0  0  0  0  0  0  0  0
   -2.7393   -0.0699    2.4488 H   0  0  0  0  0  0  0  0  0  0  0  0
   -4.9653    0.8555    2.1648 H   0  0  0  0  0  0  0  0  0  0  0  0
   -1.5901    1.3708   -1.3946 H   0  0  0  0  0  0  0  0  0  0  0  0
    0.2245    0.4792   -1.1642 H   0  0  0  0  0  0  0  0  0  0  0  0
    0.1399    1.9318   -0.0135 H   0  0  0  0  0  0  0  0  0  0  0  0
  1  2  1  0
  2  3  1  0
  3  4  1  0
  4  5  1  0
  5  6  1  0
  6  7  2  0
  7  8  1  0
  8  9  2  0
  9 10  1  0
 10 11  2  0
 11 12  1  0
 12 13  1  0
 13 14  2  0
 14 15  1  0
 15 16  2  0
 16 17  1  0
 16 18  1  0
 18 19  1  0
 18 20  2  0
 12 21  1  0
 21  4  1  0
 11  6  1  0
 20 13  1  0
  1 22  1  0
  1 23  1  0
  2 24  1  0
  2 25  1  0
  3 26  1  0
  3 27  1  0
  4 28  1  1
  5 29  1  0
  5 30  1  0
  7 31  1  0
  8 32  1  0
  9 33  1  0
 10 34  1  0
 12 35  1  1
 14 36  1  0
 15 37  1  0
 20 38  1  0
 21 39  1  0
 21 40  1  0
M  END
$$$$
