@<TRIPOS>MOLECULE
*****
 33 35 0 0 0
SMALL
GASTEIGER

@<TRIPOS>ATOM
      1 N2          3.7298   -2.4875    0.1979 N.pl3   1    G1       -0.3289
      2 C2          3.3763   -1.1063    0.2318 C.ar    1    G1        0.1950
      3 N3          2.0913   -0.7381    0.0727 N.ar    1    G1       -0.1963
      4 C4          1.7019    0.5557    0.0962 C.ar    1    G1        0.1712
      5 C5          2.6512    1.5399    0.2899 C.ar    1    G1        0.1721
      6 N7          1.9878    2.6985    0.2666 N.ar    1    G1       -0.2286
      7 C8          0.6871    2.4705    0.0692 C.ar    1    G1        0.1005
      8 N9          0.5101    1.1393   -0.0366 N.ar    1    G1       -0.2854
      9 C1*        -0.7704    0.5680   -0.2520 C.3     1    G1        0.1667
     10 O4*        -1.7298    0.9012    0.7122 O.3     1    G1       -0.3457
     11 C4*        -2.8385    0.2626    0.1749 C.3     1    G1        0.1126
     12 C5*        -4.0347    0.3079    1.0847 C.3     1    G1        0.0730
     13 O5*        -4.3742    1.6206    1.3201 O.3     1    G1       -0.3924
     14 C3*        -2.3380   -1.1516   -0.0422 C.3     1    G1        0.1135
     15 O3*        -2.9593   -1.5773   -1.2327 O.3     1    G1       -0.3864
     16 C2*        -0.8372   -0.9114   -0.2590 C.3     1    G1        0.1285
     17 O2*        -0.5313   -1.3956   -1.5040 O.3     1    G1       -0.3847
     18 C6          3.9662    1.1251    0.4504 C.ar    1    G1        0.2803
     19 O6          4.8310    2.0365    0.6277 O.2     1    G1       -0.2654
     20 N1          4.3356   -0.1815    0.4233 N.ar    1    G1       -0.2934
     21 H21         4.6980   -2.8001    0.3329 H       1    G1        0.1451
     22 H22         2.9941   -3.2087    0.0323 H       1    G1        0.1451
     23 H8          0.0367    3.3446    0.0304 H       1    G1        0.1030
     24 H1*        -1.2163    0.9199   -1.2255 H       1    G1        0.0866
     25 H4*        -3.0635    0.7634   -0.7896 H       1    G1        0.0647
     26 H5*1       -4.8695   -0.1788    0.5063 H       1    G1        0.0584
     27 H5*2       -3.8906   -0.3036    1.9736 H       1    G1        0.0584
     28 H5*        -3.6975    2.2654    0.9945 H       1    G1        0.2095
     29 H3*        -2.5500   -1.8121    0.8006 H       1    G1        0.0647
     30 H3*        -3.1775   -0.8068   -1.8220 H       1    G1        0.2100
     31 H2*        -0.2883   -1.4018    0.5649 H       1    G1        0.0665
     32 H2*         0.2118   -2.0220   -1.5601 H       1    G1        0.2101
     33 H1          5.3576   -0.4360    0.5521 H       1    G1        0.1716
@<TRIPOS>BOND
     1     1     2    1
     2     2     3   ar
     3     3     4   ar
     4     4     5   ar
     5     5     6   ar
     6     6     7   ar
     7     7     8   ar
     8     8     9    1
     9     9    10    1
    10    10    11    1
    11    11    12    1
    12    12    13    1
    13    11    14    1
    14    14    15    1
    15    14    16    1
    16    16    17    1
    17     5    18   ar
    18    18    19    2
    19    18    20   ar
    20    20     2   ar
    21     8     4   ar
    22    16     9    1
    23     1    21    1
    24     1    22    1
    25     7    23    1
    26     9    24    1
    27    11    25    1
    28    12    26    1
    29    12    27    1
    30    13    28    1
    31    14    29    1
    32    15    30    1
    33    16    31    1
    34    17    32    1
    35    20    33    1
