@<TRIPOS>MOLECULE
*****
 65 68 0 0 0
SMALL
GASTEIGER

@<TRIPOS>ATOM
      1 O           3.0952   -0.2747   -2.5706 O.2     1  UNL1       -0.2702
      2 C           3.4771    0.0303   -1.3890 C.2     1  UNL1        0.2444
      3 N           3.5064   -1.0117   -0.4400 N.am    1  UNL1       -0.3050
      4 C           3.1056   -2.3609   -0.8513 C.3     1  UNL1        0.0607
      5 C           4.2802   -3.2690   -0.5514 C.3     1  UNL1       -0.0260
      6 C           4.1133   -3.7109    0.8800 C.3     1  UNL1       -0.0126
      7 C           5.2873   -3.2730    1.7348 C.3     1  UNL1        0.0472
      8 O           5.1408   -3.6755    3.0514 O.3     1  UNL1       -0.3947
      9 C           2.8182   -3.0893    1.3669 C.3     1  UNL1       -0.0089
     10 C           2.0535   -2.9122    0.0800 C.3     1  UNL1        0.1219
     11 O           0.9292   -2.1036    0.2041 O.3     1  UNL1       -0.4560
     12 C          -0.3176   -2.6600   -0.1440 C.2     1  UNL1        0.3397
     13 O          -0.3442   -3.8718   -0.5526 O.2     1  UNL1       -0.2449
     14 C          -1.5437   -1.9083   -0.0521 C.ar    1  UNL1        0.0659
     15 C          -2.7350   -2.4832   -0.3996 C.ar    1  UNL1       -0.0053
     16 C          -3.9225   -1.7872   -0.3219 C.ar    1  UNL1        0.1320
     17 O          -5.1107   -2.4122   -0.6856 O.3     1  UNL1       -0.5059
     18 C          -3.9691   -0.4575    0.1160 C.ar    1  UNL1        0.1050
     19 C          -5.2390    0.1735    0.2732 C.2     1  UNL1        0.2044
     20 O          -6.2379   -0.6419    0.4425 O.2     1  UNL1       -0.2863
     21 C          -5.5781    1.5718    0.2844 C.ar    1  UNL1        0.0778
     22 C          -6.5524    1.9628    1.2169 C.ar    1  UNL1        0.1285
     23 O          -7.1065    1.0113    2.0733 O.3     1  UNL1       -0.5060
     24 C          -7.0019    3.2455    1.3409 C.ar    1  UNL1       -0.0194
     25 C          -6.4973    4.2353    0.5268 C.ar    1  UNL1       -0.0575
     26 C          -5.5561    3.8576   -0.3799 C.ar    1  UNL1       -0.0468
     27 C          -5.0772    2.5387   -0.5312 C.ar    1  UNL1        0.0731
     28 C          -4.2341    2.2556   -1.6786 C.2     1  UNL1        0.3376
     29 O          -3.7210    3.2112   -2.3072 O.2     1  UNL1       -0.2451
     30 O          -3.9834    0.9903   -2.1098 O.3     1  UNL1       -0.4771
     31 C          -2.7433    0.1014    0.4642 C.ar    1  UNL1        0.1320
     32 O          -2.7428    1.4151    0.9105 O.3     1  UNL1       -0.5059
     33 C          -1.5427   -0.6145    0.3810 C.ar    1  UNL1       -0.0053
     34 C           3.8577    1.4020   -1.0712 C.ar    1  UNL1        0.0369
     35 C           4.2781    1.8137    0.1710 C.ar    1  UNL1       -0.0462
     36 C           4.6339    3.1134    0.4532 C.ar    1  UNL1       -0.0195
     37 C           4.5647    4.0525   -0.5653 C.ar    1  UNL1        0.1169
     38 O           4.9108    5.3732   -0.3366 O.3     1  UNL1       -0.5068
     39 C           4.1481    3.6763   -1.8222 C.ar    1  UNL1       -0.0195
     40 C           3.8010    2.3633   -2.0609 C.ar    1  UNL1       -0.0462
     41 H           3.8112   -0.8114    0.5379 H       1  UNL1        0.1494
     42 H           2.8232   -2.3672   -1.9024 H       1  UNL1        0.0535
     43 H           5.2395   -2.6937   -0.6568 H       1  UNL1        0.0288
     44 H           4.3009   -4.1095   -1.2705 H       1  UNL1        0.0288
     45 H           4.0034   -4.8058    0.8823 H       1  UNL1        0.0325
     46 H           6.1784   -3.8142    1.3322 H       1  UNL1        0.0560
     47 H           5.4492   -2.1972    1.6252 H       1  UNL1        0.0560
     48 H           4.7250   -2.9282    3.5606 H       1  UNL1        0.2094
     49 H           2.2993   -3.8244    2.0377 H       1  UNL1        0.0305
     50 H           2.9627   -2.1665    1.9331 H       1  UNL1        0.0305
     51 H           1.8169   -3.9396   -0.2941 H       1  UNL1        0.0753
     52 H          -2.7492   -3.5249   -0.7494 H       1  UNL1        0.0662
     53 H          -5.5569   -2.2684   -1.5824 H       1  UNL1        0.2922
     54 H          -8.0361    0.6909    1.9135 H       1  UNL1        0.2922
     55 H          -7.7626    3.5197    2.0776 H       1  UNL1        0.0654
     56 H          -6.8584    5.2569    0.6336 H       1  UNL1        0.0619
     57 H          -5.1333    4.6160   -1.0424 H       1  UNL1        0.0626
     58 H          -3.7844    0.8248   -3.0915 H       1  UNL1        0.2954
     59 H          -2.1250    2.0742    0.4638 H       1  UNL1        0.2922
     60 H          -0.6397   -0.0921    0.6733 H       1  UNL1        0.0662
     61 H           4.3385    1.1042    0.9711 H       1  UNL1        0.0626
     62 H           4.9656    3.4329    1.4376 H       1  UNL1        0.0654
     63 H           5.9031    5.6300   -0.3255 H       1  UNL1        0.2921
     64 H           4.1073    4.4333   -2.5869 H       1  UNL1        0.0654
     65 H           3.4766    2.0827   -3.0494 H       1  UNL1        0.0626
@<TRIPOS>BOND
     1     1     2    2
     2     2     3   am
     3     3     4    1
     4     4     5    1
     5     5     6    1
     6     6     7    1
     7     7     8    1
     8     6     9    1
     9     9    10    1
    10    10    11    1
    11    11    12    1
    12    12    13    2
    13    12    14    1
    14    14    15   ar
    15    15    16   ar
    16    16    17    1
    17    16    18   ar
    18    18    19    1
    19    19    20    2
    20    19    21    1
    21    21    22   ar
    22    22    23    1
    23    22    24   ar
    24    24    25   ar
    25    25    26   ar
    26    26    27   ar
    27    27    28    1
    28    28    29    2
    29    28    30    1
    30    18    31   ar
    31    31    32    1
    32    31    33   ar
    33     2    34    1
    34    34    35   ar
    35    35    36   ar
    36    36    37   ar
    37    37    38    1
    38    37    39   ar
    39    39    40   ar
    40    10     4    1
    41    33    14   ar
    42    40    34   ar
    43    27    21   ar
    44     3    41    1
    45     4    42    1
    46     5    43    1
    47     5    44    1
    48     6    45    1
    49     7    46    1
    50     7    47    1
    51     8    48    1
    52     9    49    1
    53     9    50    1
    54    10    51    1
    55    15    52    1
    56    17    53    1
    57    23    54    1
    58    24    55    1
    59    25    56    1
    60    26    57    1
    61    30    58    1
    62    32    59    1
    63    33    60    1
    64    35    61    1
    65    36    62    1
    66    38    63    1
    67    39    64    1
    68    40    65    1
