
     RDKit          3D

 65 68  0  0  0  0  0  0  0  0999 V2000
    3.0952   -0.2747   -2.5706 O   0  0  0  0  0  0  0  0  0  0  0  0
    3.4771    0.0303   -1.3890 C   0  0  0  0  0  0  0  0  0  0  0  0
    3.5064   -1.0117   -0.4400 N   0  0  0  0  0  0  0  0  0  0  0  0
    3.1056   -2.3609   -0.8513 C   0  0  1  0  0  0  0  0  0  0  0  0
    4.2802   -3.2690   -0.5514 C   0  0  0  0  0  0  0  0  0  0  0  0
    4.1133   -3.7109    0.8800 C   0  0  1  0  0  0  0  0  0  0  0  0
    5.2873   -3.2730    1.7348 C   0  0  0  0  0  0  0  0  0  0  0  0
    5.1408   -3.6755    3.0514 O   0  0  0  0  0  0  0  0  0  0  0  0
    2.8182   -3.0893    1.3669 C   0  0  0  0  0  0  0  0  0  0  0  0
    2.0535   -2.9122    0.0800 C   0  0  1  0  0  0  0  0  0  0  0  0
    0.9292   -2.1036    0.2041 O   0  0  0  0  0  0  0  0  0  0  0  0
   -0.3176   -2.6600   -0.1440 C   0  0  0  0  0  0  0  0  0  0  0  0
   -0.3442   -3.8718   -0.5526 O   0  0  0  0  0  0  0  0  0  0  0  0
   -1.5437   -1.9083   -0.0521 C   0  0  0  0  0  0  0  0  0  0  0  0
   -2.7350   -2.4832   -0.3996 C   0  0  0  0  0  0  0  0  0  0  0  0
   -3.9225   -1.7872   -0.3219 C   0  0  0  0  0  0  0  0  0  0  0  0
   -5.1107   -2.4122   -0.6856 O   0  0  0  0  0  0  0  0  0  0  0  0
   -3.9691   -0.4575    0.1160 C   0  0  0  0  0  0  0  0  0  0  0  0
   -5.2390    0.1735    0.2732 C   0  0  0  0  0  0  0  0  0  0  0  0
   -6.2379   -0.6419    0.4425 O   0  0  0  0  0  0  0  0  0  0  0  0
   -5.5781    1.5718    0.2844 C   0  0  0  0  0  0  0  0  0  0  0  0
   -6.5524    1.9628    1.2169 C   0  0  0  0  0  0  0  0  0  0  0  0
   -7.1065    1.0113    2.0733 O   0  0  0  0  0  0  0  0  0  0  0  0
   -7.0019    3.2455    1.3409 C   0  0  0  0  0  0  0  0  0  0  0  0
   -6.4973    4.2353    0.5268 C   0  0  0  0  0  0  0  0  0  0  0  0
   -5.5561    3.8576   -0.3799 C   0  0  0  0  0  0  0  0  0  0  0  0
   -5.0772    2.5387   -0.5312 C   0  0  0  0  0  0  0  0  0  0  0  0
   -4.2341    2.2556   -1.6786 C   0  0  0  0  0  0  0  0  0  0  0  0
   -3.7210    3.2112   -2.3072 O   0  0  0  0  0  0  0  0  0  0  0  0
   -3.9834    0.9903   -2.1098 O   0  0  0  0  0  0  0  0  0  0  0  0
   -2.7433    0.1014    0.4642 C   0  0  0  0  0  0  0  0  0  0  0  0
   -2.7428    1.4151    0.9105 O   0  0  0  0  0  0  0  0  0  0  0  0
   -1.5427   -0.6145    0.3810 C   0  0  0  0  0  0  0  0  0  0  0  0
    3.8577    1.4020   -1.0712 C   0  0  0  0  0  0  0  0  0  0  0  0
    4.2781    1.8137    0.1710 C   0  0  0  0  0  0  0  0  0  0  0  0
    4.6339    3.1134    0.4532 C   0  0  0  0  0  0  0  0  0  0  0  0
    4.5647    4.0525   -0.5653 C   0  0  0  0  0  0  0  0  0  0  0  0
    4.9108    5.3732   -0.3366 O   0  0  0  0  0  0  0  0  0  0  0  0
    4.1481    3.6763   -1.8222 C   0  0  0  0  0  0  0  0  0  0  0  0
    3.8010    2.3633   -2.0609 C   0  0  0  0  0  0  0  0  0  0  0  0
    3.8112   -0.8114    0.5379 H   0  0  0  0  0  0  0  0  0  0  0  0
    2.8232   -2.3672   -1.9024 H   0  0  0  0  0  0  0  0  0  0  0  0
    5.2395   -2.6937   -0.6568 H   0  0  0  0  0  0  0  0  0  0  0  0
    4.3009   -4.1095   -1.2705 H   0  0  0  0  0  0  0  0  0  0  0  0
    4.0034   -4.8058    0.8823 H   0  0  0  0  0  0  0  0  0  0  0  0
    6.1784   -3.8142    1.3322 H   0  0  0  0  0  0  0  0  0  0  0  0
    5.4492   -2.1972    1.6252 H   0  0  0  0  0  0  0  0  0  0  0  0
    4.7250   -2.9282    3.5606 H   0  0  0  0  0  0  0  0  0  0  0  0
    2.2993   -3.8244    2.0377 H   0  0  0  0  0  0  0  0  0  0  0  0
    2.9627   -2.1665    1.9331 H   0  0  0  0  0  0  0  0  0  0  0  0
    1.8169   -3.9396   -0.2941 H   0  0  0  0  0  0  0  0  0  0  0  0
   -2.7492   -3.5249   -0.7494 H   0  0  0  0  0  0  0  0  0  0  0  0
   -5.5569   -2.2684   -1.5824 H   0  0  0  0  0  0  0  0  0  0  0  0
   -8.0361    0.6909    1.9135 H   0  0  0  0  0  0  0  0  0  0  0  0
   -7.7626    3.5197    2.0776 H   0  0  0  0  0  0  0  0  0  0  0  0
   -6.8584    5.2569    0.6336 H   0  0  0  0  0  0  0  0  0  0  0  0
   -5.1333    4.6160   -1.0424 H   0  0  0  0  0  0  0  0  0  0  0  0
   -3.7844    0.8248   -3.0915 H   0  0  0  0  0  0  0  0  0  0  0  0
   -2.1250    2.0742    0.4638 H   0  0  0  0  0  0  0  0  0  0  0  0
   -0.6397   -0.0921    0.6733 H   0  0  0  0  0  0  0  0  0  0  0  0
    4.3385    1.1042    0.9711 H   0  0  0  0  0  0  0  0  0  0  0  0
    4.9656    3.4329    1.4376 H   0  0  0  0  0  0  0  0  0  0  0  0
    5.9031    5.6300   -0.3255 H   0  0  0  0  0  0  0  0  0  0  0  0
    4.1073    4.4333   -2.5869 H   0  0  0  0  0  0  0  0  0  0  0  0
    3.4766    2.0827   -3.0494 H   0  0  0  0  0  0  0  0  0  0  0  0
  1  2  2  0
  2  3  1  0
  3  4  1  0
  4  5  1  0
  5  6  1  0
  6  7  1  0
  7  8  1  0
  6  9  1  0
  9 10  1  0
 10 11  1  0
 11 12  1  0
 12 13  2  0
 12 14  1  0
 14 15  2  0
 15 16  1  0
 16 17  1  0
 16 18  2  0
 18 19  1  0
 19 20  2  0
 19 21  1  0
 21 22  2  0
 22 23  1  0
 22 24  1  0
 24 25  2  0
 25 26  1  0
 26 27  2  0
 27 28  1  0
 28 29  2  0
 28 30  1  0
 18 31  1  0
 31 32  1  0
 31 33  2  0
  2 34  1  0
 34 35  2  0
 35 36  1  0
 36 37  2  0
 37 38  1  0
 37 39  1  0
 39 40  2  0
 10  4  1  0
 33 14  1  0
 40 34  1  0
 27 21  1  0
  3 41  1  0
  4 42  1  6
  5 43  1  0
  5 44  1  0
  6 45  1  6
  7 46  1  0
  7 47  1  0
  8 48  1  0
  9 49  1  0
  9 50  1  0
 10 51  1  6
 15 52  1  0
 17 53  1  0
 23 54  1  0
 24 55  1  0
 25 56  1  0
 26 57  1  0
 30 58  1  0
 32 59  1  0
 33 60  1  0
 35 61  1  0
 36 62  1  0
 38 63  1  0
 39 64  1  0
 40 65  1  0
M  END
$$$$
