@<TRIPOS>MOLECULE
*****
 50 53 0 0 0
SMALL
GASTEIGER

@<TRIPOS>ATOM
      1 C           6.8511    0.2904   -0.1355 C.3     1  UNL1       -0.0305
      2 C           6.1701   -0.8316    0.6516 C.3     1  UNL1        0.0913
      3 O           4.7982   -0.5307    0.7244 O.3     1  UNL1       -0.4505
      4 C           3.8579   -1.3206    1.3627 C.2     1  UNL1        0.4029
      5 O           4.2171   -2.3893    1.9285 O.2     1  UNL1       -0.2263
      6 N           2.5459   -0.7407    1.2598 N.am    1  UNL1       -0.2668
      7 C           2.1000    0.4602    0.6318 C.3     1  UNL1        0.0215
      8 C           1.2240    0.1363   -0.5538 C.3     1  UNL1       -0.0148
      9 C          -0.0918   -0.4147   -0.2006 C.2     1  UNL1       -0.0568
     10 C           0.3361   -1.5476    0.6084 C.3     1  UNL1       -0.0148
     11 C           1.3128   -1.1933    1.7525 C.3     1  UNL1        0.0215
     12 C          -1.3768   -0.0108   -0.3738 C.2     1  UNL1        0.0073
     13 C          -2.4510   -0.9072    0.1330 C.ar    1  UNL1       -0.0126
     14 C          -3.5231   -0.4774    0.9174 C.ar    1  UNL1       -0.0379
     15 C          -3.8164    0.9345    1.3563 C.3     1  UNL1       -0.0230
     16 C          -4.0431    1.8357    0.1984 C.3     1  UNL1       -0.0216
     17 C          -2.8742    2.0793   -0.6509 C.ar    1  UNL1       -0.0211
     18 C          -1.7185    1.3264   -0.9484 C.ar    1  UNL1        0.0747
     19 N          -0.7391    1.6981   -1.7723 N.ar    1  UNL1       -0.2547
     20 C          -0.7631    2.8681   -2.4189 C.ar    1  UNL1        0.0283
     21 C          -1.8846    3.6648   -2.1668 C.ar    1  UNL1       -0.0433
     22 C          -2.9235    3.3112   -1.3163 C.ar    1  UNL1       -0.0551
     23 C          -4.3994   -1.4791    1.2908 C.ar    1  UNL1       -0.0396
     24 C          -4.1745   -2.7579    0.8896 C.ar    1  UNL1        0.0413
     25 CL         -5.3352   -3.9934    1.4031 Cl      1  UNL1       -0.0835
     26 C          -3.0889   -3.1555    0.1008 C.ar    1  UNL1       -0.0428
     27 C          -2.1733   -2.2029   -0.3082 C.ar    1  UNL1       -0.0523
     28 H           6.4053    0.4128   -1.1293 H       1  UNL1        0.0262
     29 H           7.9194    0.0151   -0.2580 H       1  UNL1        0.0262
     30 H           6.7083    1.2381    0.4178 H       1  UNL1        0.0262
     31 H           6.5595   -0.8048    1.6905 H       1  UNL1        0.0695
     32 H           6.3933   -1.8137    0.2259 H       1  UNL1        0.0695
     33 H           2.9976    0.9729    0.1806 H       1  UNL1        0.0469
     34 H           1.5625    1.1832    1.2710 H       1  UNL1        0.0469
     35 H           1.1994    1.0579   -1.1755 H       1  UNL1        0.0325
     36 H           1.8034   -0.6063   -1.2005 H       1  UNL1        0.0325
     37 H           0.8252   -2.3760    0.0840 H       1  UNL1        0.0325
     38 H          -0.5886   -1.9457    1.1565 H       1  UNL1        0.0325
     39 H           1.4767   -2.1811    2.2852 H       1  UNL1        0.0469
     40 H           0.8092   -0.5680    2.5195 H       1  UNL1        0.0469
     41 H          -4.6269    0.9100    2.0764 H       1  UNL1        0.0317
     42 H          -2.9159    1.3328    1.9028 H       1  UNL1        0.0317
     43 H          -4.4346    2.8134    0.5551 H       1  UNL1        0.0317
     44 H          -4.8507    1.4478   -0.4812 H       1  UNL1        0.0317
     45 H          -0.0677    3.3166   -3.1082 H       1  UNL1        0.0830
     46 H          -2.0091    4.6461   -2.6433 H       1  UNL1        0.0633
     47 H          -3.7642    3.9631   -1.1582 H       1  UNL1        0.0621
     48 H          -5.2265   -1.1474    1.8969 H       1  UNL1        0.0635
     49 H          -2.9138   -4.1590   -0.2133 H       1  UNL1        0.0632
     50 H          -1.2983   -2.3601   -0.9333 H       1  UNL1        0.0624
@<TRIPOS>BOND
     1     1     2    1
     2     2     3    1
     3     3     4    1
     4     4     5    2
     5     4     6   am
     6     6     7    1
     7     7     8    1
     8     8     9    1
     9     9    10    1
    10    10    11    1
    11     9    12    2
    12    12    13    1
    13    13    14   ar
    14    14    15    1
    15    15    16    1
    16    16    17    1
    17    17    18   ar
    18    18    19   ar
    19    19    20   ar
    20    20    21   ar
    21    21    22   ar
    22    14    23   ar
    23    23    24   ar
    24    24    25    1
    25    24    26   ar
    26    26    27   ar
    27    11     6    1
    28    18    12    1
    29    27    13   ar
    30    22    17   ar
    31     1    28    1
    32     1    29    1
    33     1    30    1
    34     2    31    1
    35     2    32    1
    36     7    33    1
    37     7    34    1
    38     8    35    1
    39     8    36    1
    40    10    37    1
    41    10    38    1
    42    11    39    1
    43    11    40    1
    44    15    41    1
    45    15    42    1
    46    16    43    1
    47    16    44    1
    48    20    45    1
    49    21    46    1
    50    22    47    1
    51    23    48    1
    52    26    49    1
    53    27    50    1
