@<TRIPOS>MOLECULE
*****
 41 44 0 0 0
SMALL
GASTEIGER

@<TRIPOS>ATOM
      1 C          -3.2676    1.1585    1.2292 C.3     1  UNL1       -0.0063
      2 C          -3.7277    0.9502   -0.1915 C.ar    1  UNL1        0.1065
      3 N          -5.0243    0.9449   -0.5354 N.ar    1  UNL1       -0.2409
      4 C          -5.1164    0.7563   -1.8519 C.ar    1  UNL1        0.0457
      5 C          -3.8571    0.6433   -2.3276 C.ar    1  UNL1        0.0243
      6 N          -2.9909    0.7662   -1.2752 N.ar    1  UNL1       -0.3338
      7 C          -1.5478    0.6846   -1.3816 C.3     1  UNL1        0.0342
      8 C          -1.0221   -0.7267   -1.3124 C.3     1  UNL1        0.0405
      9 C          -1.3284   -1.4364   -0.0479 C.3     1  UNL1       -0.0362
     10 C          -0.5264   -1.1185    1.1482 C.3     1  UNL1       -0.0109
     11 C           0.8703   -0.7106    0.8336 C.ar    1  UNL1        0.0300
     12 C           1.3328   -0.5425   -0.4507 C.ar    1  UNL1        0.0461
     13 C           2.6803   -0.1567   -0.4351 C.ar    1  UNL1        0.0106
     14 C           3.5971    0.1335   -1.4252 C.ar    1  UNL1       -0.0519
     15 C           4.8807    0.4916   -1.0757 C.ar    1  UNL1       -0.0611
     16 C           5.2203    0.5516    0.2681 C.ar    1  UNL1       -0.0598
     17 C           4.2911    0.2577    1.2599 C.ar    1  UNL1       -0.0376
     18 C           3.0059   -0.1007    0.9046 C.ar    1  UNL1        0.0497
     19 N           1.9264   -0.4302    1.6299 N.ar    1  UNL1       -0.3462
     20 C           1.8633   -0.4889    3.0900 C.3     1  UNL1        0.0121
     21 C           0.4397   -0.7694   -1.5650 C.2     1  UNL1        0.1702
     22 O           0.9263   -0.9937   -2.7032 O.2     1  UNL1       -0.2916
     23 H          -3.9102    1.9180    1.7237 H       1  UNL1        0.0307
     24 H          -2.2426    1.5791    1.1896 H       1  UNL1        0.0307
     25 H          -3.2699    0.2060    1.7706 H       1  UNL1        0.0307
     26 H          -6.0675    0.7105   -2.3931 H       1  UNL1        0.0845
     27 H          -3.5538    0.4818   -3.3649 H       1  UNL1        0.0825
     28 H          -1.2550    1.0702   -2.4020 H       1  UNL1        0.0499
     29 H          -1.0357    1.3239   -0.6615 H       1  UNL1        0.0499
     30 H          -1.5453   -1.3376   -2.1274 H       1  UNL1        0.0398
     31 H          -1.1598   -2.5432   -0.2711 H       1  UNL1        0.0276
     32 H          -2.4202   -1.3765    0.1728 H       1  UNL1        0.0276
     33 H          -0.5209   -2.0462    1.8030 H       1  UNL1        0.0328
     34 H          -0.9296   -0.3350    1.8232 H       1  UNL1        0.0328
     35 H           3.3231    0.0840   -2.4673 H       1  UNL1        0.0624
     36 H           5.6429    0.7305   -1.8113 H       1  UNL1        0.0618
     37 H           6.2228    0.8311    0.5459 H       1  UNL1        0.0618
     38 H           4.5620    0.3067    2.2878 H       1  UNL1        0.0638
     39 H           1.4464   -1.4655    3.3882 H       1  UNL1        0.0456
     40 H           1.2141    0.3203    3.4921 H       1  UNL1        0.0456
     41 H           2.8739   -0.3223    3.5169 H       1  UNL1        0.0456
@<TRIPOS>BOND
     1     1     2    1
     2     2     3   ar
     3     3     4   ar
     4     4     5   ar
     5     5     6   ar
     6     6     7    1
     7     7     8    1
     8     8     9    1
     9     9    10    1
    10    10    11    1
    11    11    12   ar
    12    12    13   ar
    13    13    14   ar
    14    14    15   ar
    15    15    16   ar
    16    16    17   ar
    17    17    18   ar
    18    18    19   ar
    19    19    20    1
    20    12    21    1
    21    21    22    2
    22     6     2   ar
    23    21     8    1
    24    19    11   ar
    25    18    13   ar
    26     1    23    1
    27     1    24    1
    28     1    25    1
    29     4    26    1
    30     5    27    1
    31     7    28    1
    32     7    29    1
    33     8    30    1
    34     9    31    1
    35     9    32    1
    36    10    33    1
    37    10    34    1
    38    14    35    1
    39    15    36    1
    40    16    37    1
    41    17    38    1
    42    20    39    1
    43    20    40    1
    44    20    41    1
