
     RDKit          3D

 41 44  0  0  0  0  0  0  0  0999 V2000
   -3.2676    1.1585    1.2292 C   0  0  0  0  0  0  0  0  0  0  0  0
   -3.7277    0.9502   -0.1915 C   0  0  0  0  0  0  0  0  0  0  0  0
   -5.0243    0.9449   -0.5354 N   0  0  0  0  0  0  0  0  0  0  0  0
   -5.1164    0.7563   -1.8519 C   0  0  0  0  0  0  0  0  0  0  0  0
   -3.8571    0.6433   -2.3276 C   0  0  0  0  0  0  0  0  0  0  0  0
   -2.9909    0.7662   -1.2752 N   0  0  0  0  0  0  0  0  0  0  0  0
   -1.5478    0.6846   -1.3816 C   0  0  0  0  0  0  0  0  0  0  0  0
   -1.0221   -0.7267   -1.3124 C   0  0  0  0  0  0  0  0  0  0  0  0
   -1.3284   -1.4364   -0.0479 C   0  0  0  0  0  0  0  0  0  0  0  0
   -0.5264   -1.1185    1.1482 C   0  0  0  0  0  0  0  0  0  0  0  0
    0.8703   -0.7106    0.8336 C   0  0  0  0  0  0  0  0  0  0  0  0
    1.3328   -0.5425   -0.4507 C   0  0  0  0  0  0  0  0  0  0  0  0
    2.6803   -0.1567   -0.4351 C   0  0  0  0  0  0  0  0  0  0  0  0
    3.5971    0.1335   -1.4252 C   0  0  0  0  0  0  0  0  0  0  0  0
    4.8807    0.4916   -1.0757 C   0  0  0  0  0  0  0  0  0  0  0  0
    5.2203    0.5516    0.2681 C   0  0  0  0  0  0  0  0  0  0  0  0
    4.2911    0.2577    1.2599 C   0  0  0  0  0  0  0  0  0  0  0  0
    3.0059   -0.1007    0.9046 C   0  0  0  0  0  0  0  0  0  0  0  0
    1.9264   -0.4302    1.6299 N   0  0  0  0  0  0  0  0  0  0  0  0
    1.8633   -0.4889    3.0900 C   0  0  0  0  0  0  0  0  0  0  0  0
    0.4397   -0.7694   -1.5650 C   0  0  0  0  0  0  0  0  0  0  0  0
    0.9263   -0.9937   -2.7032 O   0  0  0  0  0  0  0  0  0  0  0  0
   -3.9102    1.9180    1.7237 H   0  0  0  0  0  0  0  0  0  0  0  0
   -2.2426    1.5791    1.1896 H   0  0  0  0  0  0  0  0  0  0  0  0
   -3.2699    0.2060    1.7706 H   0  0  0  0  0  0  0  0  0  0  0  0
   -6.0675    0.7105   -2.3931 H   0  0  0  0  0  0  0  0  0  0  0  0
   -3.5538    0.4818   -3.3649 H   0  0  0  0  0  0  0  0  0  0  0  0
   -1.2550    1.0702   -2.4020 H   0  0  0  0  0  0  0  0  0  0  0  0
   -1.0357    1.3239   -0.6615 H   0  0  0  0  0  0  0  0  0  0  0  0
   -1.5453   -1.3376   -2.1274 H   0  0  0  0  0  0  0  0  0  0  0  0
   -1.1598   -2.5432   -0.2711 H   0  0  0  0  0  0  0  0  0  0  0  0
   -2.4202   -1.3765    0.1728 H   0  0  0  0  0  0  0  0  0  0  0  0
   -0.5209   -2.0462    1.8030 H   0  0  0  0  0  0  0  0  0  0  0  0
   -0.9296   -0.3350    1.8232 H   0  0  0  0  0  0  0  0  0  0  0  0
    3.3231    0.0840   -2.4673 H   0  0  0  0  0  0  0  0  0  0  0  0
    5.6429    0.7305   -1.8113 H   0  0  0  0  0  0  0  0  0  0  0  0
    6.2228    0.8311    0.5459 H   0  0  0  0  0  0  0  0  0  0  0  0
    4.5620    0.3067    2.2878 H   0  0  0  0  0  0  0  0  0  0  0  0
    1.4464   -1.4655    3.3882 H   0  0  0  0  0  0  0  0  0  0  0  0
    1.2141    0.3203    3.4921 H   0  0  0  0  0  0  0  0  0  0  0  0
    2.8739   -0.3223    3.5169 H   0  0  0  0  0  0  0  0  0  0  0  0
  1  2  1  0
  2  3  2  0
  3  4  1  0
  4  5  2  0
  5  6  1  0
  6  7  1  0
  7  8  1  0
  8  9  1  0
  9 10  1  0
 10 11  1  0
 11 12  2  0
 12 13  1  0
 13 14  2  0
 14 15  1  0
 15 16  2  0
 16 17  1  0
 17 18  2  0
 18 19  1  0
 19 20  1  0
 12 21  1  0
 21 22  2  0
  6  2  1  0
 21  8  1  0
 19 11  1  0
 18 13  1  0
  1 23  1  0
  1 24  1  0
  1 25  1  0
  4 26  1  0
  5 27  1  0
  7 28  1  0
  7 29  1  0
  8 30  1  0
  9 31  1  0
  9 32  1  0
 10 33  1  0
 10 34  1  0
 14 35  1  0
 15 36  1  0
 16 37  1  0
 17 38  1  0
 20 39  1  0
 20 40  1  0
 20 41  1  0
M  END
$$$$
