@<TRIPOS>MOLECULE
*****
 50 52 0 0 0
SMALL
GASTEIGER

@<TRIPOS>ATOM
      1 C          -5.2761    2.0643   -0.7824 C.3     1  UNL1        0.0365
      2 O          -4.8718    1.7915    0.4929 O.3     1  UNL1       -0.3814
      3 C          -5.2249    0.5274    0.8948 C.3     1  UNL1        0.0645
      4 C          -4.5710   -0.5002    0.0015 C.3     1  UNL1        0.0552
      5 C          -4.7695   -1.8973    0.5875 C.3     1  UNL1       -0.0323
      6 C          -3.7523   -1.9447    1.6894 C.3     1  UNL1       -0.0370
      7 C          -2.7612   -0.8622    1.3626 C.3     1  UNL1        0.0209
      8 N          -3.1443   -0.2889    0.1129 N.3     1  UNL1       -0.1713
      9 S          -2.3263   -0.8993   -1.2489 S.O2    1  UNL1        0.0612
     10 O          -2.5843   -2.3965   -1.3327 O.2     1  UNL1       -0.1528
     11 O          -2.9323   -0.3095   -2.4894 O.2     1  UNL1       -0.1528
     12 C          -0.6058   -0.6112   -1.1753 C.ar    1  UNL1        0.1073
     13 C           0.1795   -1.5651   -0.5815 C.ar    1  UNL1       -0.0204
     14 C           1.5653   -1.3775   -0.4990 C.ar    1  UNL1        0.0373
     15 I           2.6876   -2.9149    0.3964 I       1  UNL1       -0.0418
     16 C           2.2021   -0.2653   -0.9895 C.ar    1  UNL1        0.0608
     17 C           1.3844    0.6888   -1.5884 C.ar    1  UNL1        0.0512
     18 C          -0.0026    0.5153   -1.6786 C.ar    1  UNL1       -0.0225
     19 C           2.2398    1.7668   -2.0423 C.2     1  UNL1        0.2496
     20 O           1.8345    2.7956   -2.6292 O.2     1  UNL1       -0.2817
     21 C           3.5942    1.4383   -1.7009 C.2     1  UNL1        0.2913
     22 O           4.6453    2.1382   -1.9347 O.2     1  UNL1       -0.2661
     23 N           3.5765    0.1757   -1.0446 N.am    1  UNL1       -0.2631
     24 C           4.7312   -0.5575   -0.5171 C.3     1  UNL1        0.0203
     25 C           5.0638   -0.2138    0.8915 C.3     1  UNL1       -0.0344
     26 C           5.4975    1.2065    1.1296 C.3     1  UNL1       -0.0232
     27 C           6.7866    1.4889    0.4155 C.3     1  UNL1        0.0902
     28 F           7.1905    2.8076    0.6257 F       1  UNL1       -0.2491
     29 H          -4.8550    1.4185   -1.5659 H       1  UNL1        0.0523
     30 H          -5.0025    3.1119   -1.1043 H       1  UNL1        0.0523
     31 H          -6.4034    1.9732   -0.7875 H       1  UNL1        0.0523
     32 H          -6.3267    0.3711    0.9280 H       1  UNL1        0.0576
     33 H          -4.7775    0.3661    1.9106 H       1  UNL1        0.0576
     34 H          -4.9090   -0.4712   -1.0468 H       1  UNL1        0.0502
     35 H          -5.7991   -2.0116    0.9833 H       1  UNL1        0.0282
     36 H          -4.6005   -2.6309   -0.1964 H       1  UNL1        0.0282
     37 H          -3.2350   -2.9473    1.7036 H       1  UNL1        0.0279
     38 H          -4.2239   -1.7853    2.6827 H       1  UNL1        0.0279
     39 H          -1.7379   -1.2800    1.3755 H       1  UNL1        0.0444
     40 H          -2.7677   -0.0391    2.1243 H       1  UNL1        0.0444
     41 H          -0.2697   -2.4801   -0.1676 H       1  UNL1        0.0648
     42 H          -0.6198    1.2682   -2.1473 H       1  UNL1        0.0645
     43 H           4.7413   -1.6155   -0.7625 H       1  UNL1        0.0469
     44 H           5.5972   -0.1498   -1.1391 H       1  UNL1        0.0469
     45 H           5.9208   -0.8396    1.2859 H       1  UNL1        0.0281
     46 H           4.1754   -0.3533    1.5583 H       1  UNL1        0.0281
     47 H           4.6741    1.8741    0.7962 H       1  UNL1        0.0291
     48 H           5.6490    1.2951    2.2345 H       1  UNL1        0.0291
     49 H           7.5957    0.8169    0.8499 H       1  UNL1        0.0615
     50 H           6.8178    1.3077   -0.6488 H       1  UNL1        0.0615
@<TRIPOS>BOND
     1     1     2    1
     2     2     3    1
     3     3     4    1
     4     4     5    1
     5     5     6    1
     6     6     7    1
     7     7     8    1
     8     8     9    1
     9     9    10    2
    10     9    11    2
    11     9    12    1
    12    12    13   ar
    13    13    14   ar
    14    14    15    1
    15    14    16   ar
    16    16    17   ar
    17    17    18   ar
    18    17    19    1
    19    19    20    2
    20    19    21    1
    21    21    22    2
    22    21    23   am
    23    23    24    1
    24    24    25    1
    25    25    26    1
    26    26    27    1
    27    27    28    1
    28     8     4    1
    29    18    12   ar
    30    23    16    1
    31     1    29    1
    32     1    30    1
    33     1    31    1
    34     3    32    1
    35     3    33    1
    36     4    34    1
    37     5    35    1
    38     5    36    1
    39     6    37    1
    40     6    38    1
    41     7    39    1
    42     7    40    1
    43    13    41    1
    44    18    42    1
    45    24    43    1
    46    24    44    1
    47    25    45    1
    48    25    46    1
    49    26    47    1
    50    26    48    1
    51    27    49    1
    52    27    50    1
