
     RDKit          3D

 48 51  0  0  0  0  0  0  0  0999 V2000
    3.9447    1.8804   -0.3004 C   0  0  0  0  0  0  0  0  0  0  0  0
    4.2483    0.4319   -0.3653 C   0  0  0  0  0  0  0  0  0  0  0  0
    5.5065    0.0882   -0.9101 C   0  0  0  0  0  0  0  0  0  0  0  0
    5.8554   -1.2292   -0.9516 C   0  0  0  0  0  0  0  0  0  0  0  0
    7.2018   -1.5511   -1.5387 C   0  0  0  0  0  0  0  0  0  0  0  0
    7.2203   -0.9994   -2.8019 F   0  0  0  0  0  0  0  0  0  0  0  0
    8.1237   -0.8718   -0.7572 F   0  0  0  0  0  0  0  0  0  0  0  0
    5.0139   -2.1843   -0.4808 C   0  0  0  0  0  0  0  0  0  0  0  0
    3.8373   -1.8051    0.0225 N   0  0  0  0  0  0  0  0  0  0  0  0
    3.4064   -0.5248    0.1037 C   0  0  0  0  0  0  0  0  0  0  0  0
    2.0966   -0.3021    0.6141 C   0  0  0  0  0  0  0  0  0  0  0  0
    1.6051   -1.2280    1.3802 O   0  0  0  0  0  0  0  0  0  0  0  0
    1.2185    0.7801    0.4186 N   0  0  0  0  0  0  0  0  0  0  0  0
   -0.0600    0.7764    1.0564 C   0  0  0  0  0  0  0  0  0  0  0  0
   -0.1779    1.3325    2.3075 C   0  0  0  0  0  0  0  0  0  0  0  0
   -1.3904    1.3421    2.9378 C   0  0  0  0  0  0  0  0  0  0  0  0
   -2.4755    0.7749    2.2684 C   0  0  0  0  0  0  0  0  0  0  0  0
   -4.0033    0.9200    3.1468 Cl  0  0  0  0  0  0  0  0  0  0  0  0
   -2.3923    0.2135    1.0289 C   0  0  0  0  0  0  0  0  0  0  0  0
   -3.5641   -0.4207    0.3976 C   0  0  1  0  0  0  0  0  0  0  0  0
   -3.9575   -1.6640    1.1271 C   0  0  0  0  0  0  0  0  0  0  0  0
   -4.3058   -1.5599    2.4232 F   0  0  0  0  0  0  0  0  0  0  0  0
   -4.5956    0.5523    0.3334 N   0  0  0  0  0  0  0  0  0  0  0  0
   -4.8605    1.3246   -0.6207 C   0  0  0  0  0  0  0  0  0  0  0  0
   -5.9280    2.2885   -0.6043 N   0  0  0  0  0  0  0  0  0  0  0  0
   -4.0523    1.2228   -1.7646 O   0  0  0  0  0  0  0  0  0  0  0  0
   -3.5595   -0.0569   -2.1130 C   0  0  2  0  0  0  0  0  0  0  0  0
   -4.4074   -1.2685   -1.8343 C   0  0  0  0  0  0  0  0  0  0  0  0
   -3.1877   -0.9114   -1.0085 C   0  0  2  0  0  0  0  0  0  0  0  0
   -1.1440    0.2245    0.4215 C   0  0  0  0  0  0  0  0  0  0  0  0
    3.4131    2.2144   -1.1861 H   0  0  0  0  0  0  0  0  0  0  0  0
    3.4838    2.1020    0.6676 H   0  0  0  0  0  0  0  0  0  0  0  0
    4.9437    2.4218   -0.2945 H   0  0  0  0  0  0  0  0  0  0  0  0
    6.1605    0.8668   -1.2791 H   0  0  0  0  0  0  0  0  0  0  0  0
    7.3907   -2.6336   -1.5280 H   0  0  0  0  0  0  0  0  0  0  0  0
    5.2997   -3.2114   -0.5186 H   0  0  0  0  0  0  0  0  0  0  0  0
    1.4831    1.5552   -0.1959 H   0  0  0  0  0  0  0  0  0  0  0  0
    0.6886    1.7687    2.8064 H   0  0  0  0  0  0  0  0  0  0  0  0
   -1.4556    1.7795    3.9078 H   0  0  0  0  0  0  0  0  0  0  0  0
   -4.7264   -2.2523    0.5363 H   0  0  0  0  0  0  0  0  0  0  0  0
   -3.0620   -2.3725    1.1010 H   0  0  0  0  0  0  0  0  0  0  0  0
   -5.7774    3.1625   -1.1393 H   0  0  0  0  0  0  0  0  0  0  0  0
   -6.8133    2.1543   -0.0982 H   0  0  0  0  0  0  0  0  0  0  0  0
   -2.9811   -0.1062   -3.0452 H   0  0  0  0  0  0  0  0  0  0  0  0
   -5.4151   -1.0315   -1.4550 H   0  0  0  0  0  0  0  0  0  0  0  0
   -4.3649   -2.1181   -2.5211 H   0  0  0  0  0  0  0  0  0  0  0  0
   -2.3983   -1.6567   -1.0514 H   0  0  0  0  0  0  0  0  0  0  0  0
   -1.0859   -0.2185   -0.5634 H   0  0  0  0  0  0  0  0  0  0  0  0
  1  2  1  0
  2  3  2  0
  3  4  1  0
  4  5  1  0
  5  6  1  0
  5  7  1  0
  4  8  2  0
  8  9  1  0
  9 10  2  0
 10 11  1  0
 11 12  2  0
 11 13  1  0
 13 14  1  0
 14 15  2  0
 15 16  1  0
 16 17  2  0
 17 18  1  0
 17 19  1  0
 19 20  1  0
 20 21  1  1
 21 22  1  0
 20 23  1  0
 23 24  2  0
 24 25  1  0
 24 26  1  0
 26 27  1  0
 27 28  1  0
 28 29  1  0
 19 30  2  0
 10  2  1  0
 30 14  1  0
 29 20  1  0
 29 27  1  0
  1 31  1  0
  1 32  1  0
  1 33  1  0
  3 34  1  0
  5 35  1  0
  8 36  1  0
 13 37  1  0
 15 38  1  0
 16 39  1  0
 21 40  1  0
 21 41  1  0
 25 42  1  0
 25 43  1  0
 27 44  1  6
 28 45  1  0
 28 46  1  0
 29 47  1  1
 30 48  1  0
M  END
$$$$
