@<TRIPOS>MOLECULE
*****
 48 51 0 0 0
SMALL
GASTEIGER

@<TRIPOS>ATOM
      1 C           3.9447    1.8804   -0.3004 C.3     1  UNL1       -0.0375
      2 C           4.2483    0.4319   -0.3653 C.ar    1  UNL1       -0.0195
      3 C           5.5065    0.0882   -0.9101 C.ar    1  UNL1       -0.0467
      4 C           5.8554   -1.2292   -0.9516 C.ar    1  UNL1        0.0358
      5 C           7.2018   -1.5511   -1.5387 C.3     1  UNL1        0.2658
      6 F           7.2203   -0.9994   -2.8019 F       1  UNL1       -0.2039
      7 F           8.1237   -0.8718   -0.7572 F       1  UNL1       -0.2039
      8 C           5.0139   -2.1843   -0.4808 C.ar    1  UNL1        0.0369
      9 N           3.8373   -1.8051    0.0225 N.ar    1  UNL1       -0.2496
     10 C           3.4064   -0.5248    0.1037 C.ar    1  UNL1        0.1286
     11 C           2.0966   -0.3021    0.6141 C.2     1  UNL1        0.2668
     12 O           1.6051   -1.2280    1.3802 O.2     1  UNL1       -0.2682
     13 N           1.2185    0.7801    0.4186 N.am    1  UNL1       -0.2802
     14 C          -0.0600    0.7764    1.0564 C.ar    1  UNL1        0.0341
     15 C          -0.1779    1.3325    2.3075 C.ar    1  UNL1       -0.0391
     16 C          -1.3904    1.3421    2.9378 C.ar    1  UNL1       -0.0413
     17 C          -2.4755    0.7749    2.2684 C.ar    1  UNL1        0.0466
     18 CL         -4.0033    0.9200    3.1468 Cl      1  UNL1       -0.0832
     19 C          -2.3923    0.2135    1.0289 C.ar    1  UNL1        0.0030
     20 C          -3.5641   -0.4207    0.3976 C.3     1  UNL1        0.1271
     21 C          -3.9575   -1.6640    1.1271 C.3     1  UNL1        0.1199
     22 F          -4.3058   -1.5599    2.4232 F       1  UNL1       -0.2462
     23 N          -4.5956    0.5523    0.3334 N.2     1  UNL1       -0.2225
     24 C          -4.8605    1.3246   -0.6207 C.2     1  UNL1        0.2763
     25 N          -5.9280    2.2885   -0.6043 N.pl3   1  UNL1       -0.3134
     26 O          -4.0523    1.2228   -1.7646 O.2     1  UNL1       -0.4622
     27 C          -3.5595   -0.0569   -2.1130 C.3     1  UNL1        0.1090
     28 C          -4.4074   -1.2685   -1.8343 C.3     1  UNL1       -0.0065
     29 C          -3.1877   -0.9114   -1.0085 C.3     1  UNL1        0.0314
     30 C          -1.1440    0.2245    0.4215 C.ar    1  UNL1       -0.0335
     31 H           3.4131    2.2144   -1.1861 H       1  UNL1        0.0278
     32 H           3.4838    2.1020    0.6676 H       1  UNL1        0.0278
     33 H           4.9437    2.4218   -0.2945 H       1  UNL1        0.0278
     34 H           6.1605    0.8668   -1.2791 H       1  UNL1        0.0626
     35 H           7.3907   -2.6336   -1.5280 H       1  UNL1        0.1072
     36 H           5.2997   -3.2114   -0.5186 H       1  UNL1        0.0834
     37 H           1.4831    1.5552   -0.1959 H       1  UNL1        0.1552
     38 H           0.6886    1.7687    2.8064 H       1  UNL1        0.0636
     39 H          -1.4556    1.7795    3.9078 H       1  UNL1        0.0633
     40 H          -4.7264   -2.2523    0.5363 H       1  UNL1        0.0643
     41 H          -3.0620   -2.3725    1.1010 H       1  UNL1        0.0643
     42 H          -5.7774    3.1625   -1.1393 H       1  UNL1        0.1466
     43 H          -6.8133    2.1543   -0.0982 H       1  UNL1        0.1466
     44 H          -2.9811   -0.1062   -3.0452 H       1  UNL1        0.0737
     45 H          -5.4151   -1.0315   -1.4550 H       1  UNL1        0.0306
     46 H          -4.3649   -2.1181   -2.5211 H       1  UNL1        0.0306
     47 H          -2.3983   -1.6567   -1.0514 H       1  UNL1        0.0365
     48 H          -1.0859   -0.2185   -0.5634 H       1  UNL1        0.0640
@<TRIPOS>BOND
     1     1     2    1
     2     2     3   ar
     3     3     4   ar
     4     4     5    1
     5     5     6    1
     6     5     7    1
     7     4     8   ar
     8     8     9   ar
     9     9    10   ar
    10    10    11    1
    11    11    12    2
    12    11    13   am
    13    13    14    1
    14    14    15   ar
    15    15    16   ar
    16    16    17   ar
    17    17    18    1
    18    17    19   ar
    19    19    20    1
    20    20    21    1
    21    21    22    1
    22    20    23    1
    23    23    24    2
    24    24    25    1
    25    24    26    1
    26    26    27    1
    27    27    28    1
    28    28    29    1
    29    19    30   ar
    30    10     2   ar
    31    30    14   ar
    32    29    20    1
    33    29    27    1
    34     1    31    1
    35     1    32    1
    36     1    33    1
    37     3    34    1
    38     5    35    1
    39     8    36    1
    40    13    37    1
    41    15    38    1
    42    16    39    1
    43    21    40    1
    44    21    41    1
    45    25    42    1
    46    25    43    1
    47    27    44    1
    48    28    45    1
    49    28    46    1
    50    29    47    1
    51    30    48    1
