
     RDKit          3D

 85 93  0  0  0  0  0  0  0  0999 V2000
    3.8548   -5.3014   -0.0119 C   0  0  0  0  0  0  0  0  0  0  0  0
    3.6453   -3.8077    0.0250 C   0  0  0  0  0  0  0  0  0  0  0  0
    4.6730   -2.9273    0.0918 C   0  0  0  0  0  0  0  0  0  0  0  0
    6.0496   -3.3980    0.1403 C   0  0  0  0  0  0  0  0  0  0  0  0
    7.2447   -2.8839    0.2058 C   0  0  0  0  0  0  0  0  0  0  0  0
    4.1047   -1.6937    0.0945 C   0  0  0  0  0  0  0  0  0  0  0  0
    4.9549   -0.6846    0.1500 C   0  0  0  0  0  0  0  0  0  0  0  0
    4.2753    0.6032    0.1443 C   0  0  0  0  0  0  0  0  0  0  0  0
    3.0296    0.8738    0.0973 N   0  0  0  0  0  4  0  0  0  0  0  0
    3.0240    2.2737    0.1164 C   0  0  0  0  0  0  0  0  0  0  0  0
    1.9979    3.0886    0.0734 C   0  0  0  0  0  0  0  0  0  0  0  0
    0.6852    2.4094    0.0011 C   0  0  0  0  0  0  0  0  0  0  0  0
   -0.4239    3.2271   -0.0600 C   0  0  0  0  0  0  0  0  0  0  0  0
   -0.4780    4.7390   -0.0515 C   0  0  0  0  0  0  0  0  0  0  0  0
   -1.4769    2.3608   -0.1246 C   0  0  0  0  0  0  0  0  0  0  0  0
   -2.7890    3.0284   -0.2467 C   0  0  0  0  0  0  0  0  0  0  0  0
   -3.2638    3.6747    1.0522 C   0  0  0  0  0  0  0  0  0  0  0  0
   -4.5901    4.2847    0.9024 C   0  0  0  0  0  0  0  0  0  0  0  0
   -5.5454    4.3877   -0.0775 O   0  0  0  0  0  0  0  0  0  0  0  0
   -5.0789    4.9000    1.8604 O   0  0  0  0  0  0  0  0  0  0  0  0
   -0.9611    1.0901   -0.0981 C   0  0  0  0  0  0  0  0  0  0  0  0
    0.3759    1.1279   -0.0223 N   0  0  0  0  0  0  0  0  0  0  0  0
    1.5756   -0.3081    0.0236 Fe  0  0  0  0  0  4  0  0  0  0  0  0
    2.7786   -1.7241    0.0351 N   0  0  0  0  0  0  0  0  0  0  0  0
    2.5418   -3.0203   -0.0056 C   0  0  0  0  0  0  0  0  0  0  0  0
    1.3814   -3.6208   -0.0778 C   0  0  0  0  0  0  0  0  0  0  0  0
    0.2238   -2.7385   -0.1096 C   0  0  0  0  0  0  0  0  0  0  0  0
    0.1151   -1.4585   -0.0790 N   0  0  0  0  0  4  0  0  0  0  0  0
   -1.2745   -1.1936   -0.1427 C   0  0  0  0  0  0  0  0  0  0  0  0
   -2.0121   -2.4425   -0.2112 C   0  0  0  0  0  0  0  0  0  0  0  0
   -3.3952   -2.8949   -0.3052 C   0  0  0  0  0  0  0  0  0  0  0  0
   -4.2006   -2.8750    0.9695 C   0  0  0  0  0  0  0  0  0  0  0  0
   -5.5803   -3.3633    0.5763 C   0  0  0  0  0  0  0  0  0  0  0  0
   -6.5307   -2.6297   -0.0997 O   0  0  0  0  0  0  0  0  0  0  0  0
   -5.9968   -4.5408    0.8468 O   0  0  0  0  0  0  0  0  0  0  0  0
   -1.0804   -3.3780   -0.1923 C   0  0  0  0  0  0  0  0  0  0  0  0
   -1.4358   -4.8641   -0.2547 C   0  0  0  0  0  0  0  0  0  0  0  0
   -1.9229   -0.0339   -0.1617 C   0  0  0  0  0  0  0  0  0  0  0  0
   -3.3984    0.1139   -0.2760 C   0  0  0  0  0  0  0  0  0  0  0  0
   -4.1262    0.4728    0.8801 C   0  0  0  0  0  0  0  0  0  0  0  0
   -5.4838    0.6956    0.9496 C   0  0  0  0  0  0  0  0  0  0  0  0
   -6.1819    0.5514   -0.2195 C   0  0  0  0  0  0  0  0  0  0  0  0
   -5.5301    0.2019   -1.3820 C   0  0  0  0  0  0  0  0  0  0  0  0
   -4.1759   -0.0182   -1.4452 C   0  0  0  0  0  0  0  0  0  0  0  0
    4.3506    2.8388    0.1791 C   0  0  0  0  0  0  0  0  0  0  0  0
    4.8531    4.1857    0.2140 C   0  0  0  0  0  0  0  0  0  0  0  0
    4.1848    5.2998    0.2022 C   0  0  0  0  0  0  0  0  0  0  0  0
    5.1049    1.7830    0.1959 C   0  0  0  0  0  0  0  0  0  0  0  0
    6.6057    1.9578    0.2602 C   0  0  0  0  0  0  0  0  0  0  0  0
    4.7307   -5.4645   -0.6854 H   0  0  0  0  0  0  0  0  0  0  0  0
    4.0554   -5.6660    1.0140 H   0  0  0  0  0  0  0  0  0  0  0  0
    2.9452   -5.7550   -0.3897 H   0  0  0  0  0  0  0  0  0  0  0  0
    6.3136   -4.4148    0.1269 H   0  0  0  0  0  0  0  0  0  0  0  0
    8.2963   -2.7760    0.2548 H   0  0  0  0  0  0  0  0  0  0  0  0
    8.0172   -2.1324    0.2583 H   0  0  0  0  0  0  0  0  0  0  0  0
    6.0617   -0.7803    0.1977 H   0  0  0  0  0  0  0  0  0  0  0  0
    2.1068    4.1946    0.0933 H   0  0  0  0  0  0  0  0  0  0  0  0
   -1.2994    5.0855   -0.6727 H   0  0  0  0  0  0  0  0  0  0  0  0
    0.4421    5.1081   -0.6315 H   0  0  0  0  0  0  0  0  0  0  0  0
   -0.3405    5.1775    0.9320 H   0  0  0  0  0  0  0  0  0  0  0  0
   -2.7056    3.9591   -0.9467 H   0  0  0  0  0  0  0  0  0  0  0  0
   -3.6026    2.4499   -0.6408 H   0  0  0  0  0  0  0  0  0  0  0  0
   -3.3090    2.9842    1.9098 H   0  0  0  0  0  0  0  0  0  0  0  0
   -2.4894    4.4321    1.3588 H   0  0  0  0  0  0  0  0  0  0  0  0
   -5.8050    5.2362   -0.5208 H   0  0  0  0  0  0  0  0  0  0  0  0
    1.2838   -4.7330   -0.1100 H   0  0  0  0  0  0  0  0  0  0  0  0
   -3.4466   -4.0144   -0.5611 H   0  0  0  0  0  0  0  0  0  0  0  0
   -3.9770   -2.5358   -1.1835 H   0  0  0  0  0  0  0  0  0  0  0  0
   -4.1809   -2.0189    1.5917 H   0  0  0  0  0  0  0  0  0  0  0  0
   -3.7664   -3.7087    1.6468 H   0  0  0  0  0  0  0  0  0  0  0  0
   -7.5144   -2.5669    0.1090 H   0  0  0  0  0  0  0  0  0  0  0  0
   -2.1304   -5.0312    0.5894 H   0  0  0  0  0  0  0  0  0  0  0  0
   -1.8897   -5.0848   -1.2476 H   0  0  0  0  0  0  0  0  0  0  0  0
   -0.5680   -5.4764   -0.0766 H   0  0  0  0  0  0  0  0  0  0  0  0
   -3.5498    0.5787    1.7897 H   0  0  0  0  0  0  0  0  0  0  0  0
   -5.9120    0.9632    1.8855 H   0  0  0  0  0  0  0  0  0  0  0  0
   -7.2464    0.7108   -0.2284 H   0  0  0  0  0  0  0  0  0  0  0  0
   -6.0502    0.0814   -2.3177 H   0  0  0  0  0  0  0  0  0  0  0  0
   -3.5899   -0.2909   -2.2964 H   0  0  0  0  0  0  0  0  0  0  0  0
    5.8695    4.4187    0.2573 H   0  0  0  0  0  0  0  0  0  0  0  0
    3.7546    6.2675    0.1977 H   0  0  0  0  0  0  0  0  0  0  0  0
    4.0245    6.3465    0.2094 H   0  0  0  0  0  0  0  0  0  0  0  0
    7.0708    0.9863    0.4245 H   0  0  0  0  0  0  0  0  0  0  0  0
    6.9153    2.4465   -0.6937 H   0  0  0  0  0  0  0  0  0  0  0  0
    6.7882    2.6544    1.1097 H   0  0  0  0  0  0  0  0  0  0  0  0
  1  2  1  0
  2  3  2  0
  3  4  1  0
  4  5  2  0
  3  6  1  0
  6  7  2  0
  7  8  1  0
  8  9  2  0
  9 10  1  0
 10 11  2  0
 11 12  1  0
 12 13  2  0
 13 14  1  0
 13 15  1  0
 15 16  1  0
 16 17  1  0
 17 18  1  0
 18 19  1  0
 18 20  2  0
 15 21  2  0
 21 22  1  0
 22 23  1  0
 23 24  1  0
 24 25  1  0
 25 26  2  0
 26 27  1  0
 27 28  2  0
 28 29  1  0
 29 30  1  0
 30 31  1  0
 31 32  1  0
 32 33  1  0
 33 34  1  0
 33 35  2  0
 30 36  2  0
 36 37  1  0
 29 38  2  0
 38 39  1  0
 39 40  2  0
 40 41  1  0
 41 42  2  0
 42 43  1  0
 43 44  2  0
 10 45  1  0
 45 46  1  0
 46 47  2  0
 45 48  2  0
 48 49  1  0
 25  2  1  0
 36 27  1  0
 44 39  1  0
 24  6  1  0
 48  8  1  0
 23  9  1  0
 28 23  1  0
 22 12  1  0
 38 21  1  0
  1 50  1  0
  1 51  1  0
  1 52  1  0
  4 53  1  0
  5 54  1  0
  5 55  1  0
  7 56  1  0
 11 57  1  0
 14 58  1  0
 14 59  1  0
 14 60  1  0
 16 61  1  0
 16 62  1  0
 17 63  1  0
 17 64  1  0
 19 65  1  0
 26 66  1  0
 31 67  1  0
 31 68  1  0
 32 69  1  0
 32 70  1  0
 34 71  1  0
 37 72  1  0
 37 73  1  0
 37 74  1  0
 40 75  1  0
 41 76  1  0
 42 77  1  0
 43 78  1  0
 44 79  1  0
 46 80  1  0
 47 81  1  0
 47 82  1  0
 49 83  1  0
 49 84  1  0
 49 85  1  0
M  CHG  2   9   1  28   1
M  END
$$$$
