
     RDKit          3D

 72 77  0  0  0  0  0  0  0  0999 V2000
    0.0847    6.3930    0.1152 C   0  0  0  0  0  0  0  0  0  0  0  0
   -0.7394    5.5071    1.0076 C   0  0  0  0  0  0  0  0  0  0  0  0
   -0.9879    4.2011    0.2589 C   0  0  0  0  0  0  0  0  0  0  0  0
   -1.8187    3.2738    1.0998 C   0  0  0  0  0  0  0  0  0  0  0  0
   -2.0140    2.0005    0.3810 C   0  0  0  0  0  0  0  0  0  0  0  0
   -3.0443    1.7007   -0.4040 N   0  0  0  0  0  0  0  0  0  0  0  0
   -2.9278    0.5296   -0.9345 N   0  0  0  0  0  0  0  0  0  0  0  0
   -3.8073   -0.1074   -1.8196 C   0  0  0  0  0  0  0  0  0  0  0  0
   -3.8925    0.3302   -3.1637 C   0  0  0  0  0  0  0  0  0  0  0  0
   -4.7122   -0.2774   -4.0800 C   0  0  0  0  0  0  0  0  0  0  0  0
   -5.4814   -1.3558   -3.6736 C   0  0  0  0  0  0  0  0  0  0  0  0
   -5.4028   -1.7847   -2.3675 C   0  0  0  0  0  0  0  0  0  0  0  0
   -4.5644   -1.1641   -1.4264 C   0  0  0  0  0  0  0  0  0  0  0  0
   -4.5503   -1.6680   -0.0674 C   0  0  0  0  0  0  0  0  0  0  0  0
   -4.3804   -3.0561    0.0869 C   0  0  0  0  0  0  0  0  0  0  0  0
   -4.3624   -3.6633    1.3167 C   0  0  0  0  0  0  0  0  0  0  0  0
   -4.5213   -2.8487    2.4234 C   0  0  0  0  0  0  0  0  0  0  0  0
   -4.6909   -1.4810    2.2964 C   0  0  0  0  0  0  0  0  0  0  0  0
   -4.7068   -0.8774    1.0445 C   0  0  0  0  0  0  0  0  0  0  0  0
   -1.7464   -0.0055   -0.4862 C   0  0  0  0  0  0  0  0  0  0  0  0
   -1.2334   -1.2979   -0.8858 C   0  0  0  0  0  0  0  0  0  0  0  0
   -1.9038   -1.9459   -1.7643 O   0  0  0  0  0  0  0  0  0  0  0  0
   -0.1074   -1.9055   -0.4216 O   0  0  0  0  0  0  0  0  0  0  0  0
   -1.1288    0.8783    0.3484 C   0  0  0  0  0  0  0  0  0  0  0  0
    0.0823    0.9415    1.1448 C   0  0  0  0  0  0  0  0  0  0  0  0
    1.2486    0.1609    0.8551 C   0  0  0  0  0  0  0  0  0  0  0  0
    1.9899    0.3471   -0.2943 C   0  0  0  0  0  0  0  0  0  0  0  0
    3.1558   -0.3904   -0.5057 C   0  0  0  0  0  0  0  0  0  0  0  0
    3.5743   -1.3076    0.4321 C   0  0  0  0  0  0  0  0  0  0  0  0
    4.7796   -2.0854    0.1771 C   0  0  0  0  0  0  0  0  0  0  0  0
    4.5637   -3.4468   -0.0501 C   0  0  0  0  0  0  0  0  0  0  0  0
    5.6403   -4.2362   -0.3547 C   0  0  0  0  0  0  0  0  0  0  0  0
    6.8946   -3.6715   -0.4282 C   0  0  0  0  0  0  0  0  0  0  0  0
    7.0875   -2.3379   -0.2025 C   0  0  0  0  0  0  0  0  0  0  0  0
    6.0005   -1.5118    0.1122 C   0  0  0  0  0  0  0  0  0  0  0  0
    6.2916   -0.1163    0.4274 C   0  0  0  0  0  0  0  0  0  0  0  0
    7.4601    0.5188    0.0626 N   0  0  0  0  0  0  0  0  0  0  0  0
    7.3930    1.7690    0.4462 N   0  0  0  0  0  0  0  0  0  0  0  0
    6.2608    1.9790    1.0327 N   0  0  0  0  0  0  0  0  0  0  0  0
    5.5814    0.8322    1.0269 N   0  0  0  0  0  0  0  0  0  0  0  0
    2.8527   -1.4977    1.5687 C   0  0  0  0  0  0  0  0  0  0  0  0
    1.6977   -0.7659    1.7745 C   0  0  0  0  0  0  0  0  0  0  0  0
   -0.6015    7.0152   -0.4856 H   0  0  0  0  0  0  0  0  0  0  0  0
    0.7244    5.7495   -0.5225 H   0  0  0  0  0  0  0  0  0  0  0  0
    0.6970    7.1001    0.7343 H   0  0  0  0  0  0  0  0  0  0  0  0
   -1.7144    5.9216    1.2766 H   0  0  0  0  0  0  0  0  0  0  0  0
   -0.1234    5.2765    1.9186 H   0  0  0  0  0  0  0  0  0  0  0  0
   -0.0838    3.7311   -0.1149 H   0  0  0  0  0  0  0  0  0  0  0  0
   -1.6070    4.4468   -0.6451 H   0  0  0  0  0  0  0  0  0  0  0  0
   -2.7819    3.7331    1.4007 H   0  0  0  0  0  0  0  0  0  0  0  0
   -1.2626    3.0370    2.0412 H   0  0  0  0  0  0  0  0  0  0  0  0
   -3.2740    1.1814   -3.4437 H   0  0  0  0  0  0  0  0  0  0  0  0
   -4.7692    0.0743   -5.1209 H   0  0  0  0  0  0  0  0  0  0  0  0
   -6.1336   -1.8481   -4.3967 H   0  0  0  0  0  0  0  0  0  0  0  0
   -5.9948   -2.6304   -2.0251 H   0  0  0  0  0  0  0  0  0  0  0  0
   -4.2512   -3.7073   -0.7785 H   0  0  0  0  0  0  0  0  0  0  0  0
   -4.2290   -4.7558    1.3930 H   0  0  0  0  0  0  0  0  0  0  0  0
   -4.5084   -3.3137    3.3919 H   0  0  0  0  0  0  0  0  0  0  0  0
   -4.8204   -0.8321    3.1667 H   0  0  0  0  0  0  0  0  0  0  0  0
   -4.8484    0.1818    0.9538 H   0  0  0  0  0  0  0  0  0  0  0  0
    0.2472   -2.7626   -0.8761 H   0  0  0  0  0  0  0  0  0  0  0  0
   -0.2839    0.7493    2.2290 H   0  0  0  0  0  0  0  0  0  0  0  0
    0.4401    2.0292    1.2790 H   0  0  0  0  0  0  0  0  0  0  0  0
    1.6561    1.0803   -1.0433 H   0  0  0  0  0  0  0  0  0  0  0  0
    3.6795   -0.1889   -1.4326 H   0  0  0  0  0  0  0  0  0  0  0  0
    3.5552   -3.8718    0.0151 H   0  0  0  0  0  0  0  0  0  0  0  0
    5.5341   -5.2838   -0.5406 H   0  0  0  0  0  0  0  0  0  0  0  0
    7.7290   -4.3206   -0.6723 H   0  0  0  0  0  0  0  0  0  0  0  0
    8.0847   -1.9096   -0.2636 H   0  0  0  0  0  0  0  0  0  0  0  0
    4.6424    0.7524    1.4675 H   0  0  0  0  0  0  0  0  0  0  0  0
    3.2159   -2.2318    2.2896 H   0  0  0  0  0  0  0  0  0  0  0  0
    1.1678   -0.9597    2.6961 H   0  0  0  0  0  0  0  0  0  0  0  0
  1  2  1  0
  2  3  1  0
  3  4  1  0
  4  5  1  0
  5  6  2  0
  6  7  1  0
  7  8  1  0
  8  9  2  0
  9 10  1  0
 10 11  2  0
 11 12  1  0
 12 13  2  0
 13 14  1  0
 14 15  2  0
 15 16  1  0
 16 17  2  0
 17 18  1  0
 18 19  2  0
  7 20  1  0
 20 21  1  0
 21 22  2  0
 21 23  1  0
 20 24  2  0
 24 25  1  0
 25 26  1  0
 26 27  2  0
 27 28  1  0
 28 29  2  0
 29 30  1  0
 30 31  2  0
 31 32  1  0
 32 33  2  0
 33 34  1  0
 34 35  2  0
 35 36  1  0
 36 37  2  0
 37 38  1  0
 38 39  2  0
 39 40  1  0
 29 41  1  0
 41 42  2  0
 24  5  1  0
 42 26  1  0
 13  8  1  0
 19 14  1  0
 35 30  1  0
 40 36  1  0
  1 43  1  0
  1 44  1  0
  1 45  1  0
  2 46  1  0
  2 47  1  0
  3 48  1  0
  3 49  1  0
  4 50  1  0
  4 51  1  0
  9 52  1  0
 10 53  1  0
 11 54  1  0
 12 55  1  0
 15 56  1  0
 16 57  1  0
 17 58  1  0
 18 59  1  0
 19 60  1  0
 23 61  1  0
 25 62  1  0
 25 63  1  0
 27 64  1  0
 28 65  1  0
 31 66  1  0
 32 67  1  0
 33 68  1  0
 34 69  1  0
 40 70  1  0
 41 71  1  0
 42 72  1  0
M  END
$$$$
