@<TRIPOS>MOLECULE
*****
 72 77 0 0 0
SMALL
GASTEIGER

@<TRIPOS>ATOM
      1 C           0.0847    6.3930    0.1152 C.3     1  UNL1       -0.0653
      2 C          -0.7394    5.5071    1.0076 C.3     1  UNL1       -0.0556
      3 C          -0.9879    4.2011    0.2589 C.3     1  UNL1       -0.0478
      4 C          -1.8187    3.2738    1.0998 C.3     1  UNL1       -0.0084
      5 C          -2.0140    2.0005    0.3810 C.ar    1  UNL1        0.0677
      6 N          -3.0443    1.7007   -0.4040 N.ar    1  UNL1       -0.1703
      7 N          -2.9278    0.5296   -0.9345 N.ar    1  UNL1       -0.2246
      8 C          -3.8073   -0.1074   -1.8196 C.ar    1  UNL1        0.0740
      9 C          -3.8925    0.3302   -3.1637 C.ar    1  UNL1       -0.0356
     10 C          -4.7122   -0.2774   -4.0800 C.ar    1  UNL1       -0.0597
     11 C          -5.4814   -1.3558   -3.6736 C.ar    1  UNL1       -0.0611
     12 C          -5.4028   -1.7847   -2.3675 C.ar    1  UNL1       -0.0520
     13 C          -4.5644   -1.1641   -1.4264 C.ar    1  UNL1        0.0076
     14 C          -4.5503   -1.6680   -0.0674 C.ar    1  UNL1       -0.0159
     15 C          -4.3804   -3.0561    0.0869 C.ar    1  UNL1       -0.0540
     16 C          -4.3624   -3.6633    1.3167 C.ar    1  UNL1       -0.0612
     17 C          -4.5213   -2.8487    2.4234 C.ar    1  UNL1       -0.0617
     18 C          -4.6909   -1.4810    2.2964 C.ar    1  UNL1       -0.0612
     19 C          -4.7068   -0.8774    1.0445 C.ar    1  UNL1       -0.0540
     20 C          -1.7464   -0.0055   -0.4862 C.ar    1  UNL1        0.1547
     21 C          -1.2334   -1.2979   -0.8858 C.2     1  UNL1        0.3557
     22 O          -1.9038   -1.9459   -1.7643 O.2     1  UNL1       -0.2434
     23 O          -0.1074   -1.9055   -0.4216 O.3     1  UNL1       -0.4761
     24 C          -1.1288    0.8783    0.3484 C.ar    1  UNL1        0.0123
     25 C           0.0823    0.9415    1.1448 C.3     1  UNL1        0.0016
     26 C           1.2486    0.1609    0.8551 C.ar    1  UNL1       -0.0429
     27 C           1.9899    0.3471   -0.2943 C.ar    1  UNL1       -0.0577
     28 C           3.1558   -0.3904   -0.5057 C.ar    1  UNL1       -0.0537
     29 C           3.5743   -1.3076    0.4321 C.ar    1  UNL1       -0.0172
     30 C           4.7796   -2.0854    0.1771 C.ar    1  UNL1       -0.0072
     31 C           4.5637   -3.4468   -0.0501 C.ar    1  UNL1       -0.0534
     32 C           5.6403   -4.2362   -0.3547 C.ar    1  UNL1       -0.0611
     33 C           6.8946   -3.6715   -0.4282 C.ar    1  UNL1       -0.0611
     34 C           7.0875   -2.3379   -0.2025 C.ar    1  UNL1       -0.0504
     35 C           6.0005   -1.5118    0.1122 C.ar    1  UNL1        0.0282
     36 C           6.2916   -0.1163    0.4274 C.ar    1  UNL1        0.1799
     37 N           7.4601    0.5188    0.0626 N.ar    1  UNL1       -0.1084
     38 N           7.3930    1.7690    0.4462 N.ar    1  UNL1       -0.0229
     39 N           6.2608    1.9790    1.0327 N.ar    1  UNL1       -0.0464
     40 N           5.5814    0.8322    1.0269 N.ar    1  UNL1       -0.2388
     41 C           2.8527   -1.4977    1.5687 C.ar    1  UNL1       -0.0537
     42 C           1.6977   -0.7659    1.7745 C.ar    1  UNL1       -0.0577
     43 H          -0.6015    7.0152   -0.4856 H       1  UNL1        0.0230
     44 H           0.7244    5.7495   -0.5225 H       1  UNL1        0.0230
     45 H           0.6970    7.1001    0.7343 H       1  UNL1        0.0230
     46 H          -1.7144    5.9216    1.2766 H       1  UNL1        0.0263
     47 H          -0.1234    5.2765    1.9186 H       1  UNL1        0.0263
     48 H          -0.0838    3.7311   -0.1149 H       1  UNL1        0.0269
     49 H          -1.6070    4.4468   -0.6451 H       1  UNL1        0.0269
     50 H          -2.7819    3.7331    1.4007 H       1  UNL1        0.0329
     51 H          -1.2626    3.0370    2.0412 H       1  UNL1        0.0329
     52 H          -3.2740    1.1814   -3.4437 H       1  UNL1        0.0639
     53 H          -4.7692    0.0743   -5.1209 H       1  UNL1        0.0618
     54 H          -6.1336   -1.8481   -4.3967 H       1  UNL1        0.0618
     55 H          -5.9948   -2.6304   -2.0251 H       1  UNL1        0.0624
     56 H          -4.2512   -3.7073   -0.7785 H       1  UNL1        0.0624
     57 H          -4.2290   -4.7558    1.3930 H       1  UNL1        0.0618
     58 H          -4.5084   -3.3137    3.3919 H       1  UNL1        0.0618
     59 H          -4.8204   -0.8321    3.1667 H       1  UNL1        0.0618
     60 H          -4.8484    0.1818    0.9538 H       1  UNL1        0.0624
     61 H           0.2472   -2.7626   -0.8761 H       1  UNL1        0.2955
     62 H          -0.2839    0.7493    2.2290 H       1  UNL1        0.0363
     63 H           0.4401    2.0292    1.2790 H       1  UNL1        0.0363
     64 H           1.6561    1.0803   -1.0433 H       1  UNL1        0.0621
     65 H           3.6795   -0.1889   -1.4326 H       1  UNL1        0.0624
     66 H           3.5552   -3.8718    0.0151 H       1  UNL1        0.0624
     67 H           5.5341   -5.2838   -0.5406 H       1  UNL1        0.0618
     68 H           7.7290   -4.3206   -0.6723 H       1  UNL1        0.0618
     69 H           8.0847   -1.9096   -0.2636 H       1  UNL1        0.0625
     70 H           4.6424    0.7524    1.4675 H       1  UNL1        0.1923
     71 H           3.2159   -2.2318    2.2896 H       1  UNL1        0.0624
     72 H           1.1678   -0.9597    2.6961 H       1  UNL1        0.0621
@<TRIPOS>BOND
     1     1     2    1
     2     2     3    1
     3     3     4    1
     4     4     5    1
     5     5     6   ar
     6     6     7   ar
     7     7     8    1
     8     8     9   ar
     9     9    10   ar
    10    10    11   ar
    11    11    12   ar
    12    12    13   ar
    13    13    14    1
    14    14    15   ar
    15    15    16   ar
    16    16    17   ar
    17    17    18   ar
    18    18    19   ar
    19     7    20   ar
    20    20    21    1
    21    21    22    2
    22    21    23    1
    23    20    24   ar
    24    24    25    1
    25    25    26    1
    26    26    27   ar
    27    27    28   ar
    28    28    29   ar
    29    29    30    1
    30    30    31   ar
    31    31    32   ar
    32    32    33   ar
    33    33    34   ar
    34    34    35   ar
    35    35    36    1
    36    36    37   ar
    37    37    38   ar
    38    38    39   ar
    39    39    40   ar
    40    29    41   ar
    41    41    42   ar
    42    24     5   ar
    43    42    26   ar
    44    13     8   ar
    45    19    14   ar
    46    35    30   ar
    47    40    36   ar
    48     1    43    1
    49     1    44    1
    50     1    45    1
    51     2    46    1
    52     2    47    1
    53     3    48    1
    54     3    49    1
    55     4    50    1
    56     4    51    1
    57     9    52    1
    58    10    53    1
    59    11    54    1
    60    12    55    1
    61    15    56    1
    62    16    57    1
    63    17    58    1
    64    18    59    1
    65    19    60    1
    66    23    61    1
    67    25    62    1
    68    25    63    1
    69    27    64    1
    70    28    65    1
    71    31    66    1
    72    32    67    1
    73    33    68    1
    74    34    69    1
    75    40    70    1
    76    41    71    1
    77    42    72    1
