@<TRIPOS>MOLECULE
*****
 68 70 0 0 0
SMALL
GASTEIGER

@<TRIPOS>ATOM
      1 C          -1.2857   -3.3141   -1.6977 C.3     1  UNL1       -0.0643
      2 C          -2.6779   -2.7509   -1.6272 C.3     1  UNL1       -0.0406
      3 C          -2.7248   -1.6822   -0.5865 C.3     1  UNL1        0.0619
      4 C          -2.3574   -2.2010    0.7722 C.3     1  UNL1       -0.0497
      5 C          -4.1878   -1.2276   -0.4893 C.3     1  UNL1       -0.0497
      6 C          -1.9554   -0.4731   -0.9835 C.2     1  UNL1        0.3130
      7 O          -1.3671   -0.4713   -2.0931 O.2     1  UNL1       -0.2502
      8 O          -1.8529    0.6537   -0.1938 O.3     1  UNL1       -0.4603
      9 C          -1.1340    1.8236   -0.5340 C.3     1  UNL1        0.1106
     10 C          -2.1425    2.9382   -0.5930 C.3     1  UNL1       -0.0090
     11 C          -2.1358    3.8999    0.5326 C.3     1  UNL1       -0.0218
     12 C          -3.5811    4.3710    0.7474 C.3     1  UNL1       -0.0588
     13 C          -1.7029    3.3241    1.8276 C.2     1  UNL1       -0.0775
     14 C          -0.6932    2.4807    1.7961 C.2     1  UNL1       -0.0444
     15 C          -0.1719    1.8474    2.9970 C.2     1  UNL1       -0.0621
     16 C           1.0862    1.3710    3.0196 C.2     1  UNL1       -0.0806
     17 C           1.8759    1.5355    1.7704 C.3     1  UNL1       -0.0219
     18 C           2.3501    2.9706    1.6741 C.3     1  UNL1       -0.0587
     19 C           1.0216    1.1372    0.6019 C.3     1  UNL1       -0.0247
     20 C           1.7860    1.1656   -0.6988 C.3     1  UNL1       -0.0457
     21 C           2.9751    0.2393   -0.7018 C.3     1  UNL1       -0.0153
     22 C           2.6000   -1.2148   -0.4820 C.3     1  UNL1        0.1054
     23 C           3.8983   -1.9897   -0.5128 C.3     1  UNL1        0.0109
     24 C           3.7105   -3.4694   -0.4703 C.3     1  UNL1        0.0686
     25 O           3.5770   -3.9251    0.8597 O.3     1  UNL1       -0.3911
     26 C           2.6177   -3.9709   -1.3605 C.3     1  UNL1        0.0710
     27 C           2.1639   -2.8391   -2.2229 C.2     1  UNL1        0.3098
     28 O           2.1438   -2.9717   -3.4782 O.2     1  UNL1       -0.2507
     29 O           1.7822   -1.6801   -1.5667 O.3     1  UNL1       -0.4612
     30 C          -0.0880    2.1686    0.4948 C.3     1  UNL1        0.0243
     31 H          -0.8226   -3.1734   -2.7011 H       1  UNL1        0.0230
     32 H          -1.3777   -4.4130   -1.4950 H       1  UNL1        0.0230
     33 H          -0.6308   -2.8285   -0.9587 H       1  UNL1        0.0230
     34 H          -3.4422   -3.5244   -1.3387 H       1  UNL1        0.0273
     35 H          -3.0286   -2.3504   -2.5997 H       1  UNL1        0.0273
     36 H          -1.2804   -1.9055    0.9437 H       1  UNL1        0.0240
     37 H          -2.3669   -3.3048    0.8462 H       1  UNL1        0.0240
     38 H          -2.9147   -1.7066    1.5970 H       1  UNL1        0.0240
     39 H          -4.2335   -0.2403    0.0316 H       1  UNL1        0.0240
     40 H          -4.6088   -1.1311   -1.5029 H       1  UNL1        0.0240
     41 H          -4.6955   -1.9571    0.1413 H       1  UNL1        0.0240
     42 H          -0.6791    1.6834   -1.5073 H       1  UNL1        0.0740
     43 H          -1.9634    3.5238   -1.5355 H       1  UNL1        0.0307
     44 H          -3.1786    2.5409   -0.7232 H       1  UNL1        0.0307
     45 H          -1.4914    4.7905    0.2791 H       1  UNL1        0.0342
     46 H          -3.9352    4.6869   -0.2658 H       1  UNL1        0.0235
     47 H          -4.1551    3.4558    1.0037 H       1  UNL1        0.0235
     48 H          -3.6548    5.1685    1.4847 H       1  UNL1        0.0235
     49 H          -2.1973    3.5815    2.7782 H       1  UNL1        0.0578
     50 H          -0.7786    1.7567    3.8761 H       1  UNL1        0.0617
     51 H           1.4235    0.9138    3.9224 H       1  UNL1        0.0575
     52 H           2.7762    0.9052    1.8889 H       1  UNL1        0.0343
     53 H           1.4782    3.6472    1.7578 H       1  UNL1        0.0235
     54 H           2.9572    3.1472    0.7762 H       1  UNL1        0.0235
     55 H           3.0257    3.1977    2.5401 H       1  UNL1        0.0235
     56 H           0.6220    0.1231    0.8112 H       1  UNL1        0.0313
     57 H           1.1383    0.8311   -1.5327 H       1  UNL1        0.0269
     58 H           2.1772    2.1907   -0.8484 H       1  UNL1        0.0269
     59 H           3.3903    0.2895   -1.7520 H       1  UNL1        0.0301
     60 H           3.7992    0.5608   -0.0525 H       1  UNL1        0.0301
     61 H           2.0403   -1.3579    0.4421 H       1  UNL1        0.0734
     62 H           4.4659   -1.6850    0.3955 H       1  UNL1        0.0326
     63 H           4.5043   -1.6360   -1.3756 H       1  UNL1        0.0326
     64 H           4.6701   -3.9333   -0.8282 H       1  UNL1        0.0600
     65 H           4.3746   -3.5525    1.3391 H       1  UNL1        0.2098
     66 H           2.9469   -4.8492   -1.9673 H       1  UNL1        0.0403
     67 H           1.7109   -4.2982   -0.7902 H       1  UNL1        0.0403
     68 H           0.4046    3.1075    0.1191 H       1  UNL1        0.0388
@<TRIPOS>BOND
     1     1     2    1
     2     2     3    1
     3     3     4    1
     4     3     5    1
     5     3     6    1
     6     6     7    2
     7     6     8    1
     8     8     9    1
     9     9    10    1
    10    10    11    1
    11    11    12    1
    12    11    13    1
    13    13    14    2
    14    14    15    1
    15    15    16    2
    16    16    17    1
    17    17    18    1
    18    17    19    1
    19    19    20    1
    20    20    21    1
    21    21    22    1
    22    22    23    1
    23    23    24    1
    24    24    25    1
    25    24    26    1
    26    26    27    1
    27    27    28    2
    28    27    29    1
    29    19    30    1
    30    30     9    1
    31    30    14    1
    32    29    22    1
    33     1    31    1
    34     1    32    1
    35     1    33    1
    36     2    34    1
    37     2    35    1
    38     4    36    1
    39     4    37    1
    40     4    38    1
    41     5    39    1
    42     5    40    1
    43     5    41    1
    44     9    42    1
    45    10    43    1
    46    10    44    1
    47    11    45    1
    48    12    46    1
    49    12    47    1
    50    12    48    1
    51    13    49    1
    52    15    50    1
    53    16    51    1
    54    17    52    1
    55    18    53    1
    56    18    54    1
    57    18    55    1
    58    19    56    1
    59    20    57    1
    60    20    58    1
    61    21    59    1
    62    21    60    1
    63    22    61    1
    64    23    62    1
    65    23    63    1
    66    24    64    1
    67    25    65    1
    68    26    66    1
    69    26    67    1
    70    30    68    1
