
     RDKit          3D

 68 70  0  0  0  0  0  0  0  0999 V2000
   -1.2857   -3.3141   -1.6977 C   0  0  0  0  0  0  0  0  0  0  0  0
   -2.6779   -2.7509   -1.6272 C   0  0  0  0  0  0  0  0  0  0  0  0
   -2.7248   -1.6822   -0.5865 C   0  0  0  0  0  0  0  0  0  0  0  0
   -2.3574   -2.2010    0.7722 C   0  0  0  0  0  0  0  0  0  0  0  0
   -4.1878   -1.2276   -0.4893 C   0  0  0  0  0  0  0  0  0  0  0  0
   -1.9554   -0.4731   -0.9835 C   0  0  0  0  0  0  0  0  0  0  0  0
   -1.3671   -0.4713   -2.0931 O   0  0  0  0  0  0  0  0  0  0  0  0
   -1.8529    0.6537   -0.1938 O   0  0  0  0  0  0  0  0  0  0  0  0
   -1.1340    1.8236   -0.5340 C   0  0  1  0  0  0  0  0  0  0  0  0
   -2.1425    2.9382   -0.5930 C   0  0  0  0  0  0  0  0  0  0  0  0
   -2.1358    3.8999    0.5326 C   0  0  1  0  0  0  0  0  0  0  0  0
   -3.5811    4.3710    0.7474 C   0  0  0  0  0  0  0  0  0  0  0  0
   -1.7029    3.3241    1.8276 C   0  0  0  0  0  0  0  0  0  0  0  0
   -0.6932    2.4807    1.7961 C   0  0  0  0  0  0  0  0  0  0  0  0
   -0.1719    1.8474    2.9970 C   0  0  0  0  0  0  0  0  0  0  0  0
    1.0862    1.3710    3.0196 C   0  0  0  0  0  0  0  0  0  0  0  0
    1.8759    1.5355    1.7704 C   0  0  2  0  0  0  0  0  0  0  0  0
    2.3501    2.9706    1.6741 C   0  0  0  0  0  0  0  0  0  0  0  0
    1.0216    1.1372    0.6019 C   0  0  2  0  0  0  0  0  0  0  0  0
    1.7860    1.1656   -0.6988 C   0  0  0  0  0  0  0  0  0  0  0  0
    2.9751    0.2393   -0.7018 C   0  0  0  0  0  0  0  0  0  0  0  0
    2.6000   -1.2148   -0.4820 C   0  0  2  0  0  0  0  0  0  0  0  0
    3.8983   -1.9897   -0.5128 C   0  0  0  0  0  0  0  0  0  0  0  0
    3.7105   -3.4694   -0.4703 C   0  0  1  0  0  0  0  0  0  0  0  0
    3.5770   -3.9251    0.8597 O   0  0  0  0  0  0  0  0  0  0  0  0
    2.6177   -3.9709   -1.3605 C   0  0  0  0  0  0  0  0  0  0  0  0
    2.1639   -2.8391   -2.2229 C   0  0  0  0  0  0  0  0  0  0  0  0
    2.1438   -2.9717   -3.4782 O   0  0  0  0  0  0  0  0  0  0  0  0
    1.7822   -1.6801   -1.5667 O   0  0  0  0  0  0  0  0  0  0  0  0
   -0.0880    2.1686    0.4948 C   0  0  1  0  0  0  0  0  0  0  0  0
   -0.8226   -3.1734   -2.7011 H   0  0  0  0  0  0  0  0  0  0  0  0
   -1.3777   -4.4130   -1.4950 H   0  0  0  0  0  0  0  0  0  0  0  0
   -0.6308   -2.8285   -0.9587 H   0  0  0  0  0  0  0  0  0  0  0  0
   -3.4422   -3.5244   -1.3387 H   0  0  0  0  0  0  0  0  0  0  0  0
   -3.0286   -2.3504   -2.5997 H   0  0  0  0  0  0  0  0  0  0  0  0
   -1.2804   -1.9055    0.9437 H   0  0  0  0  0  0  0  0  0  0  0  0
   -2.3669   -3.3048    0.8462 H   0  0  0  0  0  0  0  0  0  0  0  0
   -2.9147   -1.7066    1.5970 H   0  0  0  0  0  0  0  0  0  0  0  0
   -4.2335   -0.2403    0.0316 H   0  0  0  0  0  0  0  0  0  0  0  0
   -4.6088   -1.1311   -1.5029 H   0  0  0  0  0  0  0  0  0  0  0  0
   -4.6955   -1.9571    0.1413 H   0  0  0  0  0  0  0  0  0  0  0  0
   -0.6791    1.6834   -1.5073 H   0  0  0  0  0  0  0  0  0  0  0  0
   -1.9634    3.5238   -1.5355 H   0  0  0  0  0  0  0  0  0  0  0  0
   -3.1786    2.5409   -0.7232 H   0  0  0  0  0  0  0  0  0  0  0  0
   -1.4914    4.7905    0.2791 H   0  0  0  0  0  0  0  0  0  0  0  0
   -3.9352    4.6869   -0.2658 H   0  0  0  0  0  0  0  0  0  0  0  0
   -4.1551    3.4558    1.0037 H   0  0  0  0  0  0  0  0  0  0  0  0
   -3.6548    5.1685    1.4847 H   0  0  0  0  0  0  0  0  0  0  0  0
   -2.1973    3.5815    2.7782 H   0  0  0  0  0  0  0  0  0  0  0  0
   -0.7786    1.7567    3.8761 H   0  0  0  0  0  0  0  0  0  0  0  0
    1.4235    0.9138    3.9224 H   0  0  0  0  0  0  0  0  0  0  0  0
    2.7762    0.9052    1.8889 H   0  0  0  0  0  0  0  0  0  0  0  0
    1.4782    3.6472    1.7578 H   0  0  0  0  0  0  0  0  0  0  0  0
    2.9572    3.1472    0.7762 H   0  0  0  0  0  0  0  0  0  0  0  0
    3.0257    3.1977    2.5401 H   0  0  0  0  0  0  0  0  0  0  0  0
    0.6220    0.1231    0.8112 H   0  0  0  0  0  0  0  0  0  0  0  0
    1.1383    0.8311   -1.5327 H   0  0  0  0  0  0  0  0  0  0  0  0
    2.1772    2.1907   -0.8484 H   0  0  0  0  0  0  0  0  0  0  0  0
    3.3903    0.2895   -1.7520 H   0  0  0  0  0  0  0  0  0  0  0  0
    3.7992    0.5608   -0.0525 H   0  0  0  0  0  0  0  0  0  0  0  0
    2.0403   -1.3579    0.4421 H   0  0  0  0  0  0  0  0  0  0  0  0
    4.4659   -1.6850    0.3955 H   0  0  0  0  0  0  0  0  0  0  0  0
    4.5043   -1.6360   -1.3756 H   0  0  0  0  0  0  0  0  0  0  0  0
    4.6701   -3.9333   -0.8282 H   0  0  0  0  0  0  0  0  0  0  0  0
    4.3746   -3.5525    1.3391 H   0  0  0  0  0  0  0  0  0  0  0  0
    2.9469   -4.8492   -1.9673 H   0  0  0  0  0  0  0  0  0  0  0  0
    1.7109   -4.2982   -0.7902 H   0  0  0  0  0  0  0  0  0  0  0  0
    0.4046    3.1075    0.1191 H   0  0  0  0  0  0  0  0  0  0  0  0
  1  2  1  0
  2  3  1  0
  3  4  1  0
  3  5  1  0
  3  6  1  0
  6  7  2  0
  6  8  1  0
  8  9  1  0
  9 10  1  0
 10 11  1  0
 11 12  1  0
 11 13  1  0
 13 14  2  0
 14 15  1  0
 15 16  2  0
 16 17  1  0
 17 18  1  0
 17 19  1  0
 19 20  1  0
 20 21  1  0
 21 22  1  0
 22 23  1  0
 23 24  1  0
 24 25  1  0
 24 26  1  0
 26 27  1  0
 27 28  2  0
 27 29  1  0
 19 30  1  0
 30  9  1  0
 30 14  1  0
 29 22  1  0
  1 31  1  0
  1 32  1  0
  1 33  1  0
  2 34  1  0
  2 35  1  0
  4 36  1  0
  4 37  1  0
  4 38  1  0
  5 39  1  0
  5 40  1  0
  5 41  1  0
  9 42  1  6
 10 43  1  0
 10 44  1  0
 11 45  1  6
 12 46  1  0
 12 47  1  0
 12 48  1  0
 13 49  1  0
 15 50  1  0
 16 51  1  0
 17 52  1  1
 18 53  1  0
 18 54  1  0
 18 55  1  0
 19 56  1  1
 20 57  1  0
 20 58  1  0
 21 59  1  0
 21 60  1  0
 22 61  1  1
 23 62  1  0
 23 63  1  0
 24 64  1  6
 25 65  1  0
 26 66  1  0
 26 67  1  0
 30 68  1  6
M  END
$$$$
