@<TRIPOS>MOLECULE
*****
 50 53 0 0 0
SMALL
GASTEIGER

@<TRIPOS>ATOM
      1 O           5.6948   -0.7552   -1.7879 O.2     1  UNL1       -0.1498
      2 S           5.1088   -1.4411   -0.5951 S.O2    1  UNL1        0.0766
      3 O           5.5543   -2.8851   -0.6732 O.2     1  UNL1       -0.1498
      4 N           5.6149   -0.6986    0.8417 N.pl3   1  UNL1       -0.1937
      5 C           5.3064    0.7087    1.1152 C.ar    1  UNL1        0.1774
      6 N           5.4246    1.5557    1.8534 N.ar    1  UNL1       -0.2321
      7 C           4.9828    2.7905    1.8339 C.ar    1  UNL1        0.0369
      8 C           4.2457    3.1675    0.7542 C.ar    1  UNL1       -0.0030
      9 S           4.2581    1.5813   -0.2126 S.2     1  UNL1       -0.0594
     10 C           3.3645   -1.4446   -0.7564 C.ar    1  UNL1        0.1450
     11 C           2.8059   -0.8236   -1.8391 C.ar    1  UNL1       -0.0121
     12 C           1.4614   -0.7565   -2.0747 C.ar    1  UNL1        0.0638
     13 CL          0.8513    0.0753   -3.5112 Cl      1  UNL1       -0.0816
     14 C           0.5752   -1.3539   -1.1645 C.ar    1  UNL1        0.0485
     15 N          -0.8122   -1.3169   -1.4169 N.pl3   1  UNL1       -0.3421
     16 C          -1.8607   -1.8372   -0.6347 C.3     1  UNL1        0.0160
     17 C          -2.1872   -1.1936    0.6675 C.3     1  UNL1       -0.0010
     18 C          -2.6024    0.2841    0.6479 C.3     1  UNL1        0.0060
     19 N          -3.7961    0.4375   -0.1271 N.3     1  UNL1       -0.3017
     20 C          -4.4725    1.7199    0.3066 C.3     1  UNL1       -0.0011
     21 C          -3.4076    2.7104   -0.0926 C.3     1  UNL1       -0.0390
     22 C          -2.8906    2.1424   -1.4152 C.3     1  UNL1       -0.0390
     23 C          -3.5984    0.8060   -1.5156 C.3     1  UNL1       -0.0011
     24 C          -1.8862   -1.8046    1.9880 C.3     1  UNL1       -0.0442
     25 C          -3.2619   -2.0208    1.4833 C.3     1  UNL1       -0.0442
     26 C           1.1274   -1.9735   -0.0850 C.ar    1  UNL1       -0.0022
     27 C           2.5066   -2.0313    0.1379 C.ar    1  UNL1        0.1517
     28 F           3.0255   -2.6469    1.2105 F       1  UNL1       -0.2034
     29 H           6.1427   -1.1913    1.5594 H       1  UNL1        0.1758
     30 H           5.1835    3.5406    2.6533 H       1  UNL1        0.0835
     31 H           3.7453    4.0479    0.4173 H       1  UNL1        0.0710
     32 H           3.4632   -0.3406   -2.5825 H       1  UNL1        0.0653
     33 H          -1.0963   -0.8367   -2.3420 H       1  UNL1        0.1461
     34 H          -1.5878   -2.9192   -0.3478 H       1  UNL1        0.0467
     35 H          -2.8113   -1.8975   -1.2349 H       1  UNL1        0.0467
     36 H          -1.8093    0.9017    0.1859 H       1  UNL1        0.0432
     37 H          -2.7715    0.6295    1.7129 H       1  UNL1        0.0432
     38 H          -4.6939    1.6651    1.3646 H       1  UNL1        0.0426
     39 H          -5.3612    1.7600   -0.3518 H       1  UNL1        0.0426
     40 H          -2.6373    2.7563    0.6820 H       1  UNL1        0.0278
     41 H          -3.9319    3.6725   -0.2939 H       1  UNL1        0.0278
     42 H          -1.8086    2.0734   -1.4447 H       1  UNL1        0.0278
     43 H          -3.2478    2.7548   -2.2724 H       1  UNL1        0.0278
     44 H          -3.1541    0.1051   -2.1791 H       1  UNL1        0.0426
     45 H          -4.6544    0.9740   -1.9037 H       1  UNL1        0.0426
     46 H          -1.7175   -1.0429    2.8013 H       1  UNL1        0.0272
     47 H          -1.2772   -2.6973    2.0586 H       1  UNL1        0.0272
     48 H          -3.5265   -3.0057    1.0464 H       1  UNL1        0.0272
     49 H          -4.1250   -1.4755    1.8648 H       1  UNL1        0.0272
     50 H           0.5443   -2.4703    0.6650 H       1  UNL1        0.0666
@<TRIPOS>BOND
     1     1     2    2
     2     2     3    2
     3     2     4    1
     4     4     5    1
     5     5     6   ar
     6     6     7   ar
     7     7     8   ar
     8     8     9   ar
     9     2    10    1
    10    10    11   ar
    11    11    12   ar
    12    12    13    1
    13    12    14   ar
    14    14    15    1
    15    15    16    1
    16    16    17    1
    17    17    18    1
    18    18    19    1
    19    19    20    1
    20    20    21    1
    21    21    22    1
    22    22    23    1
    23    17    24    1
    24    24    25    1
    25    14    26   ar
    26    26    27   ar
    27    27    28    1
    28     9     5   ar
    29    27    10   ar
    30    25    17    1
    31    23    19    1
    32     4    29    1
    33     7    30    1
    34     8    31    1
    35    11    32    1
    36    15    33    1
    37    16    34    1
    38    16    35    1
    39    18    36    1
    40    18    37    1
    41    20    38    1
    42    20    39    1
    43    21    40    1
    44    21    41    1
    45    22    42    1
    46    22    43    1
    47    23    44    1
    48    23    45    1
    49    24    46    1
    50    24    47    1
    51    25    48    1
    52    25    49    1
    53    26    50    1
