
     RDKit          3D

 50 53  0  0  0  0  0  0  0  0999 V2000
    5.6948   -0.7552   -1.7879 O   0  0  0  0  0  0  0  0  0  0  0  0
    5.1088   -1.4411   -0.5951 S   0  0  0  0  0  6  0  0  0  0  0  0
    5.5543   -2.8851   -0.6732 O   0  0  0  0  0  0  0  0  0  0  0  0
    5.6149   -0.6986    0.8417 N   0  0  0  0  0  0  0  0  0  0  0  0
    5.3064    0.7087    1.1152 C   0  0  0  0  0  0  0  0  0  0  0  0
    5.4246    1.5557    1.8534 N   0  0  0  0  0  0  0  0  0  0  0  0
    4.9828    2.7905    1.8339 C   0  0  0  0  0  0  0  0  0  0  0  0
    4.2457    3.1675    0.7542 C   0  0  0  0  0  0  0  0  0  0  0  0
    4.2581    1.5813   -0.2126 S   0  0  0  0  0  0  0  0  0  0  0  0
    3.3645   -1.4446   -0.7564 C   0  0  0  0  0  0  0  0  0  0  0  0
    2.8059   -0.8236   -1.8391 C   0  0  0  0  0  0  0  0  0  0  0  0
    1.4614   -0.7565   -2.0747 C   0  0  0  0  0  0  0  0  0  0  0  0
    0.8513    0.0753   -3.5112 Cl  0  0  0  0  0  0  0  0  0  0  0  0
    0.5752   -1.3539   -1.1645 C   0  0  0  0  0  0  0  0  0  0  0  0
   -0.8122   -1.3169   -1.4169 N   0  0  0  0  0  0  0  0  0  0  0  0
   -1.8607   -1.8372   -0.6347 C   0  0  0  0  0  0  0  0  0  0  0  0
   -2.1872   -1.1936    0.6675 C   0  0  0  0  0  0  0  0  0  0  0  0
   -2.6024    0.2841    0.6479 C   0  0  0  0  0  0  0  0  0  0  0  0
   -3.7961    0.4375   -0.1271 N   0  0  0  0  0  0  0  0  0  0  0  0
   -4.4725    1.7199    0.3066 C   0  0  0  0  0  0  0  0  0  0  0  0
   -3.4076    2.7104   -0.0926 C   0  0  0  0  0  0  0  0  0  0  0  0
   -2.8906    2.1424   -1.4152 C   0  0  0  0  0  0  0  0  0  0  0  0
   -3.5984    0.8060   -1.5156 C   0  0  0  0  0  0  0  0  0  0  0  0
   -1.8862   -1.8046    1.9880 C   0  0  0  0  0  0  0  0  0  0  0  0
   -3.2619   -2.0208    1.4833 C   0  0  0  0  0  0  0  0  0  0  0  0
    1.1274   -1.9735   -0.0850 C   0  0  0  0  0  0  0  0  0  0  0  0
    2.5066   -2.0313    0.1379 C   0  0  0  0  0  0  0  0  0  0  0  0
    3.0255   -2.6469    1.2105 F   0  0  0  0  0  0  0  0  0  0  0  0
    6.1427   -1.1913    1.5594 H   0  0  0  0  0  0  0  0  0  0  0  0
    5.1835    3.5406    2.6533 H   0  0  0  0  0  0  0  0  0  0  0  0
    3.7453    4.0479    0.4173 H   0  0  0  0  0  0  0  0  0  0  0  0
    3.4632   -0.3406   -2.5825 H   0  0  0  0  0  0  0  0  0  0  0  0
   -1.0963   -0.8367   -2.3420 H   0  0  0  0  0  0  0  0  0  0  0  0
   -1.5878   -2.9192   -0.3478 H   0  0  0  0  0  0  0  0  0  0  0  0
   -2.8113   -1.8975   -1.2349 H   0  0  0  0  0  0  0  0  0  0  0  0
   -1.8093    0.9017    0.1859 H   0  0  0  0  0  0  0  0  0  0  0  0
   -2.7715    0.6295    1.7129 H   0  0  0  0  0  0  0  0  0  0  0  0
   -4.6939    1.6651    1.3646 H   0  0  0  0  0  0  0  0  0  0  0  0
   -5.3612    1.7600   -0.3518 H   0  0  0  0  0  0  0  0  0  0  0  0
   -2.6373    2.7563    0.6820 H   0  0  0  0  0  0  0  0  0  0  0  0
   -3.9319    3.6725   -0.2939 H   0  0  0  0  0  0  0  0  0  0  0  0
   -1.8086    2.0734   -1.4447 H   0  0  0  0  0  0  0  0  0  0  0  0
   -3.2478    2.7548   -2.2724 H   0  0  0  0  0  0  0  0  0  0  0  0
   -3.1541    0.1051   -2.1791 H   0  0  0  0  0  0  0  0  0  0  0  0
   -4.6544    0.9740   -1.9037 H   0  0  0  0  0  0  0  0  0  0  0  0
   -1.7175   -1.0429    2.8013 H   0  0  0  0  0  0  0  0  0  0  0  0
   -1.2772   -2.6973    2.0586 H   0  0  0  0  0  0  0  0  0  0  0  0
   -3.5265   -3.0057    1.0464 H   0  0  0  0  0  0  0  0  0  0  0  0
   -4.1250   -1.4755    1.8648 H   0  0  0  0  0  0  0  0  0  0  0  0
    0.5443   -2.4703    0.6650 H   0  0  0  0  0  0  0  0  0  0  0  0
  1  2  2  0
  2  3  2  0
  2  4  1  0
  4  5  1  0
  5  6  2  0
  6  7  1  0
  7  8  2  0
  8  9  1  0
  2 10  1  0
 10 11  2  0
 11 12  1  0
 12 13  1  0
 12 14  2  0
 14 15  1  0
 15 16  1  0
 16 17  1  0
 17 18  1  0
 18 19  1  0
 19 20  1  0
 20 21  1  0
 21 22  1  0
 22 23  1  0
 17 24  1  0
 24 25  1  0
 14 26  1  0
 26 27  2  0
 27 28  1  0
  9  5  1  0
 27 10  1  0
 25 17  1  0
 23 19  1  0
  4 29  1  0
  7 30  1  0
  8 31  1  0
 11 32  1  0
 15 33  1  0
 16 34  1  0
 16 35  1  0
 18 36  1  0
 18 37  1  0
 20 38  1  0
 20 39  1  0
 21 40  1  0
 21 41  1  0
 22 42  1  0
 22 43  1  0
 23 44  1  0
 23 45  1  0
 24 46  1  0
 24 47  1  0
 25 48  1  0
 25 49  1  0
 26 50  1  0
M  END
$$$$
