@<TRIPOS>MOLECULE
*****
 39 41 0 0 0
SMALL
GASTEIGER

@<TRIPOS>ATOM
      1 N          -4.9957    0.1755    0.3683 N.am    1  UNL1       -0.3144
      2 C          -6.2625    0.8560    0.2299 C.3     1  UNL1        0.0004
      3 C          -3.7645    0.5438   -0.2281 C.2     1  UNL1        0.2458
      4 O          -3.9406    1.5973   -0.9263 O.2     1  UNL1       -0.2701
      5 C          -2.5058   -0.1519   -0.0775 C.ar    1  UNL1        0.0604
      6 C          -2.0442   -1.2961    0.5363 C.ar    1  UNL1        0.0257
      7 C          -2.9872   -2.1874    1.2688 C.3     1  UNL1       -0.0237
      8 N          -0.7321   -1.4499    0.3625 N.ar    1  UNL1       -0.3578
      9 C          -0.2611   -0.4337   -0.3628 C.ar    1  UNL1        0.0438
     10 C           1.1147   -0.1678   -0.7695 C.2     1  UNL1       -0.0253
     11 C           2.1595   -0.1299    0.0227 C.2     1  UNL1        0.0479
     12 C           2.1291   -0.3403    1.4521 C.2     1  UNL1        0.2490
     13 O           1.1439   -0.5739    2.1970 O.2     1  UNL1       -0.2698
     14 N           3.4220   -0.2547    2.0194 N.am    1  UNL1       -0.2809
     15 C           4.2856    0.0184    0.9106 C.ar    1  UNL1        0.0417
     16 C           3.5760    0.0957   -0.2637 C.ar    1  UNL1        0.0097
     17 C           4.2376    0.3509   -1.4461 C.ar    1  UNL1       -0.0337
     18 C           5.6051    0.5323   -1.4847 C.ar    1  UNL1        0.0417
     19 CL          6.4672    0.8559   -2.9695 Cl      1  UNL1       -0.0835
     20 C           6.3233    0.4571   -0.3174 C.ar    1  UNL1       -0.0416
     21 C           5.6528    0.1993    0.8750 C.ar    1  UNL1       -0.0385
     22 C          -1.3416    0.3732   -0.6414 C.ar    1  UNL1       -0.0134
     23 C          -1.2376    1.6400   -1.4507 C.3     1  UNL1       -0.0370
     24 H          -5.0588   -0.6516    0.9782 H       1  UNL1        0.1487
     25 H          -7.0104    0.0788   -0.0569 H       1  UNL1        0.0426
     26 H          -6.2280    1.6403   -0.5480 H       1  UNL1        0.0426
     27 H          -6.5920    1.2675    1.2094 H       1  UNL1        0.0426
     28 H          -3.7685   -2.5677    0.5602 H       1  UNL1        0.0292
     29 H          -3.3698   -1.7632    2.1954 H       1  UNL1        0.0292
     30 H          -2.4075   -3.1006    1.5807 H       1  UNL1        0.0292
     31 H          -0.2400   -2.2864    0.7594 H       1  UNL1        0.1656
     32 H           1.3249    0.0221   -1.8316 H       1  UNL1        0.0646
     33 H           3.7196   -0.3612    3.0238 H       1  UNL1        0.1552
     34 H           3.6510    0.4091   -2.3525 H       1  UNL1        0.0639
     35 H           7.3955    0.5877   -0.2699 H       1  UNL1        0.0633
     36 H           6.2082    0.1384    1.8027 H       1  UNL1        0.0637
     37 H          -1.7734    1.5153   -2.4354 H       1  UNL1        0.0278
     38 H          -1.6990    2.4945   -0.8963 H       1  UNL1        0.0278
     39 H          -0.1958    1.8670   -1.6598 H       1  UNL1        0.0278
@<TRIPOS>BOND
     1     1     2    1
     2     1     3   am
     3     3     4    2
     4     3     5    1
     5     5     6   ar
     6     6     7    1
     7     6     8   ar
     8     8     9   ar
     9     9    10    1
    10    10    11    2
    11    11    12    1
    12    12    13    2
    13    12    14   am
    14    14    15    1
    15    15    16   ar
    16    16    17   ar
    17    17    18   ar
    18    18    19    1
    19    18    20   ar
    20    20    21   ar
    21     9    22   ar
    22    22    23    1
    23    22     5   ar
    24    16    11    1
    25    21    15   ar
    26     1    24    1
    27     2    25    1
    28     2    26    1
    29     2    27    1
    30     7    28    1
    31     7    29    1
    32     7    30    1
    33     8    31    1
    34    10    32    1
    35    14    33    1
    36    17    34    1
    37    20    35    1
    38    21    36    1
    39    23    37    1
    40    23    38    1
    41    23    39    1
