
     RDKit          3D

 39 41  0  0  0  0  0  0  0  0999 V2000
   -4.9957    0.1755    0.3683 N   0  0  0  0  0  0  0  0  0  0  0  0
   -6.2625    0.8560    0.2299 C   0  0  0  0  0  0  0  0  0  0  0  0
   -3.7645    0.5438   -0.2281 C   0  0  0  0  0  0  0  0  0  0  0  0
   -3.9406    1.5973   -0.9263 O   0  0  0  0  0  0  0  0  0  0  0  0
   -2.5058   -0.1519   -0.0775 C   0  0  0  0  0  0  0  0  0  0  0  0
   -2.0442   -1.2961    0.5363 C   0  0  0  0  0  0  0  0  0  0  0  0
   -2.9872   -2.1874    1.2688 C   0  0  0  0  0  0  0  0  0  0  0  0
   -0.7321   -1.4499    0.3625 N   0  0  0  0  0  0  0  0  0  0  0  0
   -0.2611   -0.4337   -0.3628 C   0  0  0  0  0  0  0  0  0  0  0  0
    1.1147   -0.1678   -0.7695 C   0  0  0  0  0  0  0  0  0  0  0  0
    2.1595   -0.1299    0.0227 C   0  0  0  0  0  0  0  0  0  0  0  0
    2.1291   -0.3403    1.4521 C   0  0  0  0  0  0  0  0  0  0  0  0
    1.1439   -0.5739    2.1970 O   0  0  0  0  0  0  0  0  0  0  0  0
    3.4220   -0.2547    2.0194 N   0  0  0  0  0  0  0  0  0  0  0  0
    4.2856    0.0184    0.9106 C   0  0  0  0  0  0  0  0  0  0  0  0
    3.5760    0.0957   -0.2637 C   0  0  0  0  0  0  0  0  0  0  0  0
    4.2376    0.3509   -1.4461 C   0  0  0  0  0  0  0  0  0  0  0  0
    5.6051    0.5323   -1.4847 C   0  0  0  0  0  0  0  0  0  0  0  0
    6.4672    0.8559   -2.9695 Cl  0  0  0  0  0  0  0  0  0  0  0  0
    6.3233    0.4571   -0.3174 C   0  0  0  0  0  0  0  0  0  0  0  0
    5.6528    0.1993    0.8750 C   0  0  0  0  0  0  0  0  0  0  0  0
   -1.3416    0.3732   -0.6414 C   0  0  0  0  0  0  0  0  0  0  0  0
   -1.2376    1.6400   -1.4507 C   0  0  0  0  0  0  0  0  0  0  0  0
   -5.0588   -0.6516    0.9782 H   0  0  0  0  0  0  0  0  0  0  0  0
   -7.0104    0.0788   -0.0569 H   0  0  0  0  0  0  0  0  0  0  0  0
   -6.2280    1.6403   -0.5480 H   0  0  0  0  0  0  0  0  0  0  0  0
   -6.5920    1.2675    1.2094 H   0  0  0  0  0  0  0  0  0  0  0  0
   -3.7685   -2.5677    0.5602 H   0  0  0  0  0  0  0  0  0  0  0  0
   -3.3698   -1.7632    2.1954 H   0  0  0  0  0  0  0  0  0  0  0  0
   -2.4075   -3.1006    1.5807 H   0  0  0  0  0  0  0  0  0  0  0  0
   -0.2400   -2.2864    0.7594 H   0  0  0  0  0  0  0  0  0  0  0  0
    1.3249    0.0221   -1.8316 H   0  0  0  0  0  0  0  0  0  0  0  0
    3.7196   -0.3612    3.0238 H   0  0  0  0  0  0  0  0  0  0  0  0
    3.6510    0.4091   -2.3525 H   0  0  0  0  0  0  0  0  0  0  0  0
    7.3955    0.5877   -0.2699 H   0  0  0  0  0  0  0  0  0  0  0  0
    6.2082    0.1384    1.8027 H   0  0  0  0  0  0  0  0  0  0  0  0
   -1.7734    1.5153   -2.4354 H   0  0  0  0  0  0  0  0  0  0  0  0
   -1.6990    2.4945   -0.8963 H   0  0  0  0  0  0  0  0  0  0  0  0
   -0.1958    1.8670   -1.6598 H   0  0  0  0  0  0  0  0  0  0  0  0
  1  2  1  0
  1  3  1  0
  3  4  2  0
  3  5  1  0
  5  6  2  0
  6  7  1  0
  6  8  1  0
  8  9  1  0
  9 10  1  0
 10 11  2  0
 11 12  1  0
 12 13  2  0
 12 14  1  0
 14 15  1  0
 15 16  2  0
 16 17  1  0
 17 18  2  0
 18 19  1  0
 18 20  1  0
 20 21  2  0
  9 22  2  0
 22 23  1  0
 22  5  1  0
 16 11  1  0
 21 15  1  0
  1 24  1  0
  2 25  1  0
  2 26  1  0
  2 27  1  0
  7 28  1  0
  7 29  1  0
  7 30  1  0
  8 31  1  0
 10 32  1  0
 14 33  1  0
 17 34  1  0
 20 35  1  0
 21 36  1  0
 23 37  1  0
 23 38  1  0
 23 39  1  0
M  END
$$$$
