@<TRIPOS>MOLECULE
*****
 28 30 0 0 0
SMALL
GASTEIGER

@<TRIPOS>ATOM
      1 C           4.7080   -0.6216   -0.5004 C.3     1  UNL1        0.0788
      2 O           4.0497    0.6328   -0.4815 O.3     1  UNL1       -0.4950
      3 C           2.6781    0.7521   -0.3330 C.ar    1  UNL1        0.1221
      4 C           2.1033    2.0034   -0.3231 C.ar    1  UNL1       -0.0192
      5 C           0.7459    2.1571   -0.1777 C.ar    1  UNL1       -0.0485
      6 C          -0.0337    1.0396   -0.0417 C.ar    1  UNL1        0.0077
      7 C           0.5412   -0.2154   -0.0514 C.ar    1  UNL1        0.0510
      8 C           1.9144   -0.3870   -0.1978 C.ar    1  UNL1        0.0040
      9 N          -0.4619   -1.1003    0.0996 N.ar    1  UNL1       -0.3526
     10 C          -1.6439   -0.4744    0.2047 C.ar    1  UNL1        0.0688
     11 C          -2.9278   -0.9892    0.3710 C.ar    1  UNL1        0.0620
     12 C          -3.1833   -2.4510    0.4633 C.3     1  UNL1       -0.0203
     13 N          -3.9296   -0.1003    0.4445 N.ar    1  UNL1       -0.2581
     14 C          -3.7278    1.2256    0.3642 C.ar    1  UNL1        0.0286
     15 C          -2.4685    1.7603    0.1998 C.ar    1  UNL1       -0.0338
     16 C          -1.4011    0.8819    0.1184 C.ar    1  UNL1        0.0106
     17 H           4.3289   -1.2045    0.3676 H       1  UNL1        0.0660
     18 H           4.4249   -1.1173   -1.4557 H       1  UNL1        0.0660
     19 H           5.8047   -0.5015   -0.3862 H       1  UNL1        0.0660
     20 H           2.7137    2.9001   -0.4306 H       1  UNL1        0.0654
     21 H           0.2615    3.1351   -0.1661 H       1  UNL1        0.0625
     22 H           2.3801   -1.3630   -0.2076 H       1  UNL1        0.0675
     23 H          -0.3484   -2.1451    0.1324 H       1  UNL1        0.1660
     24 H          -2.2113   -2.9854    0.4322 H       1  UNL1        0.0293
     25 H          -3.6648   -2.7229    1.4152 H       1  UNL1        0.0293
     26 H          -3.7723   -2.8081   -0.4260 H       1  UNL1        0.0293
     27 H          -4.5930    1.8676    0.4331 H       1  UNL1        0.0830
     28 H          -2.2872    2.8316    0.1328 H       1  UNL1        0.0639
@<TRIPOS>BOND
     1     1     2    1
     2     2     3    1
     3     3     4   ar
     4     4     5   ar
     5     5     6   ar
     6     6     7   ar
     7     7     8   ar
     8     7     9   ar
     9     9    10   ar
    10    10    11   ar
    11    11    12    1
    12    11    13   ar
    13    13    14   ar
    14    14    15   ar
    15    15    16   ar
    16     8     3   ar
    17    16    10   ar
    18    16     6   ar
    19     1    17    1
    20     1    18    1
    21     1    19    1
    22     4    20    1
    23     5    21    1
    24     8    22    1
    25     9    23    1
    26    12    24    1
    27    12    25    1
    28    12    26    1
    29    14    27    1
    30    15    28    1
