
     RDKit          3D

 28 30  0  0  0  0  0  0  0  0999 V2000
    4.7080   -0.6216   -0.5004 C   0  0  0  0  0  0  0  0  0  0  0  0
    4.0497    0.6328   -0.4815 O   0  0  0  0  0  0  0  0  0  0  0  0
    2.6781    0.7521   -0.3330 C   0  0  0  0  0  0  0  0  0  0  0  0
    2.1033    2.0034   -0.3231 C   0  0  0  0  0  0  0  0  0  0  0  0
    0.7459    2.1571   -0.1777 C   0  0  0  0  0  0  0  0  0  0  0  0
   -0.0337    1.0396   -0.0417 C   0  0  0  0  0  0  0  0  0  0  0  0
    0.5412   -0.2154   -0.0514 C   0  0  0  0  0  0  0  0  0  0  0  0
    1.9144   -0.3870   -0.1978 C   0  0  0  0  0  0  0  0  0  0  0  0
   -0.4619   -1.1003    0.0996 N   0  0  0  0  0  0  0  0  0  0  0  0
   -1.6439   -0.4744    0.2047 C   0  0  0  0  0  0  0  0  0  0  0  0
   -2.9278   -0.9892    0.3710 C   0  0  0  0  0  0  0  0  0  0  0  0
   -3.1833   -2.4510    0.4633 C   0  0  0  0  0  0  0  0  0  0  0  0
   -3.9296   -0.1003    0.4445 N   0  0  0  0  0  0  0  0  0  0  0  0
   -3.7278    1.2256    0.3642 C   0  0  0  0  0  0  0  0  0  0  0  0
   -2.4685    1.7603    0.1998 C   0  0  0  0  0  0  0  0  0  0  0  0
   -1.4011    0.8819    0.1184 C   0  0  0  0  0  0  0  0  0  0  0  0
    4.3289   -1.2045    0.3676 H   0  0  0  0  0  0  0  0  0  0  0  0
    4.4249   -1.1173   -1.4557 H   0  0  0  0  0  0  0  0  0  0  0  0
    5.8047   -0.5015   -0.3862 H   0  0  0  0  0  0  0  0  0  0  0  0
    2.7137    2.9001   -0.4306 H   0  0  0  0  0  0  0  0  0  0  0  0
    0.2615    3.1351   -0.1661 H   0  0  0  0  0  0  0  0  0  0  0  0
    2.3801   -1.3630   -0.2076 H   0  0  0  0  0  0  0  0  0  0  0  0
   -0.3484   -2.1451    0.1324 H   0  0  0  0  0  0  0  0  0  0  0  0
   -2.2113   -2.9854    0.4322 H   0  0  0  0  0  0  0  0  0  0  0  0
   -3.6648   -2.7229    1.4152 H   0  0  0  0  0  0  0  0  0  0  0  0
   -3.7723   -2.8081   -0.4260 H   0  0  0  0  0  0  0  0  0  0  0  0
   -4.5930    1.8676    0.4331 H   0  0  0  0  0  0  0  0  0  0  0  0
   -2.2872    2.8316    0.1328 H   0  0  0  0  0  0  0  0  0  0  0  0
  1  2  1  0
  2  3  1  0
  3  4  2  0
  4  5  1  0
  5  6  2  0
  6  7  1  0
  7  8  2  0
  7  9  1  0
  9 10  1  0
 10 11  2  0
 11 12  1  0
 11 13  1  0
 13 14  2  0
 14 15  1  0
 15 16  2  0
  8  3  1  0
 16 10  1  0
 16  6  1  0
  1 17  1  0
  1 18  1  0
  1 19  1  0
  4 20  1  0
  5 21  1  0
  8 22  1  0
  9 23  1  0
 12 24  1  0
 12 25  1  0
 12 26  1  0
 14 27  1  0
 15 28  1  0
M  END
$$$$
