@<TRIPOS>MOLECULE
*****
 68 71 0 0 0
SMALL
GASTEIGER

@<TRIPOS>ATOM
      1 C          -6.1695   -3.7418    1.2817 C.3     1  UNL1       -0.0613
      2 C          -5.0331   -3.0696    1.9912 C.3     1  UNL1       -0.0302
      3 C          -4.4725   -2.0182    1.0943 C.ar    1  UNL1       -0.0410
      4 C          -3.2874   -2.2598    0.4307 C.ar    1  UNL1       -0.0159
      5 C          -2.7003   -1.3430   -0.4219 C.ar    1  UNL1        0.1287
      6 O          -1.5115   -1.6268   -1.0669 O.3     1  UNL1       -0.4559
      7 C          -0.9262   -0.7031   -1.9149 C.ar    1  UNL1        0.1315
      8 C          -1.2955   -0.7459   -3.2474 C.ar    1  UNL1        0.0159
      9 C          -0.7506    0.1432   -4.1432 C.ar    1  UNL1        0.1272
     10 F          -1.0963    0.1182   -5.4422 F       1  UNL1       -0.2054
     11 C           0.1624    1.0776   -3.7192 C.ar    1  UNL1       -0.0213
     12 C           0.5538    1.1496   -2.3987 C.ar    1  UNL1       -0.0213
     13 C           1.5568    2.1708   -1.9494 C.3     1  UNL1        0.0461
     14 C           0.8629    3.3123   -1.2616 C.3     1  UNL1       -0.0424
     15 N           2.5284    1.5470   -1.0428 N.am    1  UNL1       -0.3036
     16 C           3.8860    1.4654   -1.3944 C.2     1  UNL1        0.2613
     17 O           4.1624    1.9724   -2.5436 O.2     1  UNL1       -0.2686
     18 C           4.9382    0.8740   -0.5824 C.ar    1  UNL1        0.1081
     19 C           4.9513    0.3304    0.6630 C.ar    1  UNL1       -0.0127
     20 C           3.8095    0.2137    1.5656 C.3     1  UNL1       -0.0370
     21 C           6.2411   -0.1168    0.9873 C.ar    1  UNL1        0.0049
     22 C           6.7618   -0.7305    2.1133 C.ar    1  UNL1       -0.0339
     23 C           8.0750   -1.0689    2.1714 C.ar    1  UNL1        0.0417
     24 CL          8.7997   -1.8529    3.5753 Cl      1  UNL1       -0.0835
     25 C           8.8742   -0.7775    1.0626 C.ar    1  UNL1       -0.0414
     26 C           8.3347   -0.1679   -0.0443 C.ar    1  UNL1       -0.0362
     27 C           7.0009    0.1807   -0.1143 C.ar    1  UNL1        0.0497
     28 N           6.2220    0.7673   -1.0392 N.ar    1  UNL1       -0.3391
     29 C           6.7207    1.2064   -2.3275 C.3     1  UNL1        0.0126
     30 C          -0.0125    0.2433   -1.5292 C.ar    1  UNL1       -0.0142
     31 C          -3.3778   -0.1424   -0.5793 C.ar    1  UNL1       -0.0191
     32 C          -4.5536    0.1296    0.0629 C.ar    1  UNL1       -0.0548
     33 C          -5.0991   -0.7988    0.8937 C.ar    1  UNL1       -0.0435
     34 C          -6.3580   -0.5415    1.6050 C.3     1  UNL1       -0.0174
     35 C          -6.9474    0.8067    1.2622 C.3     1  UNL1        0.0487
     36 C          -8.2055    1.0048    2.0073 C.2     1  UNL1        0.3050
     37 O          -8.6152    0.1069    2.7827 O.2     1  UNL1       -0.2510
     38 O          -8.9638    2.1669    1.8791 O.3     1  UNL1       -0.4806
     39 H          -7.0773   -3.6838    1.9111 H       1  UNL1        0.0233
     40 H          -6.3784   -3.2530    0.2987 H       1  UNL1        0.0233
     41 H          -5.9096   -4.7794    1.0721 H       1  UNL1        0.0233
     42 H          -4.2441   -3.8143    2.1994 H       1  UNL1        0.0311
     43 H          -5.3738   -2.6307    2.9559 H       1  UNL1        0.0311
     44 H          -2.7470   -3.2011    0.5477 H       1  UNL1        0.0657
     45 H          -2.0214   -1.4823   -3.6068 H       1  UNL1        0.0683
     46 H           0.6130    1.8002   -4.4155 H       1  UNL1        0.0649
     47 H           2.0600    2.5428   -2.8460 H       1  UNL1        0.0546
     48 H           1.4748    4.2396   -1.2668 H       1  UNL1        0.0251
     49 H          -0.0706    3.5660   -1.8098 H       1  UNL1        0.0251
     50 H           0.6488    3.0325   -0.1996 H       1  UNL1        0.0251
     51 H           2.2250    1.1550   -0.1305 H       1  UNL1        0.1496
     52 H           3.0372   -0.5247    1.2675 H       1  UNL1        0.0278
     53 H           3.3779    1.2042    1.8863 H       1  UNL1        0.0278
     54 H           4.1699   -0.2047    2.5617 H       1  UNL1        0.0278
     55 H           6.1118   -0.9328    2.9363 H       1  UNL1        0.0639
     56 H           9.9215   -1.0607    1.1393 H       1  UNL1        0.0633
     57 H           8.9758    0.0412   -0.8782 H       1  UNL1        0.0639
     58 H           6.7070    2.3192   -2.4225 H       1  UNL1        0.0456
     59 H           7.7441    0.8212   -2.4888 H       1  UNL1        0.0456
     60 H           6.0839    0.7951   -3.1371 H       1  UNL1        0.0456
     61 H           0.2652    0.2655   -0.4903 H       1  UNL1        0.0658
     62 H          -2.9308    0.5947   -1.2476 H       1  UNL1        0.0654
     63 H          -5.0481    1.0700   -0.0842 H       1  UNL1        0.0622
     64 H          -6.1404   -0.5341    2.6961 H       1  UNL1        0.0318
     65 H          -7.1408   -1.2967    1.4534 H       1  UNL1        0.0318
     66 H          -6.2481    1.6343    1.5134 H       1  UNL1        0.0381
     67 H          -7.1772    0.8872    0.1792 H       1  UNL1        0.0381
     68 H          -9.9743    2.1474    1.9594 H       1  UNL1        0.2951
@<TRIPOS>BOND
     1     1     2    1
     2     2     3    1
     3     3     4   ar
     4     4     5   ar
     5     5     6    1
     6     6     7    1
     7     7     8   ar
     8     8     9   ar
     9     9    10    1
    10     9    11   ar
    11    11    12   ar
    12    12    13    1
    13    13    14    1
    14    13    15    1
    15    15    16   am
    16    16    17    2
    17    16    18    1
    18    18    19   ar
    19    19    20    1
    20    19    21   ar
    21    21    22   ar
    22    22    23   ar
    23    23    24    1
    24    23    25   ar
    25    25    26   ar
    26    26    27   ar
    27    27    28   ar
    28    28    29    1
    29    12    30   ar
    30     5    31   ar
    31    31    32   ar
    32    32    33   ar
    33    33    34    1
    34    34    35    1
    35    35    36    1
    36    36    37    2
    37    36    38    1
    38    33     3   ar
    39    30     7   ar
    40    28    18   ar
    41    27    21   ar
    42     1    39    1
    43     1    40    1
    44     1    41    1
    45     2    42    1
    46     2    43    1
    47     4    44    1
    48     8    45    1
    49    11    46    1
    50    13    47    1
    51    14    48    1
    52    14    49    1
    53    14    50    1
    54    15    51    1
    55    20    52    1
    56    20    53    1
    57    20    54    1
    58    22    55    1
    59    25    56    1
    60    26    57    1
    61    29    58    1
    62    29    59    1
    63    29    60    1
    64    30    61    1
    65    31    62    1
    66    32    63    1
    67    34    64    1
    68    34    65    1
    69    35    66    1
    70    35    67    1
    71    38    68    1
