
     RDKit          3D

 68 71  0  0  0  0  0  0  0  0999 V2000
   -6.1695   -3.7418    1.2817 C   0  0  0  0  0  0  0  0  0  0  0  0
   -5.0331   -3.0696    1.9912 C   0  0  0  0  0  0  0  0  0  0  0  0
   -4.4725   -2.0182    1.0943 C   0  0  0  0  0  0  0  0  0  0  0  0
   -3.2874   -2.2598    0.4307 C   0  0  0  0  0  0  0  0  0  0  0  0
   -2.7003   -1.3430   -0.4219 C   0  0  0  0  0  0  0  0  0  0  0  0
   -1.5115   -1.6268   -1.0669 O   0  0  0  0  0  0  0  0  0  0  0  0
   -0.9262   -0.7031   -1.9149 C   0  0  0  0  0  0  0  0  0  0  0  0
   -1.2955   -0.7459   -3.2474 C   0  0  0  0  0  0  0  0  0  0  0  0
   -0.7506    0.1432   -4.1432 C   0  0  0  0  0  0  0  0  0  0  0  0
   -1.0963    0.1182   -5.4422 F   0  0  0  0  0  0  0  0  0  0  0  0
    0.1624    1.0776   -3.7192 C   0  0  0  0  0  0  0  0  0  0  0  0
    0.5538    1.1496   -2.3987 C   0  0  0  0  0  0  0  0  0  0  0  0
    1.5568    2.1708   -1.9494 C   0  0  1  0  0  0  0  0  0  0  0  0
    0.8629    3.3123   -1.2616 C   0  0  0  0  0  0  0  0  0  0  0  0
    2.5284    1.5470   -1.0428 N   0  0  0  0  0  0  0  0  0  0  0  0
    3.8860    1.4654   -1.3944 C   0  0  0  0  0  0  0  0  0  0  0  0
    4.1624    1.9724   -2.5436 O   0  0  0  0  0  0  0  0  0  0  0  0
    4.9382    0.8740   -0.5824 C   0  0  0  0  0  0  0  0  0  0  0  0
    4.9513    0.3304    0.6630 C   0  0  0  0  0  0  0  0  0  0  0  0
    3.8095    0.2137    1.5656 C   0  0  0  0  0  0  0  0  0  0  0  0
    6.2411   -0.1168    0.9873 C   0  0  0  0  0  0  0  0  0  0  0  0
    6.7618   -0.7305    2.1133 C   0  0  0  0  0  0  0  0  0  0  0  0
    8.0750   -1.0689    2.1714 C   0  0  0  0  0  0  0  0  0  0  0  0
    8.7997   -1.8529    3.5753 Cl  0  0  0  0  0  0  0  0  0  0  0  0
    8.8742   -0.7775    1.0626 C   0  0  0  0  0  0  0  0  0  0  0  0
    8.3347   -0.1679   -0.0443 C   0  0  0  0  0  0  0  0  0  0  0  0
    7.0009    0.1807   -0.1143 C   0  0  0  0  0  0  0  0  0  0  0  0
    6.2220    0.7673   -1.0392 N   0  0  0  0  0  0  0  0  0  0  0  0
    6.7207    1.2064   -2.3275 C   0  0  0  0  0  0  0  0  0  0  0  0
   -0.0125    0.2433   -1.5292 C   0  0  0  0  0  0  0  0  0  0  0  0
   -3.3778   -0.1424   -0.5793 C   0  0  0  0  0  0  0  0  0  0  0  0
   -4.5536    0.1296    0.0629 C   0  0  0  0  0  0  0  0  0  0  0  0
   -5.0991   -0.7988    0.8937 C   0  0  0  0  0  0  0  0  0  0  0  0
   -6.3580   -0.5415    1.6050 C   0  0  0  0  0  0  0  0  0  0  0  0
   -6.9474    0.8067    1.2622 C   0  0  0  0  0  0  0  0  0  0  0  0
   -8.2055    1.0048    2.0073 C   0  0  0  0  0  0  0  0  0  0  0  0
   -8.6152    0.1069    2.7827 O   0  0  0  0  0  0  0  0  0  0  0  0
   -8.9638    2.1669    1.8791 O   0  0  0  0  0  0  0  0  0  0  0  0
   -7.0773   -3.6838    1.9111 H   0  0  0  0  0  0  0  0  0  0  0  0
   -6.3784   -3.2530    0.2987 H   0  0  0  0  0  0  0  0  0  0  0  0
   -5.9096   -4.7794    1.0721 H   0  0  0  0  0  0  0  0  0  0  0  0
   -4.2441   -3.8143    2.1994 H   0  0  0  0  0  0  0  0  0  0  0  0
   -5.3738   -2.6307    2.9559 H   0  0  0  0  0  0  0  0  0  0  0  0
   -2.7470   -3.2011    0.5477 H   0  0  0  0  0  0  0  0  0  0  0  0
   -2.0214   -1.4823   -3.6068 H   0  0  0  0  0  0  0  0  0  0  0  0
    0.6130    1.8002   -4.4155 H   0  0  0  0  0  0  0  0  0  0  0  0
    2.0600    2.5428   -2.8460 H   0  0  0  0  0  0  0  0  0  0  0  0
    1.4748    4.2396   -1.2668 H   0  0  0  0  0  0  0  0  0  0  0  0
   -0.0706    3.5660   -1.8098 H   0  0  0  0  0  0  0  0  0  0  0  0
    0.6488    3.0325   -0.1996 H   0  0  0  0  0  0  0  0  0  0  0  0
    2.2250    1.1550   -0.1305 H   0  0  0  0  0  0  0  0  0  0  0  0
    3.0372   -0.5247    1.2675 H   0  0  0  0  0  0  0  0  0  0  0  0
    3.3779    1.2042    1.8863 H   0  0  0  0  0  0  0  0  0  0  0  0
    4.1699   -0.2047    2.5617 H   0  0  0  0  0  0  0  0  0  0  0  0
    6.1118   -0.9328    2.9363 H   0  0  0  0  0  0  0  0  0  0  0  0
    9.9215   -1.0607    1.1393 H   0  0  0  0  0  0  0  0  0  0  0  0
    8.9758    0.0412   -0.8782 H   0  0  0  0  0  0  0  0  0  0  0  0
    6.7070    2.3192   -2.4225 H   0  0  0  0  0  0  0  0  0  0  0  0
    7.7441    0.8212   -2.4888 H   0  0  0  0  0  0  0  0  0  0  0  0
    6.0839    0.7951   -3.1371 H   0  0  0  0  0  0  0  0  0  0  0  0
    0.2652    0.2655   -0.4903 H   0  0  0  0  0  0  0  0  0  0  0  0
   -2.9308    0.5947   -1.2476 H   0  0  0  0  0  0  0  0  0  0  0  0
   -5.0481    1.0700   -0.0842 H   0  0  0  0  0  0  0  0  0  0  0  0
   -6.1404   -0.5341    2.6961 H   0  0  0  0  0  0  0  0  0  0  0  0
   -7.1408   -1.2967    1.4534 H   0  0  0  0  0  0  0  0  0  0  0  0
   -6.2481    1.6343    1.5134 H   0  0  0  0  0  0  0  0  0  0  0  0
   -7.1772    0.8872    0.1792 H   0  0  0  0  0  0  0  0  0  0  0  0
   -9.9743    2.1474    1.9594 H   0  0  0  0  0  0  0  0  0  0  0  0
  1  2  1  0
  2  3  1  0
  3  4  2  0
  4  5  1  0
  5  6  1  0
  6  7  1  0
  7  8  2  0
  8  9  1  0
  9 10  1  0
  9 11  2  0
 11 12  1  0
 12 13  1  0
 13 14  1  0
 13 15  1  0
 15 16  1  0
 16 17  2  0
 16 18  1  0
 18 19  2  0
 19 20  1  0
 19 21  1  0
 21 22  2  0
 22 23  1  0
 23 24  1  0
 23 25  2  0
 25 26  1  0
 26 27  2  0
 27 28  1  0
 28 29  1  0
 12 30  2  0
  5 31  2  0
 31 32  1  0
 32 33  2  0
 33 34  1  0
 34 35  1  0
 35 36  1  0
 36 37  2  0
 36 38  1  0
 33  3  1  0
 30  7  1  0
 28 18  1  0
 27 21  1  0
  1 39  1  0
  1 40  1  0
  1 41  1  0
  2 42  1  0
  2 43  1  0
  4 44  1  0
  8 45  1  0
 11 46  1  0
 13 47  1  6
 14 48  1  0
 14 49  1  0
 14 50  1  0
 15 51  1  0
 20 52  1  0
 20 53  1  0
 20 54  1  0
 22 55  1  0
 25 56  1  0
 26 57  1  0
 29 58  1  0
 29 59  1  0
 29 60  1  0
 30 61  1  0
 31 62  1  0
 32 63  1  0
 34 64  1  0
 34 65  1  0
 35 66  1  0
 35 67  1  0
 38 68  1  0
M  END
$$$$
