@<TRIPOS>MOLECULE
*****
 39 41 0 0 0
SMALL
GASTEIGER

@<TRIPOS>ATOM
      1 C          -4.8857   -1.9623   -0.2548 C.3     1  UNL1       -0.0621
      2 C          -4.6128   -0.8571    0.7733 C.3     1  UNL1       -0.0387
      3 C          -5.2299    0.4160    0.2644 C.3     1  UNL1       -0.0498
      4 C          -4.4179    0.9443   -0.9179 C.3     1  UNL1       -0.0476
      5 C          -3.0901    1.4076   -0.3985 C.3     1  UNL1       -0.0128
      6 C          -2.4272    0.2677    0.2852 C.2     1  UNL1        0.0371
      7 N          -1.1598    0.1262    0.1728 N.2     1  UNL1       -0.1898
      8 N          -0.2682    0.9107   -0.5209 N.pl3   1  UNL1       -0.2153
      9 C           1.0487    0.3943   -0.7121 C.ar    1  UNL1        0.1783
     10 N           2.1919    0.4969   -0.3462 N.ar    1  UNL1       -0.2235
     11 C           3.2454   -0.1599   -0.6883 C.ar    1  UNL1        0.0830
     12 C           4.6399    0.0623   -0.1710 C.ar    1  UNL1        0.0363
     13 C           5.6805   -0.7214   -0.5840 C.ar    1  UNL1       -0.0471
     14 C           6.9780   -0.5074   -0.1092 C.ar    1  UNL1       -0.0257
     15 C           7.2287    0.5060    0.7914 C.ar    1  UNL1        0.1262
     16 F           8.4578    0.7377    1.2652 F       1  UNL1       -0.2054
     17 C           6.1679    1.2899    1.2016 C.ar    1  UNL1        0.0095
     18 C           4.8887    1.0752    0.7289 C.ar    1  UNL1        0.1353
     19 F           3.8604    1.8426    1.1369 F       1  UNL1       -0.2047
     20 C           3.0187   -1.1844   -1.6683 C.ar    1  UNL1        0.0050
     21 S           1.2667   -1.0238   -1.9429 S.2     1  UNL1       -0.0586
     22 C          -3.1688   -0.7386    1.0979 C.3     1  UNL1       -0.0102
     23 H          -4.1430   -1.9345   -1.0851 H       1  UNL1        0.0233
     24 H          -5.9100   -1.7557   -0.6243 H       1  UNL1        0.0233
     25 H          -4.8578   -2.9676    0.2038 H       1  UNL1        0.0233
     26 H          -5.1786   -1.1648    1.6850 H       1  UNL1        0.0302
     27 H          -6.2433    0.2313   -0.0898 H       1  UNL1        0.0268
     28 H          -5.2619    1.2154    0.9998 H       1  UNL1        0.0268
     29 H          -4.2569    0.1317   -1.6594 H       1  UNL1        0.0269
     30 H          -4.9934    1.7577   -1.4079 H       1  UNL1        0.0269
     31 H          -3.2308    2.2690    0.3092 H       1  UNL1        0.0325
     32 H          -2.4746    1.6927   -1.2743 H       1  UNL1        0.0325
     33 H          -0.4743    1.8461   -0.9159 H       1  UNL1        0.1765
     34 H           5.5029   -1.5305   -1.2978 H       1  UNL1        0.0626
     35 H           7.7434   -1.1680   -0.4845 H       1  UNL1        0.0646
     36 H           6.3280    2.1019    1.9145 H       1  UNL1        0.0675
     37 H           3.6934   -1.8505   -2.1079 H       1  UNL1        0.0716
     38 H          -2.6360   -1.7168    0.9117 H       1  UNL1        0.0328
     39 H          -3.0199   -0.4800    2.1621 H       1  UNL1        0.0328
@<TRIPOS>BOND
     1     1     2    1
     2     2     3    1
     3     3     4    1
     4     4     5    1
     5     5     6    1
     6     6     7    2
     7     7     8    1
     8     8     9    1
     9     9    10   ar
    10    10    11   ar
    11    11    12    1
    12    12    13   ar
    13    13    14   ar
    14    14    15   ar
    15    15    16    1
    16    15    17   ar
    17    17    18   ar
    18    18    19    1
    19    11    20   ar
    20    20    21   ar
    21     6    22    1
    22    22     2    1
    23    21     9   ar
    24    18    12   ar
    25     1    23    1
    26     1    24    1
    27     1    25    1
    28     2    26    1
    29     3    27    1
    30     3    28    1
    31     4    29    1
    32     4    30    1
    33     5    31    1
    34     5    32    1
    35     8    33    1
    36    13    34    1
    37    14    35    1
    38    17    36    1
    39    20    37    1
    40    22    38    1
    41    22    39    1
