@<TRIPOS>MOLECULE
*****
 37 41 0 0 0
SMALL
GASTEIGER

@<TRIPOS>ATOM
      1 O          -0.1471    3.0949   -4.4944 O.3     1  UNL1       -0.5066
      2 C          -0.1462    2.4339   -3.2881 C.ar    1  UNL1        0.1204
      3 C          -1.3412    2.1696   -2.6200 C.ar    1  UNL1       -0.0195
      4 C          -1.3103    1.5073   -1.4159 C.ar    1  UNL1       -0.0471
      5 C          -0.1214    1.0902   -0.8396 C.ar    1  UNL1        0.0474
      6 C           1.0734    1.3373   -1.4764 C.ar    1  UNL1        0.1395
      7 O           2.2590    0.9187   -0.8969 O.3     1  UNL1       -0.4549
      8 C           2.2912    0.2516    0.3158 C.ar    1  UNL1        0.1395
      9 C           3.4779   -0.1619    0.8859 C.ar    1  UNL1        0.0226
     10 C           3.4922   -0.8355    2.1131 C.ar    1  UNL1        0.1204
     11 O           4.7715   -1.1738    2.5317 O.3     1  UNL1       -0.5066
     12 C           2.2825   -1.0710    2.7311 C.ar    1  UNL1       -0.0195
     13 C           1.1098   -0.6548    2.1539 C.ar    1  UNL1       -0.0471
     14 C           1.0829    0.0141    0.9371 C.ar    1  UNL1        0.0474
     15 C          -0.2694    0.3892    0.4626 C.3     1  UNL1        0.1963
     16 O          -0.9013    1.3152    1.3175 O.3     1  UNL1       -0.4398
     17 C          -2.1035    0.7426    1.6980 C.2     1  UNL1        0.3411
     18 O          -2.8606    1.3932    2.4773 O.2     1  UNL1       -0.2449
     19 C          -2.3346   -0.5737    1.1275 C.ar    1  UNL1        0.0667
     20 C          -1.1906   -0.7509    0.3800 C.ar    1  UNL1        0.0190
     21 C          -1.0289   -1.9364   -0.3448 C.ar    1  UNL1       -0.0533
     22 C          -2.0518   -2.8746   -0.2617 C.ar    1  UNL1       -0.0613
     23 C          -3.1949   -2.6613    0.5046 C.ar    1  UNL1       -0.0610
     24 C          -3.3564   -1.4898    1.2218 C.ar    1  UNL1       -0.0474
     25 C           1.0059    1.9966   -2.6692 C.ar    1  UNL1        0.0226
     26 H           0.0484    4.0650   -4.6275 H       1  UNL1        0.2921
     27 H          -2.2539    2.5027   -3.0859 H       1  UNL1        0.0654
     28 H          -2.2869    1.3451   -0.9681 H       1  UNL1        0.0624
     29 H           4.3723    0.0747    0.3150 H       1  UNL1        0.0691
     30 H           5.4363   -1.6131    1.8892 H       1  UNL1        0.2921
     31 H           2.3780   -1.5950    3.6727 H       1  UNL1        0.0654
     32 H           0.2480   -0.9139    2.7608 H       1  UNL1        0.0624
     33 H          -0.1683   -2.1282   -0.9384 H       1  UNL1        0.0622
     34 H          -2.0105   -3.8197   -0.7895 H       1  UNL1        0.0618
     35 H          -3.9954   -3.3826    0.5765 H       1  UNL1        0.0618
     36 H          -4.1902   -1.2143    1.8447 H       1  UNL1        0.0626
     37 H           1.9340    2.2086   -3.2006 H       1  UNL1        0.0691
@<TRIPOS>BOND
     1     1     2    1
     2     2     3   ar
     3     3     4   ar
     4     4     5   ar
     5     5     6   ar
     6     6     7    1
     7     7     8    1
     8     8     9   ar
     9     9    10   ar
    10    10    11    1
    11    10    12   ar
    12    12    13   ar
    13    13    14   ar
    14    14    15    1
    15    15    16    1
    16    16    17    1
    17    17    18    2
    18    17    19    1
    19    19    20   ar
    20    20    21   ar
    21    21    22   ar
    22    22    23   ar
    23    23    24   ar
    24     6    25   ar
    25    25     2   ar
    26    15     5    1
    27    20    15    1
    28    14     8   ar
    29    24    19   ar
    30     1    26    1
    31     3    27    1
    32     4    28    1
    33     9    29    1
    34    11    30    1
    35    12    31    1
    36    13    32    1
    37    21    33    1
    38    22    34    1
    39    23    35    1
    40    24    36    1
    41    25    37    1
