
     RDKit          3D

 68 73  0  0  0  0  0  0  0  0999 V2000
    7.9504    1.6676    1.1880 C   0  0  0  0  0  0  0  0  0  0  0  0
    8.3759    0.3029    0.9928 N   0  0  0  0  0  0  0  0  0  0  0  0
    7.3067   -0.6358    1.2670 C   0  0  0  0  0  0  0  0  0  0  0  0
    7.5570   -1.7757    0.3087 C   0  0  1  0  0  0  0  0  0  0  0  0
    6.2552   -2.3847   -0.0952 C   0  0  0  0  0  0  0  0  0  0  0  0
    5.6372   -1.3666   -0.9187 N   0  0  0  0  0  0  0  0  0  0  0  0
    4.2446   -1.1854   -1.0409 C   0  0  0  0  0  0  0  0  0  0  0  0
    3.5388   -0.3477   -0.2121 C   0  0  0  0  0  0  0  0  0  0  0  0
    2.1620   -0.1788   -0.3419 C   0  0  0  0  0  0  0  0  0  0  0  0
    1.4604   -0.8511   -1.3121 C   0  0  0  0  0  0  0  0  0  0  0  0
    0.0718   -0.7604   -1.5398 N   0  0  0  0  0  0  0  0  0  0  0  0
   -0.8444    0.0483   -0.8095 C   0  0  0  0  0  0  0  0  0  0  0  0
   -0.5129    0.8581    0.1981 N   0  0  0  0  0  0  0  0  0  0  0  0
   -1.4023    1.6036    0.8634 C   0  0  0  0  0  0  0  0  0  0  0  0
   -2.7364    1.5697    0.5311 C   0  0  0  0  0  0  0  0  0  0  0  0
   -3.8680    2.1852    0.9892 C   0  0  0  0  0  0  0  0  0  0  0  0
   -4.9380    1.7550    0.2554 C   0  0  0  0  0  0  0  0  0  0  0  0
   -6.3414    2.1575    0.3986 C   0  0  0  0  0  0  0  0  0  0  0  0
   -6.9801    2.6928   -0.5318 O   0  0  0  0  0  0  0  0  0  0  0  0
   -6.9855    1.9303    1.6293 N   0  0  0  0  0  0  0  0  0  0  0  0
   -8.3695    2.3237    1.7787 C   0  0  0  0  0  0  0  0  0  0  0  0
   -6.2794    1.3115    2.7375 C   0  0  0  0  0  0  0  0  0  0  0  0
   -4.4431    0.8643   -0.6609 N   0  0  0  0  0  0  0  0  0  0  0  0
   -5.2854    0.2083   -1.6072 C   0  0  0  0  0  0  0  0  0  0  0  0
   -6.4316   -0.5697   -1.0105 C   0  0  0  0  0  0  0  0  0  0  0  0
   -5.7367   -1.7797   -0.4269 C   0  0  0  0  0  0  0  0  0  0  0  0
   -4.6623   -2.0663   -1.4540 C   0  0  0  0  0  0  0  0  0  0  0  0
   -4.5890   -0.8746   -2.3768 C   0  0  0  0  0  0  0  0  0  0  0  0
   -3.1159    0.7300   -0.5213 C   0  0  0  0  0  0  0  0  0  0  0  0
   -2.1569    0.0213   -1.1289 N   0  0  0  0  0  0  0  0  0  0  0  0
    2.1936   -1.6823   -2.1267 N   0  0  0  0  0  0  0  0  0  0  0  0
    3.5139   -1.8439   -2.0017 C   0  0  0  0  0  0  0  0  0  0  0  0
    6.7056   -0.6517   -1.5285 C   0  0  0  0  0  0  0  0  0  0  0  0
    6.5651    0.1908   -2.4375 O   0  0  0  0  0  0  0  0  0  0  0  0
    8.0058   -1.0505   -0.9308 C   0  0  1  0  0  0  0  0  0  0  0  0
    8.7743    0.1193   -0.3680 C   0  0  0  0  0  0  0  0  0  0  0  0
    7.2298    1.6599    2.0311 H   0  0  0  0  0  0  0  0  0  0  0  0
    7.4261    2.0883    0.2869 H   0  0  0  0  0  0  0  0  0  0  0  0
    8.8131    2.2979    1.4448 H   0  0  0  0  0  0  0  0  0  0  0  0
    6.3537   -0.1389    0.9928 H   0  0  0  0  0  0  0  0  0  0  0  0
    7.2907   -0.9587    2.3263 H   0  0  0  0  0  0  0  0  0  0  0  0
    8.2993   -2.4935    0.6861 H   0  0  0  0  0  0  0  0  0  0  0  0
    5.5811   -2.5940    0.7482 H   0  0  0  0  0  0  0  0  0  0  0  0
    6.4225   -3.3212   -0.6879 H   0  0  0  0  0  0  0  0  0  0  0  0
    4.0203    0.2249    0.5859 H   0  0  0  0  0  0  0  0  0  0  0  0
    1.6593    0.4904    0.3354 H   0  0  0  0  0  0  0  0  0  0  0  0
   -0.3081   -1.3635   -2.3403 H   0  0  0  0  0  0  0  0  0  0  0  0
   -1.1107    2.2629    1.6887 H   0  0  0  0  0  0  0  0  0  0  0  0
   -3.8981    2.9103    1.8183 H   0  0  0  0  0  0  0  0  0  0  0  0
   -8.7219    2.2235    2.8260 H   0  0  0  0  0  0  0  0  0  0  0  0
   -9.0237    1.7486    1.0783 H   0  0  0  0  0  0  0  0  0  0  0  0
   -8.4918    3.3895    1.4964 H   0  0  0  0  0  0  0  0  0  0  0  0
   -7.0065    0.7245    3.3230 H   0  0  0  0  0  0  0  0  0  0  0  0
   -5.7777    2.1126    3.3325 H   0  0  0  0  0  0  0  0  0  0  0  0
   -5.5075    0.6589    2.2917 H   0  0  0  0  0  0  0  0  0  0  0  0
   -5.6428    0.9443   -2.3706 H   0  0  0  0  0  0  0  0  0  0  0  0
   -7.0901   -0.0388   -0.3477 H   0  0  0  0  0  0  0  0  0  0  0  0
   -7.0370   -0.9404   -1.8756 H   0  0  0  0  0  0  0  0  0  0  0  0
   -5.3324   -1.5175    0.5627 H   0  0  0  0  0  0  0  0  0  0  0  0
   -6.4716   -2.5799   -0.3232 H   0  0  0  0  0  0  0  0  0  0  0  0
   -4.9716   -2.9847   -2.0003 H   0  0  0  0  0  0  0  0  0  0  0  0
   -3.7139   -2.2283   -0.9158 H   0  0  0  0  0  0  0  0  0  0  0  0
   -3.5900   -0.6401   -2.7399 H   0  0  0  0  0  0  0  0  0  0  0  0
   -5.2647   -1.1357   -3.2520 H   0  0  0  0  0  0  0  0  0  0  0  0
    4.0818   -2.5078   -2.6569 H   0  0  0  0  0  0  0  0  0  0  0  0
    8.6125   -1.6867   -1.6037 H   0  0  0  0  0  0  0  0  0  0  0  0
    9.8442   -0.1781   -0.3617 H   0  0  0  0  0  0  0  0  0  0  0  0
    8.6864    1.0363   -0.9708 H   0  0  0  0  0  0  0  0  0  0  0  0
  1  2  1  0
  2  3  1  0
  3  4  1  0
  4  5  1  0
  5  6  1  0
  6  7  1  0
  7  8  2  0
  8  9  1  0
  9 10  2  0
 10 11  1  0
 11 12  1  0
 12 13  2  0
 13 14  1  0
 14 15  2  0
 15 16  1  0
 16 17  2  0
 17 18  1  0
 18 19  2  0
 18 20  1  0
 20 21  1  0
 20 22  1  0
 17 23  1  0
 23 24  1  0
 24 25  1  0
 25 26  1  0
 26 27  1  0
 27 28  1  0
 23 29  1  0
 29 30  2  0
 10 31  1  0
 31 32  2  0
  6 33  1  0
 33 34  2  0
 33 35  1  0
 35 36  1  0
 36  2  1  0
 35  4  1  0
 32  7  1  0
 30 12  1  0
 29 15  1  0
 28 24  1  0
  1 37  1  0
  1 38  1  0
  1 39  1  0
  3 40  1  0
  3 41  1  0
  4 42  1  1
  5 43  1  0
  5 44  1  0
  8 45  1  0
  9 46  1  0
 11 47  1  0
 14 48  1  0
 16 49  1  0
 21 50  1  0
 21 51  1  0
 21 52  1  0
 22 53  1  0
 22 54  1  0
 22 55  1  0
 24 56  1  0
 25 57  1  0
 25 58  1  0
 26 59  1  0
 26 60  1  0
 27 61  1  0
 27 62  1  0
 28 63  1  0
 28 64  1  0
 32 65  1  0
 35 66  1  6
 36 67  1  0
 36 68  1  0
M  END
$$$$
