@<TRIPOS>MOLECULE
*****
 68 73 0 0 0
SMALL
GASTEIGER

@<TRIPOS>ATOM
      1 C           7.9504    1.6676    1.1880 C.3     1  UNL1       -0.0127
      2 N           8.3759    0.3029    0.9928 N.3     1  UNL1       -0.3043
      3 C           7.3067   -0.6358    1.2670 C.3     1  UNL1        0.0036
      4 C           7.5570   -1.7757    0.3087 C.3     1  UNL1        0.0002
      5 C           6.2552   -2.3847   -0.0952 C.3     1  UNL1        0.0246
      6 N           5.6372   -1.3666   -0.9187 N.am    1  UNL1       -0.2694
      7 C           4.2446   -1.1854   -1.0409 C.ar    1  UNL1        0.0545
      8 C           3.5388   -0.3477   -0.2121 C.ar    1  UNL1       -0.0355
      9 C           2.1620   -0.1788   -0.3419 C.ar    1  UNL1       -0.0197
     10 C           1.4604   -0.8511   -1.3121 C.ar    1  UNL1        0.1251
     11 N           0.0718   -0.7604   -1.5398 N.pl3   1  UNL1       -0.2684
     12 C          -0.8444    0.0483   -0.8095 C.ar    1  UNL1        0.2224
     13 N          -0.5129    0.8581    0.1981 N.ar    1  UNL1       -0.2219
     14 C          -1.4023    1.6036    0.8634 C.ar    1  UNL1        0.0419
     15 C          -2.7364    1.5697    0.5311 C.ar    1  UNL1        0.0378
     16 C          -3.8680    2.1852    0.9892 C.ar    1  UNL1       -0.0209
     17 C          -4.9380    1.7550    0.2554 C.ar    1  UNL1        0.1070
     18 C          -6.3414    2.1575    0.3986 C.2     1  UNL1        0.2627
     19 O          -6.9801    2.6928   -0.5318 O.2     1  UNL1       -0.2684
     20 N          -6.9855    1.9303    1.6293 N.am    1  UNL1       -0.3024
     21 C          -8.3695    2.3237    1.7787 C.3     1  UNL1        0.0032
     22 C          -6.2794    1.3115    2.7375 C.3     1  UNL1        0.0032
     23 N          -4.4431    0.8643   -0.6609 N.ar    1  UNL1       -0.3180
     24 C          -5.2854    0.2083   -1.6072 C.3     1  UNL1        0.0366
     25 C          -6.4316   -0.5697   -1.0105 C.3     1  UNL1       -0.0320
     26 C          -5.7367   -1.7797   -0.4269 C.3     1  UNL1       -0.0511
     27 C          -4.6623   -2.0663   -1.4540 C.3     1  UNL1       -0.0511
     28 C          -4.5890   -0.8746   -2.3768 C.3     1  UNL1       -0.0320
     29 C          -3.1159    0.7300   -0.5213 C.ar    1  UNL1        0.1466
     30 N          -2.1569    0.0213   -1.1289 N.ar    1  UNL1       -0.1962
     31 N           2.1936   -1.6823   -2.1267 N.ar    1  UNL1       -0.2383
     32 C           3.5139   -1.8439   -2.0017 C.ar    1  UNL1        0.0511
     33 C           6.7056   -0.6517   -1.5285 C.2     1  UNL1        0.2245
     34 O           6.5651    0.1908   -2.4375 O.2     1  UNL1       -0.2749
     35 C           8.0058   -1.0505   -0.9308 C.3     1  UNL1        0.0542
     36 C           8.7743    0.1193   -0.3680 C.3     1  UNL1        0.0101
     37 H           7.2298    1.6599    2.0311 H       1  UNL1        0.0391
     38 H           7.4261    2.0883    0.2869 H       1  UNL1        0.0391
     39 H           8.8131    2.2979    1.4448 H       1  UNL1        0.0391
     40 H           6.3537   -0.1389    0.9928 H       1  UNL1        0.0430
     41 H           7.2907   -0.9587    2.3263 H       1  UNL1        0.0430
     42 H           8.2993   -2.4935    0.6861 H       1  UNL1        0.0336
     43 H           5.5811   -2.5940    0.7482 H       1  UNL1        0.0472
     44 H           6.4225   -3.3212   -0.6879 H       1  UNL1        0.0472
     45 H           4.0203    0.2249    0.5859 H       1  UNL1        0.0638
     46 H           1.6593    0.4904    0.3354 H       1  UNL1        0.0652
     47 H          -0.3081   -1.3635   -2.3403 H       1  UNL1        0.1564
     48 H          -1.1107    2.2629    1.6887 H       1  UNL1        0.0838
     49 H          -3.8981    2.9103    1.8183 H       1  UNL1        0.0647
     50 H          -8.7219    2.2235    2.8260 H       1  UNL1        0.0428
     51 H          -9.0237    1.7486    1.0783 H       1  UNL1        0.0428
     52 H          -8.4918    3.3895    1.4964 H       1  UNL1        0.0428
     53 H          -7.0065    0.7245    3.3230 H       1  UNL1        0.0428
     54 H          -5.7777    2.1126    3.3325 H       1  UNL1        0.0428
     55 H          -5.5075    0.6589    2.2917 H       1  UNL1        0.0428
     56 H          -5.6428    0.9443   -2.3706 H       1  UNL1        0.0528
     57 H          -7.0901   -0.0388   -0.3477 H       1  UNL1        0.0285
     58 H          -7.0370   -0.9404   -1.8756 H       1  UNL1        0.0285
     59 H          -5.3324   -1.5175    0.5627 H       1  UNL1        0.0266
     60 H          -6.4716   -2.5799   -0.3232 H       1  UNL1        0.0266
     61 H          -4.9716   -2.9847   -2.0003 H       1  UNL1        0.0266
     62 H          -3.7139   -2.2283   -0.9158 H       1  UNL1        0.0266
     63 H          -3.5900   -0.6401   -2.7399 H       1  UNL1        0.0285
     64 H          -5.2647   -1.1357   -3.2520 H       1  UNL1        0.0285
     65 H           4.0818   -2.5078   -2.6569 H       1  UNL1        0.0849
     66 H           8.6125   -1.6867   -1.6037 H       1  UNL1        0.0411
     67 H           9.8442   -0.1781   -0.3617 H       1  UNL1        0.0434
     68 H           8.6864    1.0363   -0.9708 H       1  UNL1        0.0434
@<TRIPOS>BOND
     1     1     2    1
     2     2     3    1
     3     3     4    1
     4     4     5    1
     5     5     6    1
     6     6     7    1
     7     7     8   ar
     8     8     9   ar
     9     9    10   ar
    10    10    11    1
    11    11    12    1
    12    12    13   ar
    13    13    14   ar
    14    14    15   ar
    15    15    16   ar
    16    16    17   ar
    17    17    18    1
    18    18    19    2
    19    18    20   am
    20    20    21    1
    21    20    22    1
    22    17    23   ar
    23    23    24    1
    24    24    25    1
    25    25    26    1
    26    26    27    1
    27    27    28    1
    28    23    29   ar
    29    29    30   ar
    30    10    31   ar
    31    31    32   ar
    32     6    33   am
    33    33    34    2
    34    33    35    1
    35    35    36    1
    36    36     2    1
    37    35     4    1
    38    32     7   ar
    39    30    12   ar
    40    29    15   ar
    41    28    24    1
    42     1    37    1
    43     1    38    1
    44     1    39    1
    45     3    40    1
    46     3    41    1
    47     4    42    1
    48     5    43    1
    49     5    44    1
    50     8    45    1
    51     9    46    1
    52    11    47    1
    53    14    48    1
    54    16    49    1
    55    21    50    1
    56    21    51    1
    57    21    52    1
    58    22    53    1
    59    22    54    1
    60    22    55    1
    61    24    56    1
    62    25    57    1
    63    25    58    1
    64    26    59    1
    65    26    60    1
    66    27    61    1
    67    27    62    1
    68    28    63    1
    69    28    64    1
    70    32    65    1
    71    35    66    1
    72    36    67    1
    73    36    68    1
