@<TRIPOS>MOLECULE
*****
 55 59 0 0 0
SMALL
GASTEIGER

@<TRIPOS>ATOM
      1 C          -0.8845   -0.0885   -4.2233 C.3     1  UNL1       -0.0380
      2 C          -1.9063    0.0841   -3.1556 C.ar    1  UNL1       -0.0292
      3 C          -3.2395    0.2506   -3.5530 C.ar    1  UNL1       -0.0564
      4 C          -4.2314    0.4005   -2.6112 C.ar    1  UNL1       -0.0493
      5 C          -3.9686    0.3946   -1.2466 C.ar    1  UNL1        0.0385
      6 C          -5.0501    0.5640   -0.2867 C.2     1  UNL1        0.2443
      7 O          -6.2114    0.8130   -0.7195 O.2     1  UNL1       -0.2702
      8 N          -4.8718    0.4637    1.1170 N.am    1  UNL1       -0.3085
      9 C          -5.9699    0.6412    2.0519 C.3     1  UNL1        0.0235
     10 C          -5.5640    0.9786    3.4558 C.3     1  UNL1       -0.0328
     11 C          -6.0693   -0.4006    3.1780 C.3     1  UNL1       -0.0328
     12 C          -2.6603    0.2309   -0.8822 C.ar    1  UNL1       -0.0281
     13 C          -1.6460    0.0788   -1.8098 C.ar    1  UNL1        0.0361
     14 N          -0.2903   -0.0895   -1.3928 N.pl3   1  UNL1       -0.2975
     15 C           0.6652    0.8658   -1.7736 C.ar    1  UNL1        0.1506
     16 N           0.2747    1.9421   -2.5481 N.ar    1  UNL1       -0.2167
     17 C           1.1904    2.8522   -2.8855 C.ar    1  UNL1        0.1388
     18 N           2.4724    2.7671   -2.5053 N.ar    1  UNL1       -0.1548
     19 N           2.8788    1.7566   -1.7684 N.ar    1  UNL1       -0.2342
     20 C           4.0801    1.4270   -1.2464 C.ar    1  UNL1        0.0411
     21 C           3.9784    0.2632   -0.5370 C.ar    1  UNL1        0.0454
     22 C           5.0998   -0.3527    0.1880 C.2     1  UNL1        0.1949
     23 O           6.1799   -0.5125   -0.4274 O.2     1  UNL1       -0.2866
     24 C           4.9924   -0.7744    1.5792 C.ar    1  UNL1        0.0223
     25 C           4.0288   -0.2517    2.4424 C.ar    1  UNL1       -0.0509
     26 C           3.9626   -0.6822    3.7444 C.ar    1  UNL1       -0.0611
     27 C           4.8421   -1.6312    4.2144 C.ar    1  UNL1       -0.0617
     28 C           5.7804   -2.1253    3.3357 C.ar    1  UNL1       -0.0611
     29 C           5.8874   -1.7293    2.0292 C.ar    1  UNL1       -0.0509
     30 C           2.6568   -0.1353   -0.6319 C.ar    1  UNL1       -0.0094
     31 C           2.1658   -1.3676   -0.0139 C.3     1  UNL1       -0.0369
     32 C           1.9917    0.8100   -1.4013 C.ar    1  UNL1        0.1089
     33 H          -0.7514    0.7949   -4.8608 H       1  UNL1        0.0278
     34 H          -1.3051   -0.8721   -4.9291 H       1  UNL1        0.0278
     35 H           0.0280   -0.5274   -3.8021 H       1  UNL1        0.0278
     36 H          -3.4773    0.2593   -4.6097 H       1  UNL1        0.0621
     37 H          -5.2837    0.5325   -2.8966 H       1  UNL1        0.0625
     38 H          -3.9059    0.2531    1.4552 H       1  UNL1        0.1493
     39 H          -6.9433    0.9633    1.7002 H       1  UNL1        0.0498
     40 H          -6.1963    1.6495    4.0709 H       1  UNL1        0.0284
     41 H          -4.4889    1.0768    3.7307 H       1  UNL1        0.0284
     42 H          -5.4036   -1.2764    3.1213 H       1  UNL1        0.0284
     43 H          -7.0680   -0.6272    3.5892 H       1  UNL1        0.0284
     44 H          -2.3728    0.2151    0.1611 H       1  UNL1        0.0644
     45 H          -0.0973   -0.9006   -0.8323 H       1  UNL1        0.1536
     46 H           0.9135    3.7204   -3.5001 H       1  UNL1        0.1066
     47 H           4.9852    2.0001   -1.3713 H       1  UNL1        0.0837
     48 H           3.3281    0.4979    2.0844 H       1  UNL1        0.0625
     49 H           3.2129   -0.2839    4.4368 H       1  UNL1        0.0618
     50 H           4.7844   -1.9710    5.2544 H       1  UNL1        0.0618
     51 H           6.4704   -2.8686    3.7042 H       1  UNL1        0.0618
     52 H           6.6532   -2.1675    1.4051 H       1  UNL1        0.0625
     53 H           3.0552   -1.9527    0.3972 H       1  UNL1        0.0278
     54 H           1.8230   -2.0730   -0.8329 H       1  UNL1        0.0278
     55 H           1.4750   -1.2847    0.8075 H       1  UNL1        0.0278
@<TRIPOS>BOND
     1     1     2    1
     2     2     3   ar
     3     3     4   ar
     4     4     5   ar
     5     5     6    1
     6     6     7    2
     7     6     8   am
     8     8     9    1
     9     9    10    1
    10    10    11    1
    11     5    12   ar
    12    12    13   ar
    13    13    14    1
    14    14    15    1
    15    15    16   ar
    16    16    17   ar
    17    17    18   ar
    18    18    19   ar
    19    19    20   ar
    20    20    21   ar
    21    21    22    1
    22    22    23    2
    23    22    24    1
    24    24    25   ar
    25    25    26   ar
    26    26    27   ar
    27    27    28   ar
    28    28    29   ar
    29    21    30   ar
    30    30    31    1
    31    30    32   ar
    32    13     2   ar
    33    32    15   ar
    34    11     9    1
    35    32    19   ar
    36    29    24   ar
    37     1    33    1
    38     1    34    1
    39     1    35    1
    40     3    36    1
    41     4    37    1
    42     8    38    1
    43     9    39    1
    44    10    40    1
    45    10    41    1
    46    11    42    1
    47    11    43    1
    48    12    44    1
    49    14    45    1
    50    17    46    1
    51    20    47    1
    52    25    48    1
    53    26    49    1
    54    27    50    1
    55    28    51    1
    56    29    52    1
    57    31    53    1
    58    31    54    1
    59    31    55    1
