
     RDKit          3D

 55 59  0  0  0  0  0  0  0  0999 V2000
   -0.8845   -0.0885   -4.2233 C   0  0  0  0  0  0  0  0  0  0  0  0
   -1.9063    0.0841   -3.1556 C   0  0  0  0  0  0  0  0  0  0  0  0
   -3.2395    0.2506   -3.5530 C   0  0  0  0  0  0  0  0  0  0  0  0
   -4.2314    0.4005   -2.6112 C   0  0  0  0  0  0  0  0  0  0  0  0
   -3.9686    0.3946   -1.2466 C   0  0  0  0  0  0  0  0  0  0  0  0
   -5.0501    0.5640   -0.2867 C   0  0  0  0  0  0  0  0  0  0  0  0
   -6.2114    0.8130   -0.7195 O   0  0  0  0  0  0  0  0  0  0  0  0
   -4.8718    0.4637    1.1170 N   0  0  0  0  0  0  0  0  0  0  0  0
   -5.9699    0.6412    2.0519 C   0  0  0  0  0  0  0  0  0  0  0  0
   -5.5640    0.9786    3.4558 C   0  0  0  0  0  0  0  0  0  0  0  0
   -6.0693   -0.4006    3.1780 C   0  0  0  0  0  0  0  0  0  0  0  0
   -2.6603    0.2309   -0.8822 C   0  0  0  0  0  0  0  0  0  0  0  0
   -1.6460    0.0788   -1.8098 C   0  0  0  0  0  0  0  0  0  0  0  0
   -0.2903   -0.0895   -1.3928 N   0  0  0  0  0  0  0  0  0  0  0  0
    0.6652    0.8658   -1.7736 C   0  0  0  0  0  0  0  0  0  0  0  0
    0.2747    1.9421   -2.5481 N   0  0  0  0  0  0  0  0  0  0  0  0
    1.1904    2.8522   -2.8855 C   0  0  0  0  0  0  0  0  0  0  0  0
    2.4724    2.7671   -2.5053 N   0  0  0  0  0  0  0  0  0  0  0  0
    2.8788    1.7566   -1.7684 N   0  0  0  0  0  0  0  0  0  0  0  0
    4.0801    1.4270   -1.2464 C   0  0  0  0  0  0  0  0  0  0  0  0
    3.9784    0.2632   -0.5370 C   0  0  0  0  0  0  0  0  0  0  0  0
    5.0998   -0.3527    0.1880 C   0  0  0  0  0  0  0  0  0  0  0  0
    6.1799   -0.5125   -0.4274 O   0  0  0  0  0  0  0  0  0  0  0  0
    4.9924   -0.7744    1.5792 C   0  0  0  0  0  0  0  0  0  0  0  0
    4.0288   -0.2517    2.4424 C   0  0  0  0  0  0  0  0  0  0  0  0
    3.9626   -0.6822    3.7444 C   0  0  0  0  0  0  0  0  0  0  0  0
    4.8421   -1.6312    4.2144 C   0  0  0  0  0  0  0  0  0  0  0  0
    5.7804   -2.1253    3.3357 C   0  0  0  0  0  0  0  0  0  0  0  0
    5.8874   -1.7293    2.0292 C   0  0  0  0  0  0  0  0  0  0  0  0
    2.6568   -0.1353   -0.6319 C   0  0  0  0  0  0  0  0  0  0  0  0
    2.1658   -1.3676   -0.0139 C   0  0  0  0  0  0  0  0  0  0  0  0
    1.9917    0.8100   -1.4013 C   0  0  0  0  0  0  0  0  0  0  0  0
   -0.7514    0.7949   -4.8608 H   0  0  0  0  0  0  0  0  0  0  0  0
   -1.3051   -0.8721   -4.9291 H   0  0  0  0  0  0  0  0  0  0  0  0
    0.0280   -0.5274   -3.8021 H   0  0  0  0  0  0  0  0  0  0  0  0
   -3.4773    0.2593   -4.6097 H   0  0  0  0  0  0  0  0  0  0  0  0
   -5.2837    0.5325   -2.8966 H   0  0  0  0  0  0  0  0  0  0  0  0
   -3.9059    0.2531    1.4552 H   0  0  0  0  0  0  0  0  0  0  0  0
   -6.9433    0.9633    1.7002 H   0  0  0  0  0  0  0  0  0  0  0  0
   -6.1963    1.6495    4.0709 H   0  0  0  0  0  0  0  0  0  0  0  0
   -4.4889    1.0768    3.7307 H   0  0  0  0  0  0  0  0  0  0  0  0
   -5.4036   -1.2764    3.1213 H   0  0  0  0  0  0  0  0  0  0  0  0
   -7.0680   -0.6272    3.5892 H   0  0  0  0  0  0  0  0  0  0  0  0
   -2.3728    0.2151    0.1611 H   0  0  0  0  0  0  0  0  0  0  0  0
   -0.0973   -0.9006   -0.8323 H   0  0  0  0  0  0  0  0  0  0  0  0
    0.9135    3.7204   -3.5001 H   0  0  0  0  0  0  0  0  0  0  0  0
    4.9852    2.0001   -1.3713 H   0  0  0  0  0  0  0  0  0  0  0  0
    3.3281    0.4979    2.0844 H   0  0  0  0  0  0  0  0  0  0  0  0
    3.2129   -0.2839    4.4368 H   0  0  0  0  0  0  0  0  0  0  0  0
    4.7844   -1.9710    5.2544 H   0  0  0  0  0  0  0  0  0  0  0  0
    6.4704   -2.8686    3.7042 H   0  0  0  0  0  0  0  0  0  0  0  0
    6.6532   -2.1675    1.4051 H   0  0  0  0  0  0  0  0  0  0  0  0
    3.0552   -1.9527    0.3972 H   0  0  0  0  0  0  0  0  0  0  0  0
    1.8230   -2.0730   -0.8329 H   0  0  0  0  0  0  0  0  0  0  0  0
    1.4750   -1.2847    0.8075 H   0  0  0  0  0  0  0  0  0  0  0  0
  1  2  1  0
  2  3  2  0
  3  4  1  0
  4  5  2  0
  5  6  1  0
  6  7  2  0
  6  8  1  0
  8  9  1  0
  9 10  1  0
 10 11  1  0
  5 12  1  0
 12 13  2  0
 13 14  1  0
 14 15  1  0
 15 16  2  0
 16 17  1  0
 17 18  2  0
 18 19  1  0
 19 20  1  0
 20 21  2  0
 21 22  1  0
 22 23  2  0
 22 24  1  0
 24 25  2  0
 25 26  1  0
 26 27  2  0
 27 28  1  0
 28 29  2  0
 21 30  1  0
 30 31  1  0
 30 32  2  0
 13  2  1  0
 32 15  1  0
 11  9  1  0
 32 19  1  0
 29 24  1  0
  1 33  1  0
  1 34  1  0
  1 35  1  0
  3 36  1  0
  4 37  1  0
  8 38  1  0
  9 39  1  0
 10 40  1  0
 10 41  1  0
 11 42  1  0
 11 43  1  0
 12 44  1  0
 14 45  1  0
 17 46  1  0
 20 47  1  0
 25 48  1  0
 26 49  1  0
 27 50  1  0
 28 51  1  0
 29 52  1  0
 31 53  1  0
 31 54  1  0
 31 55  1  0
M  END
$$$$
