
     RDKit          3D

 52 56  0  0  0  0  0  0  0  0999 V2000
    3.6593   -1.3282   -3.3330 C   0  0  0  0  0  0  0  0  0  0  0  0
    3.4579   -0.4890   -2.6165 C   0  0  0  0  0  0  0  0  0  0  0  0
    3.2274    0.5448   -1.7295 C   0  0  2  0  0  0  0  0  0  0  0  0
    3.7724    1.7925   -2.1379 O   0  0  0  0  0  0  0  0  0  0  0  0
    3.9944    0.1677   -0.3937 C   0  0  0  0  0  0  0  0  0  0  0  0
    3.0363   -0.7327    0.3470 C   0  0  0  0  0  0  0  0  0  0  0  0
    1.7333   -0.6217   -0.3598 C   0  0  1  0  0  0  0  0  0  0  0  0
    0.5394   -0.5716    0.5389 C   0  0  2  0  0  0  0  0  0  0  0  0
    0.3672   -1.9164    1.1979 C   0  0  0  0  0  0  0  0  0  0  0  0
   -0.8996   -2.0514    1.9426 C   0  0  0  0  0  0  0  0  0  0  0  0
   -1.9779   -1.1440    1.5435 C   0  0  0  0  0  0  0  0  0  0  0  0
   -3.1352   -1.3301    2.1135 C   0  0  0  0  0  0  0  0  0  0  0  0
   -4.3333   -0.5726    1.8877 C   0  0  0  0  0  0  0  0  0  0  0  0
   -5.5430   -0.5210    2.3480 O   0  0  0  0  0  0  0  0  0  0  0  0
   -6.2323    0.3868    1.8422 N   0  0  0  0  0  0  0  0  0  0  0  0
   -5.4975    1.0779    0.9139 C   0  0  0  0  0  0  0  0  0  0  0  0
   -4.2383    0.4614    0.9151 C   0  0  0  0  0  0  0  0  0  0  0  0
   -3.0298    0.5824    0.0935 C   0  0  0  0  0  0  0  0  0  0  0  0
   -1.8008    0.0288    0.6685 C   0  0  1  0  0  0  0  0  0  0  0  0
   -1.2782    1.1379    1.6241 C   0  0  0  0  0  0  0  0  0  0  0  0
   -0.7061   -0.3377   -0.3184 C   0  0  1  0  0  0  0  0  0  0  0  0
   -0.5490    0.7012   -1.3657 C   0  0  0  0  0  0  0  0  0  0  0  0
    0.7496    0.6321   -2.1282 C   0  0  0  0  0  0  0  0  0  0  0  0
    1.8860    0.6875   -1.1415 C   0  0  2  0  0  0  0  0  0  0  0  0
    1.8019    1.9119   -0.2597 C   0  0  0  0  0  0  0  0  0  0  0  0
    3.8687   -2.2976   -4.1576 H   0  0  0  0  0  0  0  0  0  0  0  0
    4.7208    1.7937   -1.7714 H   0  0  0  0  0  0  0  0  0  0  0  0
    4.2091    1.0916    0.1599 H   0  0  0  0  0  0  0  0  0  0  0  0
    4.9112   -0.3270   -0.6866 H   0  0  0  0  0  0  0  0  0  0  0  0
    3.4127   -1.7866    0.2700 H   0  0  0  0  0  0  0  0  0  0  0  0
    2.9092   -0.4117    1.4184 H   0  0  0  0  0  0  0  0  0  0  0  0
    1.6000   -1.4182   -1.1104 H   0  0  0  0  0  0  0  0  0  0  0  0
    0.6042    0.2415    1.2819 H   0  0  0  0  0  0  0  0  0  0  0  0
    0.4544   -2.6714    0.3690 H   0  0  0  0  0  0  0  0  0  0  0  0
    1.2094   -2.0843    1.9007 H   0  0  0  0  0  0  0  0  0  0  0  0
   -1.2806   -3.0967    1.8637 H   0  0  0  0  0  0  0  0  0  0  0  0
   -0.6826   -1.8823    3.0486 H   0  0  0  0  0  0  0  0  0  0  0  0
   -3.2294   -2.1627    2.8575 H   0  0  0  0  0  0  0  0  0  0  0  0
   -5.7886    1.9128    0.3284 H   0  0  0  0  0  0  0  0  0  0  0  0
   -2.8940    1.6729   -0.1213 H   0  0  0  0  0  0  0  0  0  0  0  0
   -3.3174    0.0610   -0.8894 H   0  0  0  0  0  0  0  0  0  0  0  0
   -0.6435    1.8665    1.1162 H   0  0  0  0  0  0  0  0  0  0  0  0
   -0.8902    0.6721    2.5311 H   0  0  0  0  0  0  0  0  0  0  0  0
   -2.2172    1.6893    1.9761 H   0  0  0  0  0  0  0  0  0  0  0  0
   -0.9854   -1.2964   -0.7603 H   0  0  0  0  0  0  0  0  0  0  0  0
   -1.3339    0.4325   -2.1609 H   0  0  0  0  0  0  0  0  0  0  0  0
   -0.7902    1.7157   -1.0428 H   0  0  0  0  0  0  0  0  0  0  0  0
    0.8298    1.3885   -2.8835 H   0  0  0  0  0  0  0  0  0  0  0  0
    0.7810   -0.3693   -2.6288 H   0  0  0  0  0  0  0  0  0  0  0  0
    0.9347    2.5318   -0.4968 H   0  0  0  0  0  0  0  0  0  0  0  0
    1.8977    1.6675    0.8121 H   0  0  0  0  0  0  0  0  0  0  0  0
    2.7062    2.5701   -0.4628 H   0  0  0  0  0  0  0  0  0  0  0  0
  1  2  3  0
  3  2  1  6
  3  4  1  0
  3  5  1  0
  5  6  1  0
  6  7  1  0
  7  8  1  0
  8  9  1  0
  9 10  1  0
 10 11  1  0
 11 12  2  0
 12 13  1  0
 13 14  1  0
 14 15  1  0
 15 16  2  0
 16 17  1  0
 17 18  1  0
 18 19  1  0
 19 20  1  1
 19 21  1  0
 21 22  1  0
 22 23  1  0
 23 24  1  0
 24 25  1  1
 24  3  1  0
 24  7  1  0
 21  8  1  0
 19 11  1  0
 17 13  2  0
  1 26  1  0
  4 27  1  0
  5 28  1  0
  5 29  1  0
  6 30  1  0
  6 31  1  0
  7 32  1  6
  8 33  1  1
  9 34  1  0
  9 35  1  0
 10 36  1  0
 10 37  1  0
 12 38  1  0
 16 39  1  0
 18 40  1  0
 18 41  1  0
 20 42  1  0
 20 43  1  0
 20 44  1  0
 21 45  1  6
 22 46  1  0
 22 47  1  0
 23 48  1  0
 23 49  1  0
 25 50  1  0
 25 51  1  0
 25 52  1  0
M  END
$$$$
