@<TRIPOS>MOLECULE
*****
 52 56 0 0 0
SMALL
GASTEIGER

@<TRIPOS>ATOM
      1 C           3.6593   -1.3282   -3.3330 C.1     1  UNL1       -0.1163
      2 C           3.4579   -0.4890   -2.6165 C.1     1  UNL1       -0.0704
      3 C           3.2274    0.5448   -1.7295 C.3     1  UNL1        0.1317
      4 O           3.7724    1.7925   -2.1379 O.3     1  UNL1       -0.3760
      5 C           3.9944    0.1677   -0.3937 C.3     1  UNL1       -0.0118
      6 C           3.0363   -0.7327    0.3470 C.3     1  UNL1       -0.0458
      7 C           1.7333   -0.6217   -0.3598 C.3     1  UNL1       -0.0289
      8 C           0.5394   -0.5716    0.5389 C.3     1  UNL1       -0.0337
      9 C           0.3672   -1.9164    1.1979 C.3     1  UNL1       -0.0459
     10 C          -0.8996   -2.0514    1.9426 C.3     1  UNL1       -0.0305
     11 C          -1.9779   -1.1440    1.5435 C.2     1  UNL1       -0.0595
     12 C          -3.1352   -1.3301    2.1135 C.2     1  UNL1       -0.0166
     13 C          -4.3333   -0.5726    1.8877 C.ar    1  UNL1        0.1633
     14 O          -5.5430   -0.5210    2.3480 O.2     1  UNL1       -0.3550
     15 N          -6.2323    0.3868    1.8422 N.ar    1  UNL1       -0.0858
     16 C          -5.4975    1.0779    0.9139 C.ar    1  UNL1        0.0738
     17 C          -4.2383    0.4614    0.9151 C.ar    1  UNL1        0.0195
     18 C          -3.0298    0.5824    0.0935 C.3     1  UNL1       -0.0132
     19 C          -1.8008    0.0288    0.6685 C.3     1  UNL1       -0.0035
     20 C          -1.2782    1.1379    1.6241 C.3     1  UNL1       -0.0553
     21 C          -0.7061   -0.3377   -0.3184 C.3     1  UNL1       -0.0285
     22 C          -0.5490    0.7012   -1.3657 C.3     1  UNL1       -0.0485
     23 C           0.7496    0.6321   -2.1282 C.3     1  UNL1       -0.0435
     24 C           1.8860    0.6875   -1.1415 C.3     1  UNL1        0.0111
     25 C           1.8019    1.9119   -0.2597 C.3     1  UNL1       -0.0558
     26 H           3.8687   -2.2976   -4.1576 H       1  UNL1        0.1229
     27 H           4.7208    1.7937   -1.7714 H       1  UNL1        0.2114
     28 H           4.2091    1.0916    0.1599 H       1  UNL1        0.0303
     29 H           4.9112   -0.3270   -0.6866 H       1  UNL1        0.0303
     30 H           3.4127   -1.7866    0.2700 H       1  UNL1        0.0269
     31 H           2.9092   -0.4117    1.4184 H       1  UNL1        0.0269
     32 H           1.6000   -1.4182   -1.1104 H       1  UNL1        0.0310
     33 H           0.6042    0.2415    1.2819 H       1  UNL1        0.0307
     34 H           0.4544   -2.6714    0.3690 H       1  UNL1        0.0271
     35 H           1.2094   -2.0843    1.9007 H       1  UNL1        0.0271
     36 H          -1.2806   -3.0967    1.8637 H       1  UNL1        0.0310
     37 H          -0.6826   -1.8823    3.0486 H       1  UNL1        0.0310
     38 H          -3.2294   -2.1627    2.8575 H       1  UNL1        0.0655
     39 H          -5.7886    1.9128    0.3284 H       1  UNL1        0.0867
     40 H          -2.8940    1.6729   -0.1213 H       1  UNL1        0.0323
     41 H          -3.3174    0.0610   -0.8894 H       1  UNL1        0.0323
     42 H          -0.6435    1.8665    1.1162 H       1  UNL1        0.0238
     43 H          -0.8902    0.6721    2.5311 H       1  UNL1        0.0238
     44 H          -2.2172    1.6893    1.9761 H       1  UNL1        0.0238
     45 H          -0.9854   -1.2964   -0.7603 H       1  UNL1        0.0312
     46 H          -1.3339    0.4325   -2.1609 H       1  UNL1        0.0268
     47 H          -0.7902    1.7157   -1.0428 H       1  UNL1        0.0268
     48 H           0.8298    1.3885   -2.8835 H       1  UNL1        0.0272
     49 H           0.7810   -0.3693   -2.6288 H       1  UNL1        0.0272
     50 H           0.9347    2.5318   -0.4968 H       1  UNL1        0.0236
     51 H           1.8977    1.6675    0.8121 H       1  UNL1        0.0236
     52 H           2.7062    2.5701   -0.4628 H       1  UNL1        0.0236
@<TRIPOS>BOND
     1     1     2    3
     2     3     2    1
     3     3     4    1
     4     3     5    1
     5     5     6    1
     6     6     7    1
     7     7     8    1
     8     8     9    1
     9     9    10    1
    10    10    11    1
    11    11    12    2
    12    12    13    1
    13    13    14   ar
    14    14    15   ar
    15    15    16   ar
    16    16    17   ar
    17    17    18    1
    18    18    19    1
    19    19    20    1
    20    19    21    1
    21    21    22    1
    22    22    23    1
    23    23    24    1
    24    24    25    1
    25    24     3    1
    26    24     7    1
    27    21     8    1
    28    19    11    1
    29    17    13   ar
    30     1    26    1
    31     4    27    1
    32     5    28    1
    33     5    29    1
    34     6    30    1
    35     6    31    1
    36     7    32    1
    37     8    33    1
    38     9    34    1
    39     9    35    1
    40    10    36    1
    41    10    37    1
    42    12    38    1
    43    16    39    1
    44    18    40    1
    45    18    41    1
    46    20    42    1
    47    20    43    1
    48    20    44    1
    49    21    45    1
    50    22    46    1
    51    22    47    1
    52    23    48    1
    53    23    49    1
    54    25    50    1
    55    25    51    1
    56    25    52    1
