@<TRIPOS>MOLECULE
*****
 50 53 0 0 0
SMALL
GASTEIGER

@<TRIPOS>ATOM
      1 C           1.4472    1.0225   -2.1353 C.3     1  UNL1       -0.0236
      2 C           1.8144    0.3891   -0.8425 C.ar    1  UNL1        0.0251
      3 C           0.9128   -0.1800    0.0113 C.ar    1  UNL1        0.0124
      4 C          -0.5228   -0.3013   -0.1038 C.ar    1  UNL1        0.0085
      5 C          -1.3153    0.6982    0.4210 C.ar    1  UNL1        0.0166
      6 N          -2.6552    0.6204    0.3404 N.ar    1  UNL1       -0.3116
      7 C          -3.4270    1.6964    0.9089 C.3     1  UNL1        0.0318
      8 C          -3.6442    2.7552   -0.1241 C.3     1  UNL1       -0.0444
      9 C          -4.7160    1.2113    1.5327 C.3     1  UNL1       -0.0444
     10 C          -3.2066   -0.4439   -0.2586 C.ar    1  UNL1        0.2593
     11 O          -4.4621   -0.4846   -0.3166 O.2     1  UNL1       -0.2670
     12 C          -2.4604   -1.4655   -0.7972 C.ar    1  UNL1        0.0473
     13 C          -3.0700   -2.5534   -1.4118 C.ar    1  UNL1       -0.0488
     14 C          -2.2684   -3.5462   -1.9339 C.ar    1  UNL1       -0.0610
     15 C          -0.8924   -3.5017   -1.8702 C.ar    1  UNL1       -0.0611
     16 C          -0.3051   -2.4142   -1.2564 C.ar    1  UNL1       -0.0532
     17 C          -1.0939   -1.3931   -0.7184 C.ar    1  UNL1       -0.0035
     18 C           1.6334   -0.6536    1.0882 C.ar    1  UNL1        0.0106
     19 C           1.2496   -1.3211    2.2586 C.ar    1  UNL1       -0.0167
     20 C           2.2333   -1.6662    3.1594 C.ar    1  UNL1        0.1241
     21 F           1.8564   -2.3099    4.2888 F       1  UNL1       -0.2055
     22 C           3.5479   -1.3514    2.8903 C.ar    1  UNL1       -0.0245
     23 C           3.9169   -0.6944    1.7359 C.ar    1  UNL1       -0.0349
     24 C           2.9548   -0.3477    0.8383 C.ar    1  UNL1        0.0505
     25 N           3.0484    0.2875   -0.3421 N.ar    1  UNL1       -0.3327
     26 C           4.2353    0.7764   -0.9616 C.3     1  UNL1        0.1204
     27 C           4.5741    2.1722   -0.6172 C.2     1  UNL1        0.3247
     28 O           5.2823    2.3477    0.4091 O.2     1  UNL1       -0.2490
     29 O           4.1355    3.2156   -1.3823 O.3     1  UNL1       -0.4794
     30 H           2.1718    0.7252   -2.9467 H       1  UNL1        0.0292
     31 H           1.3648    2.1266   -2.0654 H       1  UNL1        0.0292
     32 H           0.4469    0.6718   -2.4862 H       1  UNL1        0.0292
     33 H          -0.8174    1.5509    0.9025 H       1  UNL1        0.0816
     34 H          -2.8358    2.1354    1.7376 H       1  UNL1        0.0523
     35 H          -3.9920    3.7108    0.3291 H       1  UNL1        0.0249
     36 H          -4.2831    2.4217   -0.9600 H       1  UNL1        0.0249
     37 H          -2.6405    2.9799   -0.5690 H       1  UNL1        0.0249
     38 H          -5.5315    1.3192    0.8062 H       1  UNL1        0.0249
     39 H          -4.6114    0.1842    1.9463 H       1  UNL1        0.0249
     40 H          -4.9914    1.8485    2.4147 H       1  UNL1        0.0249
     41 H          -4.1349   -2.5515   -1.4415 H       1  UNL1        0.0625
     42 H          -2.7244   -4.3970   -2.4143 H       1  UNL1        0.0618
     43 H          -0.2439   -4.2791   -2.2771 H       1  UNL1        0.0618
     44 H           0.7711   -2.3322   -1.1811 H       1  UNL1        0.0624
     45 H           0.2034   -1.5433    2.4188 H       1  UNL1        0.0653
     46 H           4.2877   -1.6282    3.5983 H       1  UNL1        0.0647
     47 H           4.9552   -0.4423    1.5165 H       1  UNL1        0.0639
     48 H           5.0761    0.1015   -0.7044 H       1  UNL1        0.0607
     49 H           4.1028    0.7325   -2.0626 H       1  UNL1        0.0607
     50 H           4.6237    4.1010   -1.3729 H       1  UNL1        0.2951
@<TRIPOS>BOND
     1     1     2    1
     2     2     3   ar
     3     3     4    1
     4     4     5   ar
     5     5     6   ar
     6     6     7    1
     7     7     8    1
     8     7     9    1
     9     6    10   ar
    10    10    11    2
    11    10    12   ar
    12    12    13   ar
    13    13    14   ar
    14    14    15   ar
    15    15    16   ar
    16    16    17   ar
    17     3    18   ar
    18    18    19   ar
    19    19    20   ar
    20    20    21    1
    21    20    22   ar
    22    22    23   ar
    23    23    24   ar
    24    24    25   ar
    25    25    26    1
    26    26    27    1
    27    27    28    2
    28    27    29    1
    29    25     2   ar
    30    17     4   ar
    31    24    18   ar
    32    17    12   ar
    33     1    30    1
    34     1    31    1
    35     1    32    1
    36     5    33    1
    37     7    34    1
    38     8    35    1
    39     8    36    1
    40     8    37    1
    41     9    38    1
    42     9    39    1
    43     9    40    1
    44    13    41    1
    45    14    42    1
    46    15    43    1
    47    16    44    1
    48    19    45    1
    49    22    46    1
    50    23    47    1
    51    26    48    1
    52    26    49    1
    53    29    50    1
