
     RDKit          3D

 50 53  0  0  0  0  0  0  0  0999 V2000
    1.4472    1.0225   -2.1353 C   0  0  0  0  0  0  0  0  0  0  0  0
    1.8144    0.3891   -0.8425 C   0  0  0  0  0  0  0  0  0  0  0  0
    0.9128   -0.1800    0.0113 C   0  0  0  0  0  0  0  0  0  0  0  0
   -0.5228   -0.3013   -0.1038 C   0  0  0  0  0  0  0  0  0  0  0  0
   -1.3153    0.6982    0.4210 C   0  0  0  0  0  0  0  0  0  0  0  0
   -2.6552    0.6204    0.3404 N   0  0  0  0  0  0  0  0  0  0  0  0
   -3.4270    1.6964    0.9089 C   0  0  0  0  0  0  0  0  0  0  0  0
   -3.6442    2.7552   -0.1241 C   0  0  0  0  0  0  0  0  0  0  0  0
   -4.7160    1.2113    1.5327 C   0  0  0  0  0  0  0  0  0  0  0  0
   -3.2066   -0.4439   -0.2586 C   0  0  0  0  0  0  0  0  0  0  0  0
   -4.4621   -0.4846   -0.3166 O   0  0  0  0  0  0  0  0  0  0  0  0
   -2.4604   -1.4655   -0.7972 C   0  0  0  0  0  0  0  0  0  0  0  0
   -3.0700   -2.5534   -1.4118 C   0  0  0  0  0  0  0  0  0  0  0  0
   -2.2684   -3.5462   -1.9339 C   0  0  0  0  0  0  0  0  0  0  0  0
   -0.8924   -3.5017   -1.8702 C   0  0  0  0  0  0  0  0  0  0  0  0
   -0.3051   -2.4142   -1.2564 C   0  0  0  0  0  0  0  0  0  0  0  0
   -1.0939   -1.3931   -0.7184 C   0  0  0  0  0  0  0  0  0  0  0  0
    1.6334   -0.6536    1.0882 C   0  0  0  0  0  0  0  0  0  0  0  0
    1.2496   -1.3211    2.2586 C   0  0  0  0  0  0  0  0  0  0  0  0
    2.2333   -1.6662    3.1594 C   0  0  0  0  0  0  0  0  0  0  0  0
    1.8564   -2.3099    4.2888 F   0  0  0  0  0  0  0  0  0  0  0  0
    3.5479   -1.3514    2.8903 C   0  0  0  0  0  0  0  0  0  0  0  0
    3.9169   -0.6944    1.7359 C   0  0  0  0  0  0  0  0  0  0  0  0
    2.9548   -0.3477    0.8383 C   0  0  0  0  0  0  0  0  0  0  0  0
    3.0484    0.2875   -0.3421 N   0  0  0  0  0  0  0  0  0  0  0  0
    4.2353    0.7764   -0.9616 C   0  0  0  0  0  0  0  0  0  0  0  0
    4.5741    2.1722   -0.6172 C   0  0  0  0  0  0  0  0  0  0  0  0
    5.2823    2.3477    0.4091 O   0  0  0  0  0  0  0  0  0  0  0  0
    4.1355    3.2156   -1.3823 O   0  0  0  0  0  0  0  0  0  0  0  0
    2.1718    0.7252   -2.9467 H   0  0  0  0  0  0  0  0  0  0  0  0
    1.3648    2.1266   -2.0654 H   0  0  0  0  0  0  0  0  0  0  0  0
    0.4469    0.6718   -2.4862 H   0  0  0  0  0  0  0  0  0  0  0  0
   -0.8174    1.5509    0.9025 H   0  0  0  0  0  0  0  0  0  0  0  0
   -2.8358    2.1354    1.7376 H   0  0  0  0  0  0  0  0  0  0  0  0
   -3.9920    3.7108    0.3291 H   0  0  0  0  0  0  0  0  0  0  0  0
   -4.2831    2.4217   -0.9600 H   0  0  0  0  0  0  0  0  0  0  0  0
   -2.6405    2.9799   -0.5690 H   0  0  0  0  0  0  0  0  0  0  0  0
   -5.5315    1.3192    0.8062 H   0  0  0  0  0  0  0  0  0  0  0  0
   -4.6114    0.1842    1.9463 H   0  0  0  0  0  0  0  0  0  0  0  0
   -4.9914    1.8485    2.4147 H   0  0  0  0  0  0  0  0  0  0  0  0
   -4.1349   -2.5515   -1.4415 H   0  0  0  0  0  0  0  0  0  0  0  0
   -2.7244   -4.3970   -2.4143 H   0  0  0  0  0  0  0  0  0  0  0  0
   -0.2439   -4.2791   -2.2771 H   0  0  0  0  0  0  0  0  0  0  0  0
    0.7711   -2.3322   -1.1811 H   0  0  0  0  0  0  0  0  0  0  0  0
    0.2034   -1.5433    2.4188 H   0  0  0  0  0  0  0  0  0  0  0  0
    4.2877   -1.6282    3.5983 H   0  0  0  0  0  0  0  0  0  0  0  0
    4.9552   -0.4423    1.5165 H   0  0  0  0  0  0  0  0  0  0  0  0
    5.0761    0.1015   -0.7044 H   0  0  0  0  0  0  0  0  0  0  0  0
    4.1028    0.7325   -2.0626 H   0  0  0  0  0  0  0  0  0  0  0  0
    4.6237    4.1010   -1.3729 H   0  0  0  0  0  0  0  0  0  0  0  0
  1  2  1  0
  2  3  2  0
  3  4  1  0
  4  5  2  0
  5  6  1  0
  6  7  1  0
  7  8  1  0
  7  9  1  0
  6 10  1  0
 10 11  2  0
 10 12  1  0
 12 13  2  0
 13 14  1  0
 14 15  2  0
 15 16  1  0
 16 17  2  0
  3 18  1  0
 18 19  2  0
 19 20  1  0
 20 21  1  0
 20 22  2  0
 22 23  1  0
 23 24  2  0
 24 25  1  0
 25 26  1  0
 26 27  1  0
 27 28  2  0
 27 29  1  0
 25  2  1  0
 17  4  1  0
 24 18  1  0
 17 12  1  0
  1 30  1  0
  1 31  1  0
  1 32  1  0
  5 33  1  0
  7 34  1  0
  8 35  1  0
  8 36  1  0
  8 37  1  0
  9 38  1  0
  9 39  1  0
  9 40  1  0
 13 41  1  0
 14 42  1  0
 15 43  1  0
 16 44  1  0
 19 45  1  0
 22 46  1  0
 23 47  1  0
 26 48  1  0
 26 49  1  0
 29 50  1  0
M  END
$$$$
