@<TRIPOS>MOLECULE
*****
 34 35 0 0 0
SMALL
GASTEIGER

@<TRIPOS>ATOM
      1 O           0.4074    1.4655   -2.6587 O.3     1  UNL1       -0.3864
      2 C           0.8062    1.1858   -1.3573 C.3     1  UNL1        0.1135
      3 C          -0.4692    1.2588   -0.5112 C.3     1  UNL1        0.1286
      4 O          -1.3009    2.2666   -0.9276 O.3     1  UNL1       -0.3847
      5 C          -1.0027   -0.1360   -0.7746 C.3     1  UNL1        0.1679
      6 O           0.1462   -0.8785   -0.5018 O.3     1  UNL1       -0.3456
      7 C           1.1379   -0.2788   -1.2594 C.3     1  UNL1        0.1134
      8 C           2.4968   -0.3734   -0.5744 C.3     1  UNL1        0.0878
      9 O           2.4309    0.2673    0.6610 O.3     1  UNL1       -0.2841
     10 P           3.9418    0.1453    1.3927 P.3     1  UNL1        0.4724
     11 O           3.7869   -0.2329    3.0426 O.3     1  UNL1       -0.3026
     12 O           4.8938   -1.0320    0.6367 O.3     1  UNL1       -0.3026
     13 O           4.6934    1.4558    1.2374 O.2     1  UNL1       -0.2275
     14 N          -2.1190   -0.5032    0.0222 N.ar    1  UNL1       -0.2715
     15 C          -2.1593   -1.2595    1.1322 C.ar    1  UNL1        0.0171
     16 C          -3.3703   -1.5057    1.7751 C.ar    1  UNL1        0.0192
     17 C          -4.5550   -0.9705    1.2746 C.ar    1  UNL1        0.2539
     18 O          -5.6393   -1.2039    1.8691 O.2     1  UNL1       -0.2677
     19 N          -4.4747   -0.2214    0.1657 N.ar    1  UNL1       -0.2749
     20 C          -3.2904    0.0115   -0.4516 C.ar    1  UNL1        0.3314
     21 O          -3.3946    0.7408   -1.4883 O.2     1  UNL1       -0.2464
     22 H           1.1136    1.7174   -3.2719 H       1  UNL1        0.2100
     23 H           1.5907    1.8581   -0.9758 H       1  UNL1        0.0647
     24 H          -0.2196    1.3267    0.5647 H       1  UNL1        0.0665
     25 H          -1.0883    2.5612   -1.8300 H       1  UNL1        0.2101
     26 H          -1.2082   -0.1901   -1.8747 H       1  UNL1        0.0867
     27 H           1.1544   -0.7893   -2.2277 H       1  UNL1        0.0647
     28 H           3.1945    0.2261   -1.2036 H       1  UNL1        0.0592
     29 H           2.8225   -1.4109   -0.4128 H       1  UNL1        0.0592
     30 H           4.6898   -0.3421    3.4182 H       1  UNL1        0.2220
     31 H           4.9061   -1.8672    1.1748 H       1  UNL1        0.2220
     32 H          -1.1953   -1.6344    1.4512 H       1  UNL1        0.0813
     33 H          -3.3468   -2.1223    2.6668 H       1  UNL1        0.0686
     34 H          -5.3794    0.1648   -0.1836 H       1  UNL1        0.1734
@<TRIPOS>BOND
     1     1     2    1
     2     2     3    1
     3     3     4    1
     4     3     5    1
     5     5     6    1
     6     6     7    1
     7     7     8    1
     8     8     9    1
     9     9    10    1
    10    10    11    1
    11    10    12    1
    12    10    13    2
    13     5    14    1
    14    14    15   ar
    15    15    16   ar
    16    16    17   ar
    17    17    18    2
    18    17    19   ar
    19    19    20   ar
    20    20    21    2
    21     7     2    1
    22    20    14   ar
    23     1    22    1
    24     2    23    1
    25     3    24    1
    26     4    25    1
    27     5    26    1
    28     7    27    1
    29     8    28    1
    30     8    29    1
    31    11    30    1
    32    12    31    1
    33    15    32    1
    34    16    33    1
    35    19    34    1
