
     RDKit          3D

 48 51  0  0  0  0  0  0  0  0999 V2000
   -3.7318   -0.3465   -0.8269 C   0  0  1  0  0  0  0  0  0  0  0  0
   -4.7722    0.5773   -0.5942 N   0  0  0  0  0  0  0  0  0  0  0  0
   -5.8035    0.2322    0.3126 C   0  0  0  0  0  0  0  0  0  0  0  0
   -4.2285    1.8784   -0.3756 C   0  0  0  0  0  0  0  0  0  0  0  0
   -2.7506    1.6506   -0.1429 C   0  0  0  0  0  0  0  0  0  0  0  0
   -2.4791    0.4817   -1.0651 C   0  0  2  0  0  0  0  0  0  0  0  0
   -2.3975    0.9426   -2.4828 C   0  0  0  0  0  0  0  0  0  0  0  0
   -1.3672   -0.3566   -0.6137 C   0  0  0  0  0  0  0  0  0  0  0  0
   -1.9206   -1.3519    0.1582 C   0  0  0  0  0  0  0  0  0  0  0  0
   -0.9990   -2.2633    0.6859 C   0  0  0  0  0  0  0  0  0  0  0  0
    0.3559   -2.1688    0.4492 C   0  0  0  0  0  0  0  0  0  0  0  0
    0.8495   -1.1461   -0.3346 C   0  0  0  0  0  0  0  0  0  0  0  0
    2.2186   -1.0749   -0.5566 O   0  0  0  0  0  0  0  0  0  0  0  0
    3.1127   -0.3925    0.2249 C   0  0  0  0  0  0  0  0  0  0  0  0
    2.9418    0.2918    1.2623 O   0  0  0  0  0  0  0  0  0  0  0  0
    4.4513   -0.4737   -0.2118 N   0  0  0  0  0  0  0  0  0  0  0  0
    5.5541    0.1594    0.4481 C   0  0  0  0  0  0  0  0  0  0  0  0
    6.1874   -0.6055    1.4337 C   0  0  0  0  0  0  0  0  0  0  0  0
    7.2655   -0.1101    2.1451 C   0  0  0  0  0  0  0  0  0  0  0  0
    7.7320    1.1678    1.8814 C   0  0  0  0  0  0  0  0  0  0  0  0
    7.0972    1.9099    0.9067 C   0  0  0  0  0  0  0  0  0  0  0  0
    6.0206    1.4443    0.1806 C   0  0  0  0  0  0  0  0  0  0  0  0
   -0.0203   -0.2230   -0.8770 C   0  0  0  0  0  0  0  0  0  0  0  0
   -3.3551   -1.2142    0.2402 N   0  0  0  0  0  0  0  0  0  0  0  0
   -4.0455   -1.9434    1.3175 C   0  0  0  0  0  0  0  0  0  0  0  0
   -3.9082   -1.0114   -1.7203 H   0  0  0  0  0  0  0  0  0  0  0  0
   -6.4143   -0.6081   -0.1160 H   0  0  0  0  0  0  0  0  0  0  0  0
   -6.5395    1.0950    0.2972 H   0  0  0  0  0  0  0  0  0  0  0  0
   -5.5413    0.1179    1.3625 H   0  0  0  0  0  0  0  0  0  0  0  0
   -4.7004    2.4261    0.4627 H   0  0  0  0  0  0  0  0  0  0  0  0
   -4.3179    2.4661   -1.3340 H   0  0  0  0  0  0  0  0  0  0  0  0
   -2.6289    1.3516    0.9238 H   0  0  0  0  0  0  0  0  0  0  0  0
   -2.1473    2.5405   -0.3859 H   0  0  0  0  0  0  0  0  0  0  0  0
   -1.4815    0.6228   -2.9996 H   0  0  0  0  0  0  0  0  0  0  0  0
   -2.4096    2.0619   -2.5027 H   0  0  0  0  0  0  0  0  0  0  0  0
   -3.3004    0.6189   -3.0381 H   0  0  0  0  0  0  0  0  0  0  0  0
   -1.3598   -3.0731    1.3028 H   0  0  0  0  0  0  0  0  0  0  0  0
    1.0369   -2.9019    0.8812 H   0  0  0  0  0  0  0  0  0  0  0  0
    4.8056   -0.9984   -1.0606 H   0  0  0  0  0  0  0  0  0  0  0  0
    5.9090   -1.6150    1.7238 H   0  0  0  0  0  0  0  0  0  0  0  0
    7.7736   -0.6791    2.9116 H   0  0  0  0  0  0  0  0  0  0  0  0
    8.5687    1.6386    2.3870 H   0  0  0  0  0  0  0  0  0  0  0  0
    7.4267    2.9162    0.6645 H   0  0  0  0  0  0  0  0  0  0  0  0
    5.4999    1.9820   -0.5806 H   0  0  0  0  0  0  0  0  0  0  0  0
    0.3822    0.5562   -1.4774 H   0  0  0  0  0  0  0  0  0  0  0  0
   -3.5323   -2.9376    1.4830 H   0  0  0  0  0  0  0  0  0  0  0  0
   -3.9721   -1.4332    2.2863 H   0  0  0  0  0  0  0  0  0  0  0  0
   -5.0646   -2.2010    1.0361 H   0  0  0  0  0  0  0  0  0  0  0  0
  1  2  1  0
  2  3  1  0
  2  4  1  0
  4  5  1  0
  5  6  1  0
  6  7  1  6
  6  8  1  0
  8  9  2  0
  9 10  1  0
 10 11  2  0
 11 12  1  0
 12 13  1  0
 13 14  1  0
 14 15  2  0
 14 16  1  0
 16 17  1  0
 17 18  2  0
 18 19  1  0
 19 20  2  0
 20 21  1  0
 21 22  2  0
 12 23  2  0
  9 24  1  0
 24 25  1  0
  6  1  1  0
 23  8  1  0
 24  1  1  0
 22 17  1  0
  1 26  1  6
  3 27  1  0
  3 28  1  0
  3 29  1  0
  4 30  1  0
  4 31  1  0
  5 32  1  0
  5 33  1  0
  7 34  1  0
  7 35  1  0
  7 36  1  0
 10 37  1  0
 11 38  1  0
 16 39  1  0
 18 40  1  0
 19 41  1  0
 20 42  1  0
 21 43  1  0
 22 44  1  0
 23 45  1  0
 25 46  1  0
 25 47  1  0
 25 48  1  0
M  END
$$$$
