
     RDKit          3D

 59 63  0  0  0  0  0  0  0  0999 V2000
    9.6545   -0.0439    0.9924 C   0  0  0  0  0  0  0  0  0  0  0  0
    8.9552    1.0122    0.1338 C   0  0  0  0  0  0  0  0  0  0  0  0
    7.5210    0.6527    0.0675 C   0  0  0  0  0  0  0  0  0  0  0  0
    7.0484   -0.1665   -0.9420 C   0  0  0  0  0  0  0  0  0  0  0  0
    5.7386   -0.5194   -1.0354 C   0  0  0  0  0  0  0  0  0  0  0  0
    4.8288   -0.0614   -0.1080 C   0  0  0  0  0  0  0  0  0  0  0  0
    3.4418   -0.4711   -0.2527 C   0  0  0  0  0  0  0  0  0  0  0  0
    2.4002    0.3236    0.1447 C   0  0  0  0  0  0  0  0  0  0  0  0
    1.0593   -0.0639    0.0139 C   0  0  0  0  0  0  0  0  0  0  0  0
    0.7069   -1.2585   -0.5181 C   0  0  0  0  0  0  0  0  0  0  0  0
   -0.6250   -1.7901   -0.7044 C   0  0  0  0  0  0  0  0  0  0  0  0
   -0.6967   -3.0218   -1.2023 O   0  0  0  0  0  0  0  0  0  0  0  0
   -1.8581   -1.1905   -0.4336 N   0  0  0  0  0  0  0  0  0  0  0  0
   -3.0441   -2.0417   -0.7514 C   0  0  0  0  0  0  0  0  0  0  0  0
   -3.9504   -1.9836    0.4744 C   0  0  0  0  0  0  0  0  0  0  0  0
   -4.4298   -0.5423    0.4590 C   0  0  0  0  0  0  0  0  0  0  0  0
   -3.5016    0.4301    0.2515 C   0  0  0  0  0  0  0  0  0  0  0  0
   -4.2103    1.6240    0.2595 C   0  0  0  0  0  0  0  0  0  0  0  0
   -3.7795    2.9304    0.0971 C   0  0  0  0  0  0  0  0  0  0  0  0
   -4.7510    3.9221    0.1603 C   0  0  0  0  0  0  0  0  0  0  0  0
   -6.0890    3.6618    0.3723 C   0  0  0  0  0  0  0  0  0  0  0  0
   -6.4547    2.3419    0.5263 C   0  0  0  0  0  0  0  0  0  0  0  0
   -5.5389    1.3151    0.4741 C   0  0  0  0  0  0  0  0  0  0  0  0
   -5.6585   -0.0190    0.5949 N   0  0  0  0  0  0  0  0  0  0  0  0
   -6.8505   -0.8047    0.8325 C   0  0  0  0  0  0  0  0  0  0  0  0
   -7.5367   -1.2273   -0.3973 C   0  0  0  0  0  0  0  0  0  0  0  0
   -7.0843   -0.9080   -1.5107 O   0  0  0  0  0  0  0  0  0  0  0  0
   -8.6847   -1.9796   -0.3188 O   0  0  0  0  0  0  0  0  0  0  0  0
   -2.0410    0.1104    0.1002 C   0  0  0  0  0  0  0  0  0  0  0  0
    1.7941   -2.0728   -0.9269 C   0  0  0  0  0  0  0  0  0  0  0  0
    3.0930   -1.6865   -0.7953 C   0  0  0  0  0  0  0  0  0  0  0  0
    5.2611    0.7543    0.9083 C   0  0  0  0  0  0  0  0  0  0  0  0
    6.5891    1.1111    1.0014 C   0  0  0  0  0  0  0  0  0  0  0  0
    8.9648   -0.3496    1.7944 H   0  0  0  0  0  0  0  0  0  0  0  0
    9.9446   -0.9303    0.4033 H   0  0  0  0  0  0  0  0  0  0  0  0
   10.5456    0.4168    1.4652 H   0  0  0  0  0  0  0  0  0  0  0  0
    9.4215    1.0826   -0.8631 H   0  0  0  0  0  0  0  0  0  0  0  0
    9.0654    1.9659    0.7016 H   0  0  0  0  0  0  0  0  0  0  0  0
    7.7423   -0.5491   -1.6956 H   0  0  0  0  0  0  0  0  0  0  0  0
    5.4180   -1.1611   -1.8409 H   0  0  0  0  0  0  0  0  0  0  0  0
    2.6290    1.2985    0.5806 H   0  0  0  0  0  0  0  0  0  0  0  0
    0.3277    0.6207    0.3508 H   0  0  0  0  0  0  0  0  0  0  0  0
   -3.5887   -1.6495   -1.6199 H   0  0  0  0  0  0  0  0  0  0  0  0
   -2.7648   -3.0857   -0.9172 H   0  0  0  0  0  0  0  0  0  0  0  0
   -3.3374   -2.2005    1.3466 H   0  0  0  0  0  0  0  0  0  0  0  0
   -4.7961   -2.6668    0.3281 H   0  0  0  0  0  0  0  0  0  0  0  0
   -2.7399    3.1176   -0.0672 H   0  0  0  0  0  0  0  0  0  0  0  0
   -4.4114    4.9577    0.0308 H   0  0  0  0  0  0  0  0  0  0  0  0
   -6.7771    4.4916    0.4067 H   0  0  0  0  0  0  0  0  0  0  0  0
   -7.5152    2.1244    0.6951 H   0  0  0  0  0  0  0  0  0  0  0  0
   -6.6651   -1.6398    1.5422 H   0  0  0  0  0  0  0  0  0  0  0  0
   -7.5606   -0.1210    1.3755 H   0  0  0  0  0  0  0  0  0  0  0  0
   -8.9302   -2.6675   -1.0182 H   0  0  0  0  0  0  0  0  0  0  0  0
   -1.6351    0.9173   -0.5463 H   0  0  0  0  0  0  0  0  0  0  0  0
   -1.6171    0.2032    1.1487 H   0  0  0  0  0  0  0  0  0  0  0  0
    1.5293   -3.0274   -1.3554 H   0  0  0  0  0  0  0  0  0  0  0  0
    3.8978   -2.3604   -1.1295 H   0  0  0  0  0  0  0  0  0  0  0  0
    4.5695    1.1227    1.6404 H   0  0  0  0  0  0  0  0  0  0  0  0
    6.9759    1.7524    1.7856 H   0  0  0  0  0  0  0  0  0  0  0  0
  1  2  1  0
  2  3  1  0
  3  4  2  0
  4  5  1  0
  5  6  2  0
  6  7  1  0
  7  8  2  0
  8  9  1  0
  9 10  2  0
 10 11  1  0
 11 12  2  0
 11 13  1  0
 13 14  1  0
 14 15  1  0
 15 16  1  0
 16 17  2  0
 17 18  1  0
 18 19  2  0
 19 20  1  0
 20 21  2  0
 21 22  1  0
 22 23  2  0
 23 24  1  0
 24 25  1  0
 25 26  1  0
 26 27  2  0
 26 28  1  0
 17 29  1  0
 10 30  1  0
 30 31  2  0
  6 32  1  0
 32 33  2  0
 33  3  1  0
 31  7  1  0
 29 13  1  0
 24 16  1  0
 23 18  1  0
  1 34  1  0
  1 35  1  0
  1 36  1  0
  2 37  1  0
  2 38  1  0
  4 39  1  0
  5 40  1  0
  8 41  1  0
  9 42  1  0
 14 43  1  0
 14 44  1  0
 15 45  1  0
 15 46  1  0
 19 47  1  0
 20 48  1  0
 21 49  1  0
 22 50  1  0
 25 51  1  0
 25 52  1  0
 28 53  1  0
 29 54  1  0
 29 55  1  0
 30 56  1  0
 31 57  1  0
 32 58  1  0
 33 59  1  0
M  END
$$$$
