@<TRIPOS>MOLECULE
*****
 59 63 0 0 0
SMALL
GASTEIGER

@<TRIPOS>ATOM
      1 C           9.6545   -0.0439    0.9924 C.3     1  UNL1       -0.0613
      2 C           8.9552    1.0122    0.1338 C.3     1  UNL1       -0.0305
      3 C           7.5210    0.6527    0.0675 C.ar    1  UNL1       -0.0476
      4 C           7.0484   -0.1665   -0.9420 C.ar    1  UNL1       -0.0580
      5 C           5.7386   -0.5194   -1.0354 C.ar    1  UNL1       -0.0538
      6 C           4.8288   -0.0614   -0.1080 C.ar    1  UNL1       -0.0179
      7 C           3.4418   -0.4711   -0.2527 C.ar    1  UNL1       -0.0178
      8 C           2.4002    0.3236    0.1447 C.ar    1  UNL1       -0.0533
      9 C           1.0593   -0.0639    0.0139 C.ar    1  UNL1       -0.0491
     10 C           0.7069   -1.2585   -0.5181 C.ar    1  UNL1        0.0369
     11 C          -0.6250   -1.7901   -0.7044 C.2     1  UNL1        0.2469
     12 O          -0.6967   -3.0218   -1.2023 O.2     1  UNL1       -0.2700
     13 N          -1.8581   -1.1905   -0.4336 N.am    1  UNL1       -0.2928
     14 C          -3.0441   -2.0417   -0.7514 C.3     1  UNL1        0.0207
     15 C          -3.9504   -1.9836    0.4744 C.3     1  UNL1        0.0039
     16 C          -4.4298   -0.5423    0.4590 C.ar    1  UNL1        0.0266
     17 C          -3.5016    0.4301    0.2515 C.ar    1  UNL1       -0.0016
     18 C          -4.2103    1.6240    0.2595 C.ar    1  UNL1        0.0048
     19 C          -3.7795    2.9304    0.0971 C.ar    1  UNL1       -0.0523
     20 C          -4.7510    3.9221    0.1603 C.ar    1  UNL1       -0.0611
     21 C          -6.0890    3.6618    0.3723 C.ar    1  UNL1       -0.0598
     22 C          -6.4547    2.3419    0.5263 C.ar    1  UNL1       -0.0376
     23 C          -5.5389    1.3151    0.4741 C.ar    1  UNL1        0.0501
     24 N          -5.6585   -0.0190    0.5949 N.ar    1  UNL1       -0.3327
     25 C          -6.8505   -0.8047    0.8325 C.3     1  UNL1        0.1204
     26 C          -7.5367   -1.2273   -0.3973 C.2     1  UNL1        0.3247
     27 O          -7.0843   -0.9080   -1.5107 O.2     1  UNL1       -0.2490
     28 O          -8.6847   -1.9796   -0.3188 O.3     1  UNL1       -0.4794
     29 C          -2.0410    0.1104    0.1002 C.3     1  UNL1        0.0423
     30 C           1.7941   -2.0728   -0.9269 C.ar    1  UNL1       -0.0491
     31 C           3.0930   -1.6865   -0.7953 C.ar    1  UNL1       -0.0533
     32 C           5.2611    0.7543    0.9083 C.ar    1  UNL1       -0.0538
     33 C           6.5891    1.1111    1.0014 C.ar    1  UNL1       -0.0580
     34 H           8.9648   -0.3496    1.7944 H       1  UNL1        0.0233
     35 H           9.9446   -0.9303    0.4033 H       1  UNL1        0.0233
     36 H          10.5456    0.4168    1.4652 H       1  UNL1        0.0233
     37 H           9.4215    1.0826   -0.8631 H       1  UNL1        0.0311
     38 H           9.0654    1.9659    0.7016 H       1  UNL1        0.0311
     39 H           7.7423   -0.5491   -1.6956 H       1  UNL1        0.0620
     40 H           5.4180   -1.1611   -1.8409 H       1  UNL1        0.0624
     41 H           2.6290    1.2985    0.5806 H       1  UNL1        0.0624
     42 H           0.3277    0.6207    0.3508 H       1  UNL1        0.0625
     43 H          -3.5887   -1.6495   -1.6199 H       1  UNL1        0.0468
     44 H          -2.7648   -3.0857   -0.9172 H       1  UNL1        0.0468
     45 H          -3.3374   -2.2005    1.3466 H       1  UNL1        0.0343
     46 H          -4.7961   -2.6668    0.3281 H       1  UNL1        0.0343
     47 H          -2.7399    3.1176   -0.0672 H       1  UNL1        0.0624
     48 H          -4.4114    4.9577    0.0308 H       1  UNL1        0.0618
     49 H          -6.7771    4.4916    0.4067 H       1  UNL1        0.0618
     50 H          -7.5152    2.1244    0.6951 H       1  UNL1        0.0638
     51 H          -6.6651   -1.6398    1.5422 H       1  UNL1        0.0607
     52 H          -7.5606   -0.1210    1.3755 H       1  UNL1        0.0607
     53 H          -8.9302   -2.6675   -1.0182 H       1  UNL1        0.2951
     54 H          -1.6351    0.9173   -0.5463 H       1  UNL1        0.0515
     55 H          -1.6171    0.2032    1.1487 H       1  UNL1        0.0515
     56 H           1.5293   -3.0274   -1.3554 H       1  UNL1        0.0625
     57 H           3.8978   -2.3604   -1.1295 H       1  UNL1        0.0624
     58 H           4.5695    1.1227    1.6404 H       1  UNL1        0.0624
     59 H           6.9759    1.7524    1.7856 H       1  UNL1        0.0620
@<TRIPOS>BOND
     1     1     2    1
     2     2     3    1
     3     3     4   ar
     4     4     5   ar
     5     5     6   ar
     6     6     7    1
     7     7     8   ar
     8     8     9   ar
     9     9    10   ar
    10    10    11    1
    11    11    12    2
    12    11    13   am
    13    13    14    1
    14    14    15    1
    15    15    16    1
    16    16    17   ar
    17    17    18   ar
    18    18    19   ar
    19    19    20   ar
    20    20    21   ar
    21    21    22   ar
    22    22    23   ar
    23    23    24   ar
    24    24    25    1
    25    25    26    1
    26    26    27    2
    27    26    28    1
    28    17    29    1
    29    10    30   ar
    30    30    31   ar
    31     6    32   ar
    32    32    33   ar
    33    33     3   ar
    34    31     7   ar
    35    29    13    1
    36    24    16   ar
    37    23    18   ar
    38     1    34    1
    39     1    35    1
    40     1    36    1
    41     2    37    1
    42     2    38    1
    43     4    39    1
    44     5    40    1
    45     8    41    1
    46     9    42    1
    47    14    43    1
    48    14    44    1
    49    15    45    1
    50    15    46    1
    51    19    47    1
    52    20    48    1
    53    21    49    1
    54    22    50    1
    55    25    51    1
    56    25    52    1
    57    28    53    1
    58    29    54    1
    59    29    55    1
    60    30    56    1
    61    31    57    1
    62    32    58    1
    63    33    59    1
