@<TRIPOS>MOLECULE
*****
 52 55 0 0 0
SMALL
GASTEIGER

@<TRIPOS>ATOM
      1 C           6.2350    1.2081    1.4585 C.3     1  UNL1       -0.0653
      2 C           5.6616    1.1996    0.0424 C.3     1  UNL1       -0.0555
      3 C           4.3136    1.8438   -0.0105 C.3     1  UNL1       -0.0465
      4 C           3.2979    1.1106    0.8897 C.3     1  UNL1        0.0057
      5 C           3.1703   -0.3019    0.4123 C.ar    1  UNL1        0.1123
      6 N           3.9578   -1.2934    0.8634 N.ar    1  UNL1       -0.2200
      7 C           3.6405   -2.4284    0.2387 C.ar    1  UNL1        0.1616
      8 CL          4.3960   -3.9957    0.4929 Cl      1  UNL1       -0.0595
      9 C           2.6140   -2.1397   -0.6383 C.ar    1  UNL1        0.1655
     10 C           1.9916   -3.1343   -1.5206 C.2     1  UNL1        0.3565
     11 O           2.4211   -4.3337   -1.4616 O.2     1  UNL1       -0.2434
     12 O           0.9844   -2.8809   -2.4065 O.3     1  UNL1       -0.4760
     13 N           2.3448   -0.8403   -0.5128 N.ar    1  UNL1       -0.3168
     14 C           1.3715   -0.0686   -1.2197 C.3     1  UNL1        0.0502
     15 C           0.0087   -0.0850   -0.6804 C.ar    1  UNL1       -0.0277
     16 C          -0.3603    0.3042    0.5755 C.ar    1  UNL1       -0.0563
     17 C          -1.6877    0.2640    0.9231 C.ar    1  UNL1       -0.0537
     18 C          -2.7181   -0.1531    0.0766 C.ar    1  UNL1       -0.0158
     19 C          -4.0572   -0.1477    0.5766 C.ar    1  UNL1        0.0076
     20 C          -4.3799   -0.6833    1.8069 C.ar    1  UNL1       -0.0520
     21 C          -5.6654   -0.6907    2.2994 C.ar    1  UNL1       -0.0611
     22 C          -6.6853   -0.1480    1.5525 C.ar    1  UNL1       -0.0597
     23 C          -6.3966    0.4008    0.3076 C.ar    1  UNL1       -0.0356
     24 C          -5.0767    0.3898   -0.1592 C.ar    1  UNL1        0.0764
     25 N          -4.7629    0.9447   -1.4113 N.ar    1  UNL1       -0.1997
     26 C          -3.8492    1.8980   -1.6246 C.ar    1  UNL1        0.1437
     27 N          -3.7858    2.2151   -2.9182 N.ar    1  UNL1       -0.1165
     28 N          -4.6891    1.4324   -3.5214 N.ar    1  UNL1       -0.0230
     29 N          -5.2746    0.6662   -2.5929 N.ar    1  UNL1       -0.0391
     30 C          -2.3299   -0.5362   -1.1669 C.ar    1  UNL1       -0.0537
     31 C          -1.0114   -0.5084   -1.5487 C.ar    1  UNL1       -0.0563
     32 H           6.2257    2.2395    1.8707 H       1  UNL1        0.0230
     33 H           7.2852    0.8773    1.4627 H       1  UNL1        0.0230
     34 H           5.6492    0.5431    2.1046 H       1  UNL1        0.0230
     35 H           5.5779    0.1709   -0.3278 H       1  UNL1        0.0263
     36 H           6.3456    1.7357   -0.6426 H       1  UNL1        0.0263
     37 H           4.3314    2.8913    0.3598 H       1  UNL1        0.0269
     38 H           3.9332    1.7883   -1.0283 H       1  UNL1        0.0269
     39 H           2.3791    1.6861    0.8423 H       1  UNL1        0.0343
     40 H           3.7050    1.1181    1.8970 H       1  UNL1        0.0343
     41 H           0.8109   -3.5348   -3.1672 H       1  UNL1        0.2955
     42 H           1.3975   -0.3741   -2.2897 H       1  UNL1        0.0542
     43 H           1.6731    1.0213   -1.2500 H       1  UNL1        0.0542
     44 H           0.4071    0.6273    1.2715 H       1  UNL1        0.0621
     45 H          -1.9238    0.5900    1.9482 H       1  UNL1        0.0624
     46 H          -3.6076   -1.1261    2.4386 H       1  UNL1        0.0624
     47 H          -5.8899   -1.1138    3.2599 H       1  UNL1        0.0618
     48 H          -7.7228   -0.1264    1.8925 H       1  UNL1        0.0618
     49 H          -7.1959    0.8224   -0.2702 H       1  UNL1        0.0639
     50 H          -3.2500    2.3439   -0.8512 H       1  UNL1        0.1067
     51 H          -3.0627   -0.8718   -1.8699 H       1  UNL1        0.0624
     52 H          -0.7470   -0.8160   -2.5580 H       1  UNL1        0.0621
@<TRIPOS>BOND
     1     1     2    1
     2     2     3    1
     3     3     4    1
     4     4     5    1
     5     5     6   ar
     6     6     7   ar
     7     7     8    1
     8     7     9   ar
     9     9    10    1
    10    10    11    2
    11    10    12    1
    12     9    13   ar
    13    13    14    1
    14    14    15    1
    15    15    16   ar
    16    16    17   ar
    17    17    18   ar
    18    18    19    1
    19    19    20   ar
    20    20    21   ar
    21    21    22   ar
    22    22    23   ar
    23    23    24   ar
    24    24    25    1
    25    25    26   ar
    26    26    27   ar
    27    27    28   ar
    28    28    29   ar
    29    18    30   ar
    30    30    31   ar
    31    13     5   ar
    32    31    15   ar
    33    24    19   ar
    34    29    25   ar
    35     1    32    1
    36     1    33    1
    37     1    34    1
    38     2    35    1
    39     2    36    1
    40     3    37    1
    41     3    38    1
    42     4    39    1
    43     4    40    1
    44    12    41    1
    45    14    42    1
    46    14    43    1
    47    16    44    1
    48    17    45    1
    49    20    46    1
    50    21    47    1
    51    22    48    1
    52    23    49    1
    53    26    50    1
    54    30    51    1
    55    31    52    1
