
     RDKit          3D

 64 68  0  0  0  0  0  0  0  0999 V2000
    1.4261    0.7362   -1.2839 C   0  0  2  0  0  0  0  0  0  0  0  0
    0.7570    1.8006   -2.0611 C   0  0  0  0  0  0  0  0  0  0  0  0
   -0.5267    1.0718   -2.4617 C   0  0  0  0  0  0  0  0  0  0  0  0
   -0.8183    0.1681   -1.3103 C   0  0  2  0  0  0  0  0  0  0  0  0
   -2.1075    0.2811   -0.7663 O   0  0  0  0  0  0  0  0  0  0  0  0
   -3.0555   -0.7022   -0.7694 C   0  0  0  0  0  0  0  0  0  0  0  0
   -2.8735   -1.8592   -1.2778 O   0  0  0  0  0  0  0  0  0  0  0  0
   -4.3869   -0.4582   -0.1595 C   0  0  0  0  0  0  0  0  0  0  0  0
   -5.2973   -1.6370   -0.2512 C   0  0  0  0  0  0  0  0  0  0  0  0
   -6.5930   -1.2833    0.3864 C   0  0  0  0  0  0  0  0  0  0  0  0
   -7.6260   -0.7161   -0.3550 C   0  0  0  0  0  0  0  0  0  0  0  0
   -8.8616   -0.3631    0.1847 C   0  0  0  0  0  0  0  0  0  0  0  0
   -9.0742   -0.5916    1.5442 C   0  0  0  0  0  0  0  0  0  0  0  0
   -8.0477   -1.1521    2.2674 C   0  0  0  0  0  0  0  0  0  0  0  0
   -6.8127   -1.5088    1.7454 C   0  0  0  0  0  0  0  0  0  0  0  0
    0.3046    0.2722   -0.3439 C   0  0  2  0  0  0  0  0  0  0  0  0
    0.1134    1.2027    0.7991 C   0  0  0  0  0  0  0  0  0  0  0  0
    0.7761   -1.0659    0.1773 C   0  0  0  0  0  0  0  0  0  0  0  0
    2.1266   -1.0227    0.7913 C   0  0  0  0  0  0  0  0  0  0  0  0
    3.1540   -0.2153    0.0338 C   0  0  2  0  0  0  0  0  0  0  0  0
    4.4004   -0.1025    0.8281 C   0  0  1  0  0  0  0  0  0  0  0  0
    5.3709   -1.2497    0.5224 C   0  0  0  0  0  0  0  0  0  0  0  0
    6.4462   -1.3146    1.6005 C   0  0  0  0  0  0  0  0  0  0  0  0
    6.7886    0.0680    2.0618 C   0  0  0  0  0  0  0  0  0  0  0  0
    7.4380    0.2561    3.1031 O   0  0  0  0  0  0  0  0  0  0  0  0
    6.3363    1.2188    1.2492 C   0  0  0  0  0  0  0  0  0  0  0  0
    5.1549    1.1516    0.6305 C   0  0  0  0  0  0  0  0  0  0  0  0
    4.6827    2.2979   -0.1909 C   0  0  0  0  0  0  0  0  0  0  0  0
    3.6607    1.8188   -1.2291 C   0  0  0  0  0  0  0  0  0  0  0  0
    2.5863    1.1134   -0.4406 C   0  0  1  0  0  0  0  0  0  0  0  0
    1.7007   -0.0972   -1.9464 H   0  0  0  0  0  0  0  0  0  0  0  0
    0.5744    2.7272   -1.5109 H   0  0  0  0  0  0  0  0  0  0  0  0
    1.3787    2.0066   -2.9685 H   0  0  0  0  0  0  0  0  0  0  0  0
   -1.3477    1.7583   -2.7263 H   0  0  0  0  0  0  0  0  0  0  0  0
   -0.2692    0.5247   -3.4132 H   0  0  0  0  0  0  0  0  0  0  0  0
   -0.7741   -0.8819   -1.7246 H   0  0  0  0  0  0  0  0  0  0  0  0
   -4.2712   -0.1454    0.8765 H   0  0  0  0  0  0  0  0  0  0  0  0
   -4.8490    0.3929   -0.7251 H   0  0  0  0  0  0  0  0  0  0  0  0
   -5.4445   -1.9966   -1.2809 H   0  0  0  0  0  0  0  0  0  0  0  0
   -4.8633   -2.4711    0.3674 H   0  0  0  0  0  0  0  0  0  0  0  0
   -7.4913   -0.5240   -1.4238 H   0  0  0  0  0  0  0  0  0  0  0  0
   -9.6171    0.0763   -0.4651 H   0  0  0  0  0  0  0  0  0  0  0  0
  -10.0224   -0.3257    1.9804 H   0  0  0  0  0  0  0  0  0  0  0  0
   -8.1846   -1.3442    3.3401 H   0  0  0  0  0  0  0  0  0  0  0  0
   -6.0394   -1.9501    2.3730 H   0  0  0  0  0  0  0  0  0  0  0  0
   -0.8841    1.0897    1.2315 H   0  0  0  0  0  0  0  0  0  0  0  0
    0.8463    0.9240    1.6015 H   0  0  0  0  0  0  0  0  0  0  0  0
    0.3665    2.2633    0.5591 H   0  0  0  0  0  0  0  0  0  0  0  0
    0.8192   -1.7473   -0.7160 H   0  0  0  0  0  0  0  0  0  0  0  0
    0.0560   -1.3989    0.9430 H   0  0  0  0  0  0  0  0  0  0  0  0
    2.1433   -0.6937    1.8457 H   0  0  0  0  0  0  0  0  0  0  0  0
    2.5288   -2.0702    0.8056 H   0  0  0  0  0  0  0  0  0  0  0  0
    3.3763   -0.7988   -0.8993 H   0  0  0  0  0  0  0  0  0  0  0  0
    4.1342   -0.2097    1.9114 H   0  0  0  0  0  0  0  0  0  0  0  0
    4.8302   -2.2051    0.4316 H   0  0  0  0  0  0  0  0  0  0  0  0
    5.8098   -1.0108   -0.4684 H   0  0  0  0  0  0  0  0  0  0  0  0
    7.3770   -1.6885    1.0826 H   0  0  0  0  0  0  0  0  0  0  0  0
    6.2034   -2.0027    2.4110 H   0  0  0  0  0  0  0  0  0  0  0  0
    6.9852    2.0873    1.1822 H   0  0  0  0  0  0  0  0  0  0  0  0
    5.4924    2.7745   -0.7821 H   0  0  0  0  0  0  0  0  0  0  0  0
    4.2239    3.1059    0.4164 H   0  0  0  0  0  0  0  0  0  0  0  0
    3.2849    2.7328   -1.7307 H   0  0  0  0  0  0  0  0  0  0  0  0
    4.1435    1.1392   -1.9460 H   0  0  0  0  0  0  0  0  0  0  0  0
    2.3413    1.7450    0.4296 H   0  0  0  0  0  0  0  0  0  0  0  0
  1  2  1  0
  2  3  1  0
  3  4  1  0
  4  5  1  0
  5  6  1  0
  6  7  2  0
  6  8  1  0
  8  9  1  0
  9 10  1  0
 10 11  2  0
 11 12  1  0
 12 13  2  0
 13 14  1  0
 14 15  2  0
  4 16  1  0
 16 17  1  1
 16 18  1  0
 18 19  1  0
 19 20  1  0
 20 21  1  0
 21 22  1  0
 22 23  1  0
 23 24  1  0
 24 25  2  0
 24 26  1  0
 26 27  2  0
 27 28  1  0
 28 29  1  0
 29 30  1  0
 16  1  1  0
 30 20  1  0
 30  1  1  0
 15 10  1  0
 27 21  1  0
  1 31  1  6
  2 32  1  0
  2 33  1  0
  3 34  1  0
  3 35  1  0
  4 36  1  6
  8 37  1  0
  8 38  1  0
  9 39  1  0
  9 40  1  0
 11 41  1  0
 12 42  1  0
 13 43  1  0
 14 44  1  0
 15 45  1  0
 17 46  1  0
 17 47  1  0
 17 48  1  0
 18 49  1  0
 18 50  1  0
 19 51  1  0
 19 52  1  0
 20 53  1  6
 21 54  1  1
 22 55  1  0
 22 56  1  0
 23 57  1  0
 23 58  1  0
 26 59  1  0
 28 60  1  0
 28 61  1  0
 29 62  1  0
 29 63  1  0
 30 64  1  1
M  END
$$$$
