@<TRIPOS>MOLECULE
*****
 64 68 0 0 0
SMALL
GASTEIGER

@<TRIPOS>ATOM
      1 C           1.4261    0.7362   -1.2839 C.3     1  UNL1       -0.0290
      2 C           0.7570    1.8006   -2.0611 C.3     1  UNL1       -0.0460
      3 C          -0.5267    1.0718   -2.4617 C.3     1  UNL1       -0.0149
      4 C          -0.8183    0.1681   -1.3103 C.3     1  UNL1        0.1087
      5 O          -2.1075    0.2811   -0.7663 O.3     1  UNL1       -0.4608
      6 C          -3.0555   -0.7022   -0.7694 C.2     1  UNL1        0.3077
      7 O          -2.8735   -1.8592   -1.2778 O.2     1  UNL1       -0.2508
      8 C          -4.3869   -0.4582   -0.1595 C.3     1  UNL1        0.0489
      9 C          -5.2973   -1.6370   -0.2512 C.3     1  UNL1       -0.0176
     10 C          -6.5930   -1.2833    0.3864 C.ar    1  UNL1       -0.0468
     11 C          -7.6260   -0.7161   -0.3550 C.ar    1  UNL1       -0.0586
     12 C          -8.8616   -0.3631    0.1847 C.ar    1  UNL1       -0.0615
     13 C          -9.0742   -0.5916    1.5442 C.ar    1  UNL1       -0.0617
     14 C          -8.0477   -1.1521    2.2674 C.ar    1  UNL1       -0.0615
     15 C          -6.8127   -1.5088    1.7454 C.ar    1  UNL1       -0.0586
     16 C           0.3046    0.2722   -0.3439 C.3     1  UNL1        0.0081
     17 C           0.1134    1.2027    0.7991 C.3     1  UNL1       -0.0559
     18 C           0.7761   -1.0659    0.1773 C.3     1  UNL1       -0.0437
     19 C           2.1266   -1.0227    0.7913 C.3     1  UNL1       -0.0488
     20 C           3.1540   -0.2153    0.0338 C.3     1  UNL1       -0.0314
     21 C           4.4004   -0.1025    0.8281 C.3     1  UNL1       -0.0160
     22 C           5.3709   -1.2497    0.5224 C.3     1  UNL1       -0.0392
     23 C           6.4462   -1.3146    1.6005 C.3     1  UNL1        0.0104
     24 C           6.7886    0.0680    2.0618 C.2     1  UNL1        0.1561
     25 O           7.4380    0.2561    3.1031 O.2     1  UNL1       -0.2927
     26 C           6.3363    1.2188    1.2492 C.2     1  UNL1       -0.0197
     27 C           5.1549    1.1516    0.6305 C.2     1  UNL1       -0.0629
     28 C           4.6827    2.2979   -0.1909 C.3     1  UNL1       -0.0308
     29 C           3.6607    1.8188   -1.2291 C.3     1  UNL1       -0.0460
     30 C           2.5863    1.1134   -0.4406 C.3     1  UNL1       -0.0339
     31 H           1.7007   -0.0972   -1.9464 H       1  UNL1        0.0310
     32 H           0.5744    2.7272   -1.5109 H       1  UNL1        0.0269
     33 H           1.3787    2.0066   -2.9685 H       1  UNL1        0.0269
     34 H          -1.3477    1.7583   -2.7263 H       1  UNL1        0.0301
     35 H          -0.2692    0.5247   -3.4132 H       1  UNL1        0.0301
     36 H          -0.7741   -0.8819   -1.7246 H       1  UNL1        0.0739
     37 H          -4.2712   -0.1454    0.8765 H       1  UNL1        0.0381
     38 H          -4.8490    0.3929   -0.7251 H       1  UNL1        0.0381
     39 H          -5.4445   -1.9966   -1.2809 H       1  UNL1        0.0318
     40 H          -4.8633   -2.4711    0.3674 H       1  UNL1        0.0318
     41 H          -7.4913   -0.5240   -1.4238 H       1  UNL1        0.0620
     42 H          -9.6171    0.0763   -0.4651 H       1  UNL1        0.0618
     43 H         -10.0224   -0.3257    1.9804 H       1  UNL1        0.0618
     44 H          -8.1846   -1.3442    3.3401 H       1  UNL1        0.0618
     45 H          -6.0394   -1.9501    2.3730 H       1  UNL1        0.0620
     46 H          -0.8841    1.0897    1.2315 H       1  UNL1        0.0236
     47 H           0.8463    0.9240    1.6015 H       1  UNL1        0.0236
     48 H           0.3665    2.2633    0.5591 H       1  UNL1        0.0236
     49 H           0.8192   -1.7473   -0.7160 H       1  UNL1        0.0272
     50 H           0.0560   -1.3989    0.9430 H       1  UNL1        0.0272
     51 H           2.1433   -0.6937    1.8457 H       1  UNL1        0.0268
     52 H           2.5288   -2.0702    0.8056 H       1  UNL1        0.0268
     53 H           3.3763   -0.7988   -0.8993 H       1  UNL1        0.0309
     54 H           4.1342   -0.2097    1.9114 H       1  UNL1        0.0349
     55 H           4.8302   -2.2051    0.4316 H       1  UNL1        0.0275
     56 H           5.8098   -1.0108   -0.4684 H       1  UNL1        0.0275
     57 H           7.3770   -1.6885    1.0826 H       1  UNL1        0.0345
     58 H           6.2034   -2.0027    2.4110 H       1  UNL1        0.0345
     59 H           6.9852    2.0873    1.1822 H       1  UNL1        0.0652
     60 H           5.4924    2.7745   -0.7821 H       1  UNL1        0.0310
     61 H           4.2239    3.1059    0.4164 H       1  UNL1        0.0310
     62 H           3.2849    2.7328   -1.7307 H       1  UNL1        0.0271
     63 H           4.1435    1.1392   -1.9460 H       1  UNL1        0.0271
     64 H           2.3413    1.7450    0.4296 H       1  UNL1        0.0307
@<TRIPOS>BOND
     1     1     2    1
     2     2     3    1
     3     3     4    1
     4     4     5    1
     5     5     6    1
     6     6     7    2
     7     6     8    1
     8     8     9    1
     9     9    10    1
    10    10    11   ar
    11    11    12   ar
    12    12    13   ar
    13    13    14   ar
    14    14    15   ar
    15     4    16    1
    16    16    17    1
    17    16    18    1
    18    18    19    1
    19    19    20    1
    20    20    21    1
    21    21    22    1
    22    22    23    1
    23    23    24    1
    24    24    25    2
    25    24    26    1
    26    26    27    2
    27    27    28    1
    28    28    29    1
    29    29    30    1
    30    16     1    1
    31    30    20    1
    32    30     1    1
    33    15    10   ar
    34    27    21    1
    35     1    31    1
    36     2    32    1
    37     2    33    1
    38     3    34    1
    39     3    35    1
    40     4    36    1
    41     8    37    1
    42     8    38    1
    43     9    39    1
    44     9    40    1
    45    11    41    1
    46    12    42    1
    47    13    43    1
    48    14    44    1
    49    15    45    1
    50    17    46    1
    51    17    47    1
    52    17    48    1
    53    18    49    1
    54    18    50    1
    55    19    51    1
    56    19    52    1
    57    20    53    1
    58    21    54    1
    59    22    55    1
    60    22    56    1
    61    23    57    1
    62    23    58    1
    63    26    59    1
    64    28    60    1
    65    28    61    1
    66    29    62    1
    67    29    63    1
    68    30    64    1
