
     RDKit          3D

 51 54  0  0  0  0  0  0  0  0999 V2000
   -3.1324   -1.1826    1.0471 C   0  0  0  0  0  0  0  0  0  0  0  0
   -2.8110   -0.4873   -0.2584 C   0  0  2  0  0  0  0  0  0  0  0  0
   -2.0058   -1.3049   -1.1509 C   0  0  0  0  0  0  0  0  0  0  0  0
   -0.7310   -0.7163   -1.6722 C   0  0  0  0  0  0  0  0  0  0  0  0
    0.0380    0.1244   -0.7468 C   0  0  1  0  0  0  0  0  0  0  0  0
   -0.7636    0.5643    0.4927 C   0  0  1  0  0  0  0  0  0  0  0  0
   -0.0816    1.7924    1.0388 C   0  0  0  0  0  0  0  0  0  0  0  0
    1.3813    1.6106    1.2781 C   0  0  0  0  0  0  0  0  0  0  0  0
    2.1137    0.8103    0.2790 C   0  0  1  0  0  0  0  0  0  0  0  0
    3.4409    0.3970    0.8814 C   0  0  0  0  0  0  0  0  0  0  0  0
    4.2743   -0.2672   -0.1803 C   0  0  2  0  0  0  0  0  0  0  0  0
    4.8207    0.7347   -0.9908 O   0  0  0  0  0  0  0  0  0  0  0  0
    3.5730   -1.3241   -0.9331 C   0  0  0  0  0  0  0  0  0  0  0  0
    2.1583   -1.0860   -1.2817 C   0  0  0  0  0  0  0  0  0  0  0  0
    1.3358   -0.3996   -0.2426 C   0  0  2  0  0  0  0  0  0  0  0  0
    1.1902   -1.3476    0.9330 C   0  0  0  0  0  0  0  0  0  0  0  0
   -2.1035    0.8473   -0.0203 C   0  0  2  0  0  0  0  0  0  0  0  0
   -3.0786    1.5297    0.8402 C   0  0  0  0  0  0  0  0  0  0  0  0
   -4.3968    1.2250    0.1094 C   0  0  0  0  0  0  0  0  0  0  0  0
   -4.0866    0.0421   -0.7807 C   0  0  0  0  0  0  0  0  0  0  0  0
   -4.7969   -0.2949   -1.6812 O   0  0  0  0  0  0  0  0  0  0  0  0
   -3.9486   -0.6244    1.5827 H   0  0  0  0  0  0  0  0  0  0  0  0
   -3.6012   -2.1553    0.7631 H   0  0  0  0  0  0  0  0  0  0  0  0
   -2.2722   -1.4082    1.6634 H   0  0  0  0  0  0  0  0  0  0  0  0
   -1.7317   -2.2687   -0.6297 H   0  0  0  0  0  0  0  0  0  0  0  0
   -2.6210   -1.6386   -2.0294 H   0  0  0  0  0  0  0  0  0  0  0  0
   -0.1548   -1.5911   -2.1017 H   0  0  0  0  0  0  0  0  0  0  0  0
   -1.0232   -0.1427   -2.6062 H   0  0  0  0  0  0  0  0  0  0  0  0
    0.2690    1.1092   -1.2574 H   0  0  0  0  0  0  0  0  0  0  0  0
   -0.6653   -0.2282    1.2426 H   0  0  0  0  0  0  0  0  0  0  0  0
   -0.5585    2.0006    2.0318 H   0  0  0  0  0  0  0  0  0  0  0  0
   -0.3158    2.6496    0.3934 H   0  0  0  0  0  0  0  0  0  0  0  0
    1.8357    2.6372    1.3009 H   0  0  0  0  0  0  0  0  0  0  0  0
    1.5611    1.2064    2.3122 H   0  0  0  0  0  0  0  0  0  0  0  0
    2.3781    1.4415   -0.6193 H   0  0  0  0  0  0  0  0  0  0  0  0
    3.9458    1.3033    1.2129 H   0  0  0  0  0  0  0  0  0  0  0  0
    3.2386   -0.2449    1.7468 H   0  0  0  0  0  0  0  0  0  0  0  0
    5.1466   -0.7362    0.3521 H   0  0  0  0  0  0  0  0  0  0  0  0
    4.9093    0.3496   -1.9004 H   0  0  0  0  0  0  0  0  0  0  0  0
    4.1400   -1.4987   -1.8948 H   0  0  0  0  0  0  0  0  0  0  0  0
    3.6771   -2.3062   -0.3870 H   0  0  0  0  0  0  0  0  0  0  0  0
    2.0718   -0.5247   -2.2548 H   0  0  0  0  0  0  0  0  0  0  0  0
    1.7098   -2.1070   -1.4734 H   0  0  0  0  0  0  0  0  0  0  0  0
    0.2948   -1.9687    0.7851 H   0  0  0  0  0  0  0  0  0  0  0  0
    2.0861   -2.0067    0.9549 H   0  0  0  0  0  0  0  0  0  0  0  0
    1.1995   -0.7714    1.8638 H   0  0  0  0  0  0  0  0  0  0  0  0
   -2.0500    1.3559   -0.9991 H   0  0  0  0  0  0  0  0  0  0  0  0
   -2.9164    2.6355    0.8218 H   0  0  0  0  0  0  0  0  0  0  0  0
   -3.1143    1.2118    1.8831 H   0  0  0  0  0  0  0  0  0  0  0  0
   -4.6466    2.1028   -0.5213 H   0  0  0  0  0  0  0  0  0  0  0  0
   -5.1820    0.9513    0.8194 H   0  0  0  0  0  0  0  0  0  0  0  0
  2  1  1  1
  2  3  1  0
  3  4  1  0
  4  5  1  0
  5  6  1  0
  6  7  1  0
  7  8  1  0
  8  9  1  0
  9 10  1  0
 10 11  1  0
 11 12  1  0
 11 13  1  0
 13 14  1  0
 14 15  1  0
 15 16  1  1
  6 17  1  0
 17 18  1  0
 18 19  1  0
 19 20  1  0
 20 21  2  0
 17  2  1  0
 20  2  1  0
 15  5  1  0
 15  9  1  0
  1 22  1  0
  1 23  1  0
  1 24  1  0
  3 25  1  0
  3 26  1  0
  4 27  1  0
  4 28  1  0
  5 29  1  6
  6 30  1  1
  7 31  1  0
  7 32  1  0
  8 33  1  0
  8 34  1  0
  9 35  1  6
 10 36  1  0
 10 37  1  0
 11 38  1  1
 12 39  1  0
 13 40  1  0
 13 41  1  0
 14 42  1  0
 14 43  1  0
 16 44  1  0
 16 45  1  0
 16 46  1  0
 17 47  1  6
 18 48  1  0
 18 49  1  0
 19 50  1  0
 19 51  1  0
M  END
$$$$
