@<TRIPOS>MOLECULE
*****
 51 54 0 0 0
SMALL
GASTEIGER

@<TRIPOS>ATOM
      1 C          -3.1324   -1.1826    1.0471 C.3     1  UNL1       -0.0526
      2 C          -2.8110   -0.4873   -0.2584 C.3     1  UNL1        0.0293
      3 C          -2.0058   -1.3049   -1.1509 C.3     1  UNL1       -0.0404
      4 C          -0.7310   -0.7163   -1.6722 C.3     1  UNL1       -0.0486
      5 C           0.0380    0.1244   -0.7468 C.3     1  UNL1       -0.0322
      6 C          -0.7636    0.5643    0.4927 C.3     1  UNL1       -0.0340
      7 C          -0.0816    1.7924    1.0388 C.3     1  UNL1       -0.0494
      8 C           1.3813    1.6106    1.2781 C.3     1  UNL1       -0.0494
      9 C           2.1137    0.8103    0.2790 C.3     1  UNL1       -0.0330
     10 C           3.4409    0.3970    0.8814 C.3     1  UNL1       -0.0235
     11 C           4.2743   -0.2672   -0.1803 C.3     1  UNL1        0.0555
     12 O           4.8207    0.7347   -0.9908 O.3     1  UNL1       -0.3918
     13 C           3.5730   -1.3241   -0.9331 C.3     1  UNL1       -0.0263
     14 C           2.1583   -1.0860   -1.2817 C.3     1  UNL1       -0.0448
     15 C           1.3358   -0.3996   -0.2426 C.3     1  UNL1       -0.0260
     16 C           1.1902   -1.3476    0.9330 C.3     1  UNL1       -0.0590
     17 C          -2.1035    0.8473   -0.0203 C.3     1  UNL1       -0.0255
     18 C          -3.0786    1.5297    0.8402 C.3     1  UNL1       -0.0424
     19 C          -4.3968    1.2250    0.1094 C.3     1  UNL1        0.0067
     20 C          -4.0866    0.0421   -0.7807 C.2     1  UNL1        0.1395
     21 O          -4.7969   -0.2949   -1.6812 O.2     1  UNL1       -0.2968
     22 H          -3.9486   -0.6244    1.5827 H       1  UNL1        0.0239
     23 H          -3.6012   -2.1553    0.7631 H       1  UNL1        0.0239
     24 H          -2.2722   -1.4082    1.6634 H       1  UNL1        0.0239
     25 H          -1.7317   -2.2687   -0.6297 H       1  UNL1        0.0275
     26 H          -2.6210   -1.6386   -2.0294 H       1  UNL1        0.0275
     27 H          -0.1548   -1.5911   -2.1017 H       1  UNL1        0.0268
     28 H          -1.0232   -0.1427   -2.6062 H       1  UNL1        0.0268
     29 H           0.2690    1.1092   -1.2574 H       1  UNL1        0.0309
     30 H          -0.6653   -0.2282    1.2426 H       1  UNL1        0.0307
     31 H          -0.5585    2.0006    2.0318 H       1  UNL1        0.0268
     32 H          -0.3158    2.6496    0.3934 H       1  UNL1        0.0268
     33 H           1.8357    2.6372    1.3009 H       1  UNL1        0.0268
     34 H           1.5611    1.2064    2.3122 H       1  UNL1        0.0268
     35 H           2.3781    1.4415   -0.6193 H       1  UNL1        0.0307
     36 H           3.9458    1.3033    1.2129 H       1  UNL1        0.0293
     37 H           3.2386   -0.2449    1.7468 H       1  UNL1        0.0293
     38 H           5.1466   -0.7362    0.3521 H       1  UNL1        0.0593
     39 H           4.9093    0.3496   -1.9004 H       1  UNL1        0.2098
     40 H           4.1400   -1.4987   -1.8948 H       1  UNL1        0.0290
     41 H           3.6771   -2.3062   -0.3870 H       1  UNL1        0.0290
     42 H           2.0718   -0.5247   -2.2548 H       1  UNL1        0.0271
     43 H           1.7098   -2.1070   -1.4734 H       1  UNL1        0.0271
     44 H           0.2948   -1.9687    0.7851 H       1  UNL1        0.0235
     45 H           2.0861   -2.0067    0.9549 H       1  UNL1        0.0235
     46 H           1.1995   -0.7714    1.8638 H       1  UNL1        0.0235
     47 H          -2.0500    1.3559   -0.9991 H       1  UNL1        0.0313
     48 H          -2.9164    2.6355    0.8218 H       1  UNL1        0.0272
     49 H          -3.1143    1.2118    1.8831 H       1  UNL1        0.0272
     50 H          -4.6466    2.1028   -0.5213 H       1  UNL1        0.0342
     51 H          -5.1820    0.9513    0.8194 H       1  UNL1        0.0342
@<TRIPOS>BOND
     1     2     1    1
     2     2     3    1
     3     3     4    1
     4     4     5    1
     5     5     6    1
     6     6     7    1
     7     7     8    1
     8     8     9    1
     9     9    10    1
    10    10    11    1
    11    11    12    1
    12    11    13    1
    13    13    14    1
    14    14    15    1
    15    15    16    1
    16     6    17    1
    17    17    18    1
    18    18    19    1
    19    19    20    1
    20    20    21    2
    21    17     2    1
    22    20     2    1
    23    15     5    1
    24    15     9    1
    25     1    22    1
    26     1    23    1
    27     1    24    1
    28     3    25    1
    29     3    26    1
    30     4    27    1
    31     4    28    1
    32     5    29    1
    33     6    30    1
    34     7    31    1
    35     7    32    1
    36     8    33    1
    37     8    34    1
    38     9    35    1
    39    10    36    1
    40    10    37    1
    41    11    38    1
    42    12    39    1
    43    13    40    1
    44    13    41    1
    45    14    42    1
    46    14    43    1
    47    16    44    1
    48    16    45    1
    49    16    46    1
    50    17    47    1
    51    18    48    1
    52    18    49    1
    53    19    50    1
    54    19    51    1
