@<TRIPOS>MOLECULE
*****
 113 117 0 0 0
SMALL
GASTEIGER

@<TRIPOS>ATOM
      1 C           3.7327    4.2924    3.0396 C.1     1  UNL1       -0.1139
      2 C           4.0271    3.1888    2.3152 C.1     1  UNL1       -0.0696
      3 C           4.3045    2.0720    1.5735 C.ar    1  UNL1        0.0271
      4 C           3.4473    1.5192    0.6306 C.ar    1  UNL1       -0.0251
      5 C           3.8498    0.4514   -0.1330 C.ar    1  UNL1        0.0343
      6 N           2.9549   -0.1193   -1.0430 N.pl3   1  UNL1       -0.2993
      7 C           1.9937   -1.0618   -0.5535 C.ar    1  UNL1        0.1264
      8 C           0.6859   -0.9746   -0.6026 C.ar    1  UNL1        0.0208
      9 C          -0.2891   -1.7940   -0.1035 C.ar    1  UNL1        0.1332
     10 O          -1.6406   -1.6887   -0.1426 O.3     1  UNL1       -0.4553
     11 C          -2.4371   -0.7291   -0.6697 C.ar    1  UNL1        0.1362
     12 C          -3.3707   -1.0444   -1.6793 C.ar    1  UNL1       -0.0170
     13 C          -4.1855   -0.0570   -2.2147 C.ar    1  UNL1       -0.0364
     14 C          -4.0425    1.2011   -1.7400 C.ar    1  UNL1        0.0427
     15 N          -5.0997    2.1909   -2.0086 N.am    1  UNL1       -0.2686
     16 C          -6.3859    1.5698   -1.6071 C.2     1  UNL1        0.3082
     17 O          -6.3177    0.3875   -1.2867 O.2     1  UNL1       -0.2521
     18 N          -7.6156    2.2667   -1.5748 N.am    1  UNL1       -0.2660
     19 C          -8.6975    1.3494   -1.0676 C.ar    1  UNL1        0.0789
     20 C          -9.4941    0.8075   -2.0260 C.ar    1  UNL1       -0.0330
     21 C         -10.2417   -0.3314   -1.6977 C.ar    1  UNL1       -0.0382
     22 C         -11.0494   -1.0034   -2.6512 C.3     1  UNL1       -0.0126
     23 C         -12.2879   -0.1158   -3.0083 C.3     1  UNL1       -0.0560
     24 C         -10.2820   -1.2099   -3.9871 C.3     1  UNL1       -0.0560
     25 C         -11.6216   -2.2982   -2.2430 C.3     1  UNL1       -0.0560
     26 C         -10.1005   -0.8681   -0.3072 C.ar    1  UNL1       -0.0320
     27 C          -9.3096   -0.2428    0.5312 C.ar    1  UNL1        0.0913
     28 N          -9.0377   -0.7228    1.8653 N.pl3   1  UNL1       -0.2173
     29 S          -8.5802   -2.3272    2.1597 S.O2    1  UNL1        0.0404
     30 C          -9.8109   -3.5053    1.6817 C.3     1  UNL1        0.0736
     31 O          -7.2772   -2.7150    1.5005 O.2     1  UNL1       -0.1555
     32 O          -8.3155   -2.5434    3.6489 O.2     1  UNL1       -0.1555
     33 C          -8.5679    0.9222    0.1612 C.ar    1  UNL1        0.1634
     34 O          -7.7969    1.4697    1.1321 O.3     1  UNL1       -0.4914
     35 C          -6.5523    1.3508    1.6264 C.3     1  UNL1        0.0790
     36 C          -3.1312    1.5330   -0.7679 C.ar    1  UNL1        0.0069
     37 C          -2.9932    2.8459   -0.3237 C.ar    1  UNL1       -0.0521
     38 C          -2.0960    3.1645    0.6567 C.ar    1  UNL1       -0.0611
     39 C          -1.3087    2.1582    1.2153 C.ar    1  UNL1       -0.0611
     40 C          -1.3826    0.8691    0.8226 C.ar    1  UNL1       -0.0505
     41 C          -2.3105    0.5636   -0.2025 C.ar    1  UNL1        0.0262
     42 C           0.3229   -2.9530    0.5793 C.ar    1  UNL1       -0.0011
     43 C           1.5985   -3.0185    0.6100 C.ar    1  UNL1        0.0332
     44 N           2.5791   -2.2243    0.1332 N.ar    1  UNL1       -0.2400
     45 C           5.1037   -0.0210    0.0875 C.ar    1  UNL1       -0.0283
     46 C           6.0052    0.4050    0.9402 C.ar    1  UNL1        0.0396
     47 C           7.3768    0.0341    1.2160 C.2     1  UNL1        0.2444
     48 O           8.2244   -0.2884    0.3360 O.2     1  UNL1       -0.2702
     49 N           7.9152    0.0360    2.5751 N.am    1  UNL1       -0.3066
     50 C           9.3007   -0.2406    2.7915 C.3     1  UNL1        0.0439
     51 C           9.7515    0.2900    4.0981 C.3     1  UNL1       -0.0445
     52 C           9.6602   -1.6986    2.6734 C.3     1  UNL1        0.0659
     53 O          11.0135   -1.8684    2.8191 O.3     1  UNL1       -0.3757
     54 C          11.8095   -1.1594    1.9339 C.3     1  UNL1        0.0711
     55 C          11.5731   -1.4703    0.4673 C.3     1  UNL1        0.0711
     56 O          12.3233   -0.7566   -0.4067 O.3     1  UNL1       -0.3752
     57 C          12.1924    0.6102   -0.3877 C.3     1  UNL1        0.0711
     58 C          13.1080    1.2366   -1.4662 C.3     1  UNL1        0.0706
     59 O          12.7116    0.7216   -2.6776 O.3     1  UNL1       -0.3807
     60 C          13.4902    1.1947   -3.7087 C.3     1  UNL1        0.0365
     61 C           5.5863    1.5299    1.7397 C.ar    1  UNL1       -0.0341
     62 H           3.4850    5.1744    3.6283 H       1  UNL1        0.1232
     63 H           2.4579    1.9760    0.5785 H       1  UNL1        0.0648
     64 H           2.9485    0.1159   -2.0474 H       1  UNL1        0.1536
     65 H           0.2156   -0.1053   -1.1995 H       1  UNL1        0.0689
     66 H          -3.4399   -2.0408   -2.0041 H       1  UNL1        0.0655
     67 H          -4.9307   -0.3537   -2.9725 H       1  UNL1        0.0637
     68 H          -5.0673    3.0656   -2.3589 H       1  UNL1        0.1564
     69 H          -7.7416    3.1872   -1.8515 H       1  UNL1        0.1565
     70 H          -9.5264    1.2235   -3.0009 H       1  UNL1        0.0640
     71 H         -12.9584   -0.0764   -2.1313 H       1  UNL1        0.0238
     72 H         -12.8194   -0.6670   -3.8046 H       1  UNL1        0.0238
     73 H         -11.9745    0.8740   -3.3548 H       1  UNL1        0.0238
     74 H          -9.2882   -0.7861   -3.8909 H       1  UNL1        0.0238
     75 H         -10.9420   -0.8643   -4.7676 H       1  UNL1        0.0238
     76 H         -10.1364   -2.3136   -4.0711 H       1  UNL1        0.0238
     77 H         -11.6331   -3.0079   -3.1483 H       1  UNL1        0.0238
     78 H         -11.0498   -2.8763   -1.5074 H       1  UNL1        0.0238
     79 H         -12.7028   -2.2545   -1.9338 H       1  UNL1        0.0238
     80 H         -10.6715   -1.7309   -0.0801 H       1  UNL1        0.0641
     81 H          -9.0914   -0.0686    2.6616 H       1  UNL1        0.1734
     82 H          -9.7489   -4.4419    2.3143 H       1  UNL1        0.0482
     83 H         -10.7923   -3.0393    1.9218 H       1  UNL1        0.0482
     84 H          -9.7228   -3.8034    0.6049 H       1  UNL1        0.0482
     85 H          -5.8401    2.1010    1.1888 H       1  UNL1        0.0660
     86 H          -6.5164    1.5330    2.7382 H       1  UNL1        0.0660
     87 H          -6.1173    0.3297    1.4043 H       1  UNL1        0.0660
     88 H          -3.6275    3.5736   -0.8430 H       1  UNL1        0.0624
     89 H          -1.9685    4.1882    0.9955 H       1  UNL1        0.0618
     90 H          -0.6018    2.3779    2.0210 H       1  UNL1        0.0618
     91 H          -0.8339    0.0589    1.3175 H       1  UNL1        0.0625
     92 H          -0.4163   -3.6173    0.9793 H       1  UNL1        0.0669
     93 H           2.0663   -3.9460    1.1702 H       1  UNL1        0.0831
     94 H           5.4483   -0.9266   -0.5230 H       1  UNL1        0.0644
     95 H           7.2263    0.2340    3.3386 H       1  UNL1        0.1494
     96 H           9.9118    0.2375    1.9570 H       1  UNL1        0.0518
     97 H           8.8559    0.5855    4.7167 H       1  UNL1        0.0248
     98 H          10.2990   -0.4933    4.6936 H       1  UNL1        0.0248
     99 H          10.3961    1.1955    3.9806 H       1  UNL1        0.0248
    100 H           9.2059   -2.2016    3.5962 H       1  UNL1        0.0578
    101 H           9.3011   -2.1517    1.7574 H       1  UNL1        0.0578
    102 H          12.9205   -1.5138    2.1683 H       1  UNL1        0.0583
    103 H          11.7966   -0.1004    2.1328 H       1  UNL1        0.0583
    104 H          12.0027   -2.5780    0.3266 H       1  UNL1        0.0583
    105 H          10.5483   -1.6023    0.2563 H       1  UNL1        0.0583
    106 H          11.1665    0.9293   -0.7325 H       1  UNL1        0.0583
    107 H          12.4933    1.0665    0.5671 H       1  UNL1        0.0583
    108 H          12.7691    2.3344   -1.4800 H       1  UNL1        0.0582
    109 H          14.1605    1.1790   -1.2002 H       1  UNL1        0.0582
    110 H          14.5428    0.8047   -3.5165 H       1  UNL1        0.0524
    111 H          13.5457    2.3452   -3.6319 H       1  UNL1        0.0524
    112 H          13.1357    0.8865   -4.6913 H       1  UNL1        0.0524
    113 H           6.2477    1.9471    2.4553 H       1  UNL1        0.0637
@<TRIPOS>BOND
     1     1     2    3
     2     2     3    1
     3     3     4   ar
     4     4     5   ar
     5     5     6    1
     6     6     7    1
     7     7     8   ar
     8     8     9   ar
     9     9    10    1
    10    10    11    1
    11    11    12   ar
    12    12    13   ar
    13    13    14   ar
    14    14    15    1
    15    15    16   am
    16    16    17    2
    17    16    18   am
    18    18    19    1
    19    19    20   ar
    20    20    21   ar
    21    21    22    1
    22    22    23    1
    23    22    24    1
    24    22    25    1
    25    21    26   ar
    26    26    27   ar
    27    27    28    1
    28    28    29    1
    29    29    30    1
    30    29    31    2
    31    29    32    2
    32    27    33   ar
    33    33    34    1
    34    34    35    1
    35    14    36   ar
    36    36    37   ar
    37    37    38   ar
    38    38    39   ar
    39    39    40   ar
    40    40    41   ar
    41     9    42   ar
    42    42    43   ar
    43    43    44   ar
    44     5    45   ar
    45    45    46   ar
    46    46    47    1
    47    47    48    2
    48    47    49   am
    49    49    50    1
    50    50    51    1
    51    50    52    1
    52    52    53    1
    53    53    54    1
    54    54    55    1
    55    55    56    1
    56    56    57    1
    57    57    58    1
    58    58    59    1
    59    59    60    1
    60    46    61   ar
    61    61     3   ar
    62    44     7   ar
    63    41    11   ar
    64    33    19   ar
    65    41    36   ar
    66     1    62    1
    67     4    63    1
    68     6    64    1
    69     8    65    1
    70    12    66    1
    71    13    67    1
    72    15    68    1
    73    18    69    1
    74    20    70    1
    75    23    71    1
    76    23    72    1
    77    23    73    1
    78    24    74    1
    79    24    75    1
    80    24    76    1
    81    25    77    1
    82    25    78    1
    83    25    79    1
    84    26    80    1
    85    28    81    1
    86    30    82    1
    87    30    83    1
    88    30    84    1
    89    35    85    1
    90    35    86    1
    91    35    87    1
    92    37    88    1
    93    38    89    1
    94    39    90    1
    95    40    91    1
    96    42    92    1
    97    43    93    1
    98    45    94    1
    99    49    95    1
   100    50    96    1
   101    51    97    1
   102    51    98    1
   103    51    99    1
   104    52   100    1
   105    52   101    1
   106    54   102    1
   107    54   103    1
   108    55   104    1
   109    55   105    1
   110    57   106    1
   111    57   107    1
   112    58   108    1
   113    58   109    1
   114    60   110    1
   115    60   111    1
   116    60   112    1
   117    61   113    1
