
     RDKit          3D

113117  0  0  0  0  0  0  0  0999 V2000
    3.7327    4.2924    3.0396 C   0  0  0  0  0  0  0  0  0  0  0  0
    4.0271    3.1888    2.3152 C   0  0  0  0  0  0  0  0  0  0  0  0
    4.3045    2.0720    1.5735 C   0  0  0  0  0  0  0  0  0  0  0  0
    3.4473    1.5192    0.6306 C   0  0  0  0  0  0  0  0  0  0  0  0
    3.8498    0.4514   -0.1330 C   0  0  0  0  0  0  0  0  0  0  0  0
    2.9549   -0.1193   -1.0430 N   0  0  0  0  0  0  0  0  0  0  0  0
    1.9937   -1.0618   -0.5535 C   0  0  0  0  0  0  0  0  0  0  0  0
    0.6859   -0.9746   -0.6026 C   0  0  0  0  0  0  0  0  0  0  0  0
   -0.2891   -1.7940   -0.1035 C   0  0  0  0  0  0  0  0  0  0  0  0
   -1.6406   -1.6887   -0.1426 O   0  0  0  0  0  0  0  0  0  0  0  0
   -2.4371   -0.7291   -0.6697 C   0  0  0  0  0  0  0  0  0  0  0  0
   -3.3707   -1.0444   -1.6793 C   0  0  0  0  0  0  0  0  0  0  0  0
   -4.1855   -0.0570   -2.2147 C   0  0  0  0  0  0  0  0  0  0  0  0
   -4.0425    1.2011   -1.7400 C   0  0  0  0  0  0  0  0  0  0  0  0
   -5.0997    2.1909   -2.0086 N   0  0  0  0  0  0  0  0  0  0  0  0
   -6.3859    1.5698   -1.6071 C   0  0  0  0  0  0  0  0  0  0  0  0
   -6.3177    0.3875   -1.2867 O   0  0  0  0  0  0  0  0  0  0  0  0
   -7.6156    2.2667   -1.5748 N   0  0  0  0  0  0  0  0  0  0  0  0
   -8.6975    1.3494   -1.0676 C   0  0  0  0  0  0  0  0  0  0  0  0
   -9.4941    0.8075   -2.0260 C   0  0  0  0  0  0  0  0  0  0  0  0
  -10.2417   -0.3314   -1.6977 C   0  0  0  0  0  0  0  0  0  0  0  0
  -11.0494   -1.0034   -2.6512 C   0  0  0  0  0  0  0  0  0  0  0  0
  -12.2879   -0.1158   -3.0083 C   0  0  0  0  0  0  0  0  0  0  0  0
  -10.2820   -1.2099   -3.9871 C   0  0  0  0  0  0  0  0  0  0  0  0
  -11.6216   -2.2982   -2.2430 C   0  0  0  0  0  0  0  0  0  0  0  0
  -10.1005   -0.8681   -0.3072 C   0  0  0  0  0  0  0  0  0  0  0  0
   -9.3096   -0.2428    0.5312 C   0  0  0  0  0  0  0  0  0  0  0  0
   -9.0377   -0.7228    1.8653 N   0  0  0  0  0  0  0  0  0  0  0  0
   -8.5802   -2.3272    2.1597 S   0  0  0  0  0  6  0  0  0  0  0  0
   -9.8109   -3.5053    1.6817 C   0  0  0  0  0  0  0  0  0  0  0  0
   -7.2772   -2.7150    1.5005 O   0  0  0  0  0  0  0  0  0  0  0  0
   -8.3155   -2.5434    3.6489 O   0  0  0  0  0  0  0  0  0  0  0  0
   -8.5679    0.9222    0.1612 C   0  0  0  0  0  0  0  0  0  0  0  0
   -7.7969    1.4697    1.1321 O   0  0  0  0  0  0  0  0  0  0  0  0
   -6.5523    1.3508    1.6264 C   0  0  0  0  0  0  0  0  0  0  0  0
   -3.1312    1.5330   -0.7679 C   0  0  0  0  0  0  0  0  0  0  0  0
   -2.9932    2.8459   -0.3237 C   0  0  0  0  0  0  0  0  0  0  0  0
   -2.0960    3.1645    0.6567 C   0  0  0  0  0  0  0  0  0  0  0  0
   -1.3087    2.1582    1.2153 C   0  0  0  0  0  0  0  0  0  0  0  0
   -1.3826    0.8691    0.8226 C   0  0  0  0  0  0  0  0  0  0  0  0
   -2.3105    0.5636   -0.2025 C   0  0  0  0  0  0  0  0  0  0  0  0
    0.3229   -2.9530    0.5793 C   0  0  0  0  0  0  0  0  0  0  0  0
    1.5985   -3.0185    0.6100 C   0  0  0  0  0  0  0  0  0  0  0  0
    2.5791   -2.2243    0.1332 N   0  0  0  0  0  0  0  0  0  0  0  0
    5.1037   -0.0210    0.0875 C   0  0  0  0  0  0  0  0  0  0  0  0
    6.0052    0.4050    0.9402 C   0  0  0  0  0  0  0  0  0  0  0  0
    7.3768    0.0341    1.2160 C   0  0  0  0  0  0  0  0  0  0  0  0
    8.2244   -0.2884    0.3360 O   0  0  0  0  0  0  0  0  0  0  0  0
    7.9152    0.0360    2.5751 N   0  0  0  0  0  0  0  0  0  0  0  0
    9.3007   -0.2406    2.7915 C   0  0  1  0  0  0  0  0  0  0  0  0
    9.7515    0.2900    4.0981 C   0  0  0  0  0  0  0  0  0  0  0  0
    9.6602   -1.6986    2.6734 C   0  0  0  0  0  0  0  0  0  0  0  0
   11.0135   -1.8684    2.8191 O   0  0  0  0  0  0  0  0  0  0  0  0
   11.8095   -1.1594    1.9339 C   0  0  0  0  0  0  0  0  0  0  0  0
   11.5731   -1.4703    0.4673 C   0  0  0  0  0  0  0  0  0  0  0  0
   12.3233   -0.7566   -0.4067 O   0  0  0  0  0  0  0  0  0  0  0  0
   12.1924    0.6102   -0.3877 C   0  0  0  0  0  0  0  0  0  0  0  0
   13.1080    1.2366   -1.4662 C   0  0  0  0  0  0  0  0  0  0  0  0
   12.7116    0.7216   -2.6776 O   0  0  0  0  0  0  0  0  0  0  0  0
   13.4902    1.1947   -3.7087 C   0  0  0  0  0  0  0  0  0  0  0  0
    5.5863    1.5299    1.7397 C   0  0  0  0  0  0  0  0  0  0  0  0
    3.4850    5.1744    3.6283 H   0  0  0  0  0  0  0  0  0  0  0  0
    2.4579    1.9760    0.5785 H   0  0  0  0  0  0  0  0  0  0  0  0
    2.9485    0.1159   -2.0474 H   0  0  0  0  0  0  0  0  0  0  0  0
    0.2156   -0.1053   -1.1995 H   0  0  0  0  0  0  0  0  0  0  0  0
   -3.4399   -2.0408   -2.0041 H   0  0  0  0  0  0  0  0  0  0  0  0
   -4.9307   -0.3537   -2.9725 H   0  0  0  0  0  0  0  0  0  0  0  0
   -5.0673    3.0656   -2.3589 H   0  0  0  0  0  0  0  0  0  0  0  0
   -7.7416    3.1872   -1.8515 H   0  0  0  0  0  0  0  0  0  0  0  0
   -9.5264    1.2235   -3.0009 H   0  0  0  0  0  0  0  0  0  0  0  0
  -12.9584   -0.0764   -2.1313 H   0  0  0  0  0  0  0  0  0  0  0  0
  -12.8194   -0.6670   -3.8046 H   0  0  0  0  0  0  0  0  0  0  0  0
  -11.9745    0.8740   -3.3548 H   0  0  0  0  0  0  0  0  0  0  0  0
   -9.2882   -0.7861   -3.8909 H   0  0  0  0  0  0  0  0  0  0  0  0
  -10.9420   -0.8643   -4.7676 H   0  0  0  0  0  0  0  0  0  0  0  0
  -10.1364   -2.3136   -4.0711 H   0  0  0  0  0  0  0  0  0  0  0  0
  -11.6331   -3.0079   -3.1483 H   0  0  0  0  0  0  0  0  0  0  0  0
  -11.0498   -2.8763   -1.5074 H   0  0  0  0  0  0  0  0  0  0  0  0
  -12.7028   -2.2545   -1.9338 H   0  0  0  0  0  0  0  0  0  0  0  0
  -10.6715   -1.7309   -0.0801 H   0  0  0  0  0  0  0  0  0  0  0  0
   -9.0914   -0.0686    2.6616 H   0  0  0  0  0  0  0  0  0  0  0  0
   -9.7489   -4.4419    2.3143 H   0  0  0  0  0  0  0  0  0  0  0  0
  -10.7923   -3.0393    1.9218 H   0  0  0  0  0  0  0  0  0  0  0  0
   -9.7228   -3.8034    0.6049 H   0  0  0  0  0  0  0  0  0  0  0  0
   -5.8401    2.1010    1.1888 H   0  0  0  0  0  0  0  0  0  0  0  0
   -6.5164    1.5330    2.7382 H   0  0  0  0  0  0  0  0  0  0  0  0
   -6.1173    0.3297    1.4043 H   0  0  0  0  0  0  0  0  0  0  0  0
   -3.6275    3.5736   -0.8430 H   0  0  0  0  0  0  0  0  0  0  0  0
   -1.9685    4.1882    0.9955 H   0  0  0  0  0  0  0  0  0  0  0  0
   -0.6018    2.3779    2.0210 H   0  0  0  0  0  0  0  0  0  0  0  0
   -0.8339    0.0589    1.3175 H   0  0  0  0  0  0  0  0  0  0  0  0
   -0.4163   -3.6173    0.9793 H   0  0  0  0  0  0  0  0  0  0  0  0
    2.0663   -3.9460    1.1702 H   0  0  0  0  0  0  0  0  0  0  0  0
    5.4483   -0.9266   -0.5230 H   0  0  0  0  0  0  0  0  0  0  0  0
    7.2263    0.2340    3.3386 H   0  0  0  0  0  0  0  0  0  0  0  0
    9.9118    0.2375    1.9570 H   0  0  0  0  0  0  0  0  0  0  0  0
    8.8559    0.5855    4.7167 H   0  0  0  0  0  0  0  0  0  0  0  0
   10.2990   -0.4933    4.6936 H   0  0  0  0  0  0  0  0  0  0  0  0
   10.3961    1.1955    3.9806 H   0  0  0  0  0  0  0  0  0  0  0  0
    9.2059   -2.2016    3.5962 H   0  0  0  0  0  0  0  0  0  0  0  0
    9.3011   -2.1517    1.7574 H   0  0  0  0  0  0  0  0  0  0  0  0
   12.9205   -1.5138    2.1683 H   0  0  0  0  0  0  0  0  0  0  0  0
   11.7966   -0.1004    2.1328 H   0  0  0  0  0  0  0  0  0  0  0  0
   12.0027   -2.5780    0.3266 H   0  0  0  0  0  0  0  0  0  0  0  0
   10.5483   -1.6023    0.2563 H   0  0  0  0  0  0  0  0  0  0  0  0
   11.1665    0.9293   -0.7325 H   0  0  0  0  0  0  0  0  0  0  0  0
   12.4933    1.0665    0.5671 H   0  0  0  0  0  0  0  0  0  0  0  0
   12.7691    2.3344   -1.4800 H   0  0  0  0  0  0  0  0  0  0  0  0
   14.1605    1.1790   -1.2002 H   0  0  0  0  0  0  0  0  0  0  0  0
   14.5428    0.8047   -3.5165 H   0  0  0  0  0  0  0  0  0  0  0  0
   13.5457    2.3452   -3.6319 H   0  0  0  0  0  0  0  0  0  0  0  0
   13.1357    0.8865   -4.6913 H   0  0  0  0  0  0  0  0  0  0  0  0
    6.2477    1.9471    2.4553 H   0  0  0  0  0  0  0  0  0  0  0  0
  1  2  3  0
  2  3  1  0
  3  4  2  0
  4  5  1  0
  5  6  1  0
  6  7  1  0
  7  8  2  0
  8  9  1  0
  9 10  1  0
 10 11  1  0
 11 12  2  0
 12 13  1  0
 13 14  2  0
 14 15  1  0
 15 16  1  0
 16 17  2  0
 16 18  1  0
 18 19  1  0
 19 20  2  0
 20 21  1  0
 21 22  1  0
 22 23  1  0
 22 24  1  0
 22 25  1  0
 21 26  2  0
 26 27  1  0
 27 28  1  0
 28 29  1  0
 29 30  1  0
 29 31  2  0
 29 32  2  0
 27 33  2  0
 33 34  1  0
 34 35  1  0
 14 36  1  0
 36 37  2  0
 37 38  1  0
 38 39  2  0
 39 40  1  0
 40 41  2  0
  9 42  2  0
 42 43  1  0
 43 44  2  0
  5 45  2  0
 45 46  1  0
 46 47  1  0
 47 48  2  0
 47 49  1  0
 49 50  1  0
 50 51  1  0
 50 52  1  0
 52 53  1  0
 53 54  1  0
 54 55  1  0
 55 56  1  0
 56 57  1  0
 57 58  1  0
 58 59  1  0
 59 60  1  0
 46 61  2  0
 61  3  1  0
 44  7  1  0
 41 11  1  0
 33 19  1  0
 41 36  1  0
  1 62  1  0
  4 63  1  0
  6 64  1  0
  8 65  1  0
 12 66  1  0
 13 67  1  0
 15 68  1  0
 18 69  1  0
 20 70  1  0
 23 71  1  0
 23 72  1  0
 23 73  1  0
 24 74  1  0
 24 75  1  0
 24 76  1  0
 25 77  1  0
 25 78  1  0
 25 79  1  0
 26 80  1  0
 28 81  1  0
 30 82  1  0
 30 83  1  0
 30 84  1  0
 35 85  1  0
 35 86  1  0
 35 87  1  0
 37 88  1  0
 38 89  1  0
 39 90  1  0
 40 91  1  0
 42 92  1  0
 43 93  1  0
 45 94  1  0
 49 95  1  0
 50 96  1  6
 51 97  1  0
 51 98  1  0
 51 99  1  0
 52100  1  0
 52101  1  0
 54102  1  0
 54103  1  0
 55104  1  0
 55105  1  0
 57106  1  0
 57107  1  0
 58108  1  0
 58109  1  0
 60110  1  0
 60111  1  0
 60112  1  0
 61113  1  0
M  END
$$$$
