@<TRIPOS>MOLECULE
*****
 31 33 0 0 0
SMALL
GASTEIGER

@<TRIPOS>ATOM
      1 C           4.1625   -1.3372    0.9714 C.3     1  UNL1        0.0788
      2 O           4.0616   -0.3774   -0.0351 O.3     1  UNL1       -0.4951
      3 C           2.8784    0.1921   -0.4676 C.ar    1  UNL1        0.1209
      4 C           2.9261    1.1329   -1.4758 C.ar    1  UNL1       -0.0179
      5 C           1.7781    1.7379   -1.9511 C.ar    1  UNL1       -0.0321
      6 C           0.5364    1.4134   -1.4235 C.ar    1  UNL1        0.0771
      7 N          -0.5712    2.0125   -1.8986 N.ar    1  UNL1       -0.2275
      8 C          -1.7594    1.6762   -1.3662 C.ar    1  UNL1        0.1601
      9 N          -3.0188    2.0609   -1.5909 N.ar    1  UNL1       -0.2598
     10 N          -3.8656    1.4174   -0.7817 N.ar    1  UNL1       -0.1766
     11 C          -3.1690    0.5822    0.0049 C.ar    1  UNL1        0.0725
     12 C          -3.6794   -0.3232    1.0433 C.3     1  UNL1       -0.0199
     13 C          -1.8532    0.7290   -0.3444 C.ar    1  UNL1        0.0834
     14 C          -0.7203    0.1194    0.1381 C.ar    1  UNL1        0.1418
     15 O          -0.8068   -0.8241    1.1548 O.3     1  UNL1       -0.4937
     16 C          -0.9743   -2.2089    0.8793 C.3     1  UNL1        0.0788
     17 C           0.4880    0.4731   -0.4157 C.ar    1  UNL1        0.0463
     18 C           1.6428   -0.1289    0.0554 C.ar    1  UNL1       -0.0072
     19 H           4.4132   -0.8903    1.9732 H       1  UNL1        0.0660
     20 H           5.0476   -1.9883    0.7131 H       1  UNL1        0.0660
     21 H           3.2532   -1.9576    1.1050 H       1  UNL1        0.0660
     22 H           3.9068    1.3885   -1.8918 H       1  UNL1        0.0655
     23 H           1.8026    2.4686   -2.7324 H       1  UNL1        0.0640
     24 H          -3.3310    2.7669   -2.2963 H       1  UNL1        0.1905
     25 H          -3.7857   -1.3703    0.6934 H       1  UNL1        0.0293
     26 H          -4.7174    0.0068    1.3217 H       1  UNL1        0.0293
     27 H          -3.0720   -0.2359    1.9592 H       1  UNL1        0.0293
     28 H           0.0013   -2.7090    0.7543 H       1  UNL1        0.0660
     29 H          -1.5557   -2.6235    1.7300 H       1  UNL1        0.0660
     30 H          -1.5812   -2.3545   -0.0580 H       1  UNL1        0.0660
     31 H           1.5626   -0.8488    0.8333 H       1  UNL1        0.0662
@<TRIPOS>BOND
     1     1     2    1
     2     2     3    1
     3     3     4   ar
     4     4     5   ar
     5     5     6   ar
     6     6     7   ar
     7     7     8   ar
     8     8     9   ar
     9     9    10   ar
    10    10    11   ar
    11    11    12    1
    12    11    13   ar
    13    13    14   ar
    14    14    15    1
    15    15    16    1
    16    14    17   ar
    17    17    18   ar
    18    18     3   ar
    19    17     6   ar
    20    13     8   ar
    21     1    19    1
    22     1    20    1
    23     1    21    1
    24     4    22    1
    25     5    23    1
    26     9    24    1
    27    12    25    1
    28    12    26    1
    29    12    27    1
    30    16    28    1
    31    16    29    1
    32    16    30    1
    33    18    31    1
