
     RDKit          3D

 31 33  0  0  0  0  0  0  0  0999 V2000
    4.1625   -1.3372    0.9714 C   0  0  0  0  0  0  0  0  0  0  0  0
    4.0616   -0.3774   -0.0351 O   0  0  0  0  0  0  0  0  0  0  0  0
    2.8784    0.1921   -0.4676 C   0  0  0  0  0  0  0  0  0  0  0  0
    2.9261    1.1329   -1.4758 C   0  0  0  0  0  0  0  0  0  0  0  0
    1.7781    1.7379   -1.9511 C   0  0  0  0  0  0  0  0  0  0  0  0
    0.5364    1.4134   -1.4235 C   0  0  0  0  0  0  0  0  0  0  0  0
   -0.5712    2.0125   -1.8986 N   0  0  0  0  0  0  0  0  0  0  0  0
   -1.7594    1.6762   -1.3662 C   0  0  0  0  0  0  0  0  0  0  0  0
   -3.0188    2.0609   -1.5909 N   0  0  0  0  0  0  0  0  0  0  0  0
   -3.8656    1.4174   -0.7817 N   0  0  0  0  0  0  0  0  0  0  0  0
   -3.1690    0.5822    0.0049 C   0  0  0  0  0  0  0  0  0  0  0  0
   -3.6794   -0.3232    1.0433 C   0  0  0  0  0  0  0  0  0  0  0  0
   -1.8532    0.7290   -0.3444 C   0  0  0  0  0  0  0  0  0  0  0  0
   -0.7203    0.1194    0.1381 C   0  0  0  0  0  0  0  0  0  0  0  0
   -0.8068   -0.8241    1.1548 O   0  0  0  0  0  0  0  0  0  0  0  0
   -0.9743   -2.2089    0.8793 C   0  0  0  0  0  0  0  0  0  0  0  0
    0.4880    0.4731   -0.4157 C   0  0  0  0  0  0  0  0  0  0  0  0
    1.6428   -0.1289    0.0554 C   0  0  0  0  0  0  0  0  0  0  0  0
    4.4132   -0.8903    1.9732 H   0  0  0  0  0  0  0  0  0  0  0  0
    5.0476   -1.9883    0.7131 H   0  0  0  0  0  0  0  0  0  0  0  0
    3.2532   -1.9576    1.1050 H   0  0  0  0  0  0  0  0  0  0  0  0
    3.9068    1.3885   -1.8918 H   0  0  0  0  0  0  0  0  0  0  0  0
    1.8026    2.4686   -2.7324 H   0  0  0  0  0  0  0  0  0  0  0  0
   -3.3310    2.7669   -2.2963 H   0  0  0  0  0  0  0  0  0  0  0  0
   -3.7857   -1.3703    0.6934 H   0  0  0  0  0  0  0  0  0  0  0  0
   -4.7174    0.0068    1.3217 H   0  0  0  0  0  0  0  0  0  0  0  0
   -3.0720   -0.2359    1.9592 H   0  0  0  0  0  0  0  0  0  0  0  0
    0.0013   -2.7090    0.7543 H   0  0  0  0  0  0  0  0  0  0  0  0
   -1.5557   -2.6235    1.7300 H   0  0  0  0  0  0  0  0  0  0  0  0
   -1.5812   -2.3545   -0.0580 H   0  0  0  0  0  0  0  0  0  0  0  0
    1.5626   -0.8488    0.8333 H   0  0  0  0  0  0  0  0  0  0  0  0
  1  2  1  0
  2  3  1  0
  3  4  2  0
  4  5  1  0
  5  6  2  0
  6  7  1  0
  7  8  2  0
  8  9  1  0
  9 10  1  0
 10 11  2  0
 11 12  1  0
 11 13  1  0
 13 14  2  0
 14 15  1  0
 15 16  1  0
 14 17  1  0
 17 18  2  0
 18  3  1  0
 17  6  1  0
 13  8  1  0
  1 19  1  0
  1 20  1  0
  1 21  1  0
  4 22  1  0
  5 23  1  0
  9 24  1  0
 12 25  1  0
 12 26  1  0
 12 27  1  0
 16 28  1  0
 16 29  1  0
 16 30  1  0
 18 31  1  0
M  END
$$$$
