@<TRIPOS>MOLECULE
*****
 57 61 0 0 0
SMALL
GASTEIGER

@<TRIPOS>ATOM
      1 N          -2.4990    1.7444    2.4378 N.1     1  UNL1       -0.1908
      2 C          -3.5101    1.3323    2.1193 C.1     1  UNL1        0.1026
      3 C          -4.7791    0.8128    1.7450 C.ar    1  UNL1        0.0914
      4 C          -5.7524    1.7608    1.3755 C.ar    1  UNL1       -0.0396
      5 C          -6.9974    1.3524    1.0128 C.ar    1  UNL1       -0.0422
      6 C          -7.2701    0.0190    1.0179 C.ar    1  UNL1        0.0298
      7 N          -6.3258   -0.8561    1.3733 N.ar    1  UNL1       -0.2392
      8 C          -5.0600   -0.5108    1.7464 C.ar    1  UNL1        0.1364
      9 N          -4.1718   -1.5281    2.0800 N.pl3   1  UNL1       -0.3236
     10 C          -2.7986   -1.3901    2.4324 C.3     1  UNL1        0.0392
     11 C          -2.2819   -2.7930    2.9531 C.3     1  UNL1       -0.0171
     12 C          -0.8134   -2.4366    3.0864 C.3     1  UNL1        0.0196
     13 N          -0.5631   -1.6554    1.9055 N.am    1  UNL1       -0.2656
     14 C           0.7301   -1.3131    1.4326 C.2     1  UNL1        0.4032
     15 O           1.7818   -1.6614    2.0072 O.2     1  UNL1       -0.2262
     16 O           0.8542   -0.5541    0.2754 O.3     1  UNL1       -0.4464
     17 C           2.1243   -0.1887   -0.2325 C.3     1  UNL1        0.1103
     18 C           2.2937   -0.8180   -1.5982 C.3     1  UNL1       -0.0023
     19 C           1.2985   -0.2445   -2.5684 C.3     1  UNL1       -0.0439
     20 C           1.5326    1.2437   -2.6420 C.3     1  UNL1       -0.0394
     21 C           1.2738    1.8558   -1.3031 C.3     1  UNL1       -0.0439
     22 C           2.2892    1.2919   -0.3268 C.3     1  UNL1       -0.0023
     23 C           3.6718    1.6255   -0.8035 C.3     1  UNL1       -0.0328
     24 C           3.9160    0.9437   -2.1445 C.3     1  UNL1        0.0477
     25 C           5.3097    1.2157   -2.5492 C.2     1  UNL1        0.2167
     26 N           6.4184    0.8198   -1.7691 N.am    1  UNL1       -0.3289
     27 O           5.5242    1.8224   -3.6277 O.2     1  UNL1       -0.2754
     28 C           2.9403    1.5073   -3.1261 C.3     1  UNL1       -0.0362
     29 C           3.7147   -0.5380   -2.0491 C.3     1  UNL1       -0.0328
     30 C          -1.8426   -1.2769    1.2831 C.3     1  UNL1        0.0362
     31 H          -5.5331    2.8226    1.3724 H       1  UNL1        0.0632
     32 H          -7.7988    2.0315    0.7155 H       1  UNL1        0.0633
     33 H          -8.2640   -0.3616    0.7325 H       1  UNL1        0.0830
     34 H          -4.5850   -2.5276    2.0667 H       1  UNL1        0.1478
     35 H          -2.5436   -0.7450    3.2572 H       1  UNL1        0.0514
     36 H          -2.7731   -3.0330    3.8929 H       1  UNL1        0.0299
     37 H          -2.3772   -3.5273    2.1467 H       1  UNL1        0.0299
     38 H          -0.7382   -1.7680    3.9681 H       1  UNL1        0.0466
     39 H          -0.1682   -3.3351    3.1609 H       1  UNL1        0.0466
     40 H           2.8977   -0.5974    0.4313 H       1  UNL1        0.0740
     41 H           2.1745   -1.9181   -1.4766 H       1  UNL1        0.0337
     42 H           1.4755   -0.7239   -3.5673 H       1  UNL1        0.0272
     43 H           0.2800   -0.4301   -2.1889 H       1  UNL1        0.0272
     44 H           0.8474    1.7242   -3.3814 H       1  UNL1        0.0301
     45 H           0.2654    1.5169   -0.9685 H       1  UNL1        0.0272
     46 H           1.2666    2.9512   -1.2939 H       1  UNL1        0.0272
     47 H           2.1336    1.7707    0.6503 H       1  UNL1        0.0337
     48 H           4.3908    1.2639   -0.0458 H       1  UNL1        0.0279
     49 H           3.8245    2.7039   -0.9648 H       1  UNL1        0.0279
     50 H           7.1860    0.2948   -2.2135 H       1  UNL1        0.1449
     51 H           6.4538    1.0543   -0.7735 H       1  UNL1        0.1449
     52 H           3.0247    1.0519   -4.1321 H       1  UNL1        0.0278
     53 H           3.0940    2.6178   -3.2009 H       1  UNL1        0.0278
     54 H           4.4092   -0.9746   -1.2998 H       1  UNL1        0.0279
     55 H           3.8649   -0.9618   -3.0616 H       1  UNL1        0.0279
     56 H          -2.0333   -2.1359    0.5652 H       1  UNL1        0.0484
     57 H          -1.7821   -0.3469    0.7552 H       1  UNL1        0.0484
@<TRIPOS>BOND
     1     1     2    3
     2     2     3    1
     3     3     4   ar
     4     4     5   ar
     5     5     6   ar
     6     6     7   ar
     7     7     8   ar
     8     8     9    1
     9     9    10    1
    10    10    11    1
    11    11    12    1
    12    12    13    1
    13    13    14   am
    14    14    15    2
    15    14    16    1
    16    16    17    1
    17    17    18    1
    18    18    19    1
    19    19    20    1
    20    20    21    1
    21    21    22    1
    22    22    23    1
    23    23    24    1
    24    24    25    1
    25    25    26   am
    26    25    27    2
    27    24    28    1
    28    24    29    1
    29    13    30    1
    30     8     3   ar
    31    30    10    1
    32    22    17    1
    33    29    18    1
    34    28    20    1
    35     4    31    1
    36     5    32    1
    37     6    33    1
    38     9    34    1
    39    10    35    1
    40    11    36    1
    41    11    37    1
    42    12    38    1
    43    12    39    1
    44    17    40    1
    45    18    41    1
    46    19    42    1
    47    19    43    1
    48    20    44    1
    49    21    45    1
    50    21    46    1
    51    22    47    1
    52    23    48    1
    53    23    49    1
    54    26    50    1
    55    26    51    1
    56    28    52    1
    57    28    53    1
    58    29    54    1
    59    29    55    1
    60    30    56    1
    61    30    57    1
