
     RDKit          3D

 57 61  0  0  0  0  0  0  0  0999 V2000
   -2.4990    1.7444    2.4378 N   0  0  0  0  0  0  0  0  0  0  0  0
   -3.5101    1.3323    2.1193 C   0  0  0  0  0  0  0  0  0  0  0  0
   -4.7791    0.8128    1.7450 C   0  0  0  0  0  0  0  0  0  0  0  0
   -5.7524    1.7608    1.3755 C   0  0  0  0  0  0  0  0  0  0  0  0
   -6.9974    1.3524    1.0128 C   0  0  0  0  0  0  0  0  0  0  0  0
   -7.2701    0.0190    1.0179 C   0  0  0  0  0  0  0  0  0  0  0  0
   -6.3258   -0.8561    1.3733 N   0  0  0  0  0  0  0  0  0  0  0  0
   -5.0600   -0.5108    1.7464 C   0  0  0  0  0  0  0  0  0  0  0  0
   -4.1718   -1.5281    2.0800 N   0  0  0  0  0  0  0  0  0  0  0  0
   -2.7986   -1.3901    2.4324 C   0  0  1  0  0  0  0  0  0  0  0  0
   -2.2819   -2.7930    2.9531 C   0  0  0  0  0  0  0  0  0  0  0  0
   -0.8134   -2.4366    3.0864 C   0  0  0  0  0  0  0  0  0  0  0  0
   -0.5631   -1.6554    1.9055 N   0  0  0  0  0  0  0  0  0  0  0  0
    0.7301   -1.3131    1.4326 C   0  0  0  0  0  0  0  0  0  0  0  0
    1.7818   -1.6614    2.0072 O   0  0  0  0  0  0  0  0  0  0  0  0
    0.8542   -0.5541    0.2754 O   0  0  0  0  0  0  0  0  0  0  0  0
    2.1243   -0.1887   -0.2325 C   0  0  1  0  0  0  0  0  0  0  0  0
    2.2937   -0.8180   -1.5982 C   0  0  0  0  0  0  0  0  0  0  0  0
    1.2985   -0.2445   -2.5684 C   0  0  0  0  0  0  0  0  0  0  0  0
    1.5326    1.2437   -2.6420 C   0  0  0  0  0  0  0  0  0  0  0  0
    1.2738    1.8558   -1.3031 C   0  0  0  0  0  0  0  0  0  0  0  0
    2.2892    1.2919   -0.3268 C   0  0  0  0  0  0  0  0  0  0  0  0
    3.6718    1.6255   -0.8035 C   0  0  0  0  0  0  0  0  0  0  0  0
    3.9160    0.9437   -2.1445 C   0  0  2  0  0  0  0  0  0  0  0  0
    5.3097    1.2157   -2.5492 C   0  0  0  0  0  0  0  0  0  0  0  0
    6.4184    0.8198   -1.7691 N   0  0  0  0  0  0  0  0  0  0  0  0
    5.5242    1.8224   -3.6277 O   0  0  0  0  0  0  0  0  0  0  0  0
    2.9403    1.5073   -3.1261 C   0  0  0  0  0  0  0  0  0  0  0  0
    3.7147   -0.5380   -2.0491 C   0  0  0  0  0  0  0  0  0  0  0  0
   -1.8426   -1.2769    1.2831 C   0  0  0  0  0  0  0  0  0  0  0  0
   -5.5331    2.8226    1.3724 H   0  0  0  0  0  0  0  0  0  0  0  0
   -7.7988    2.0315    0.7155 H   0  0  0  0  0  0  0  0  0  0  0  0
   -8.2640   -0.3616    0.7325 H   0  0  0  0  0  0  0  0  0  0  0  0
   -4.5850   -2.5276    2.0667 H   0  0  0  0  0  0  0  0  0  0  0  0
   -2.5436   -0.7450    3.2572 H   0  0  0  0  0  0  0  0  0  0  0  0
   -2.7731   -3.0330    3.8929 H   0  0  0  0  0  0  0  0  0  0  0  0
   -2.3772   -3.5273    2.1467 H   0  0  0  0  0  0  0  0  0  0  0  0
   -0.7382   -1.7680    3.9681 H   0  0  0  0  0  0  0  0  0  0  0  0
   -0.1682   -3.3351    3.1609 H   0  0  0  0  0  0  0  0  0  0  0  0
    2.8977   -0.5974    0.4313 H   0  0  0  0  0  0  0  0  0  0  0  0
    2.1745   -1.9181   -1.4766 H   0  0  0  0  0  0  0  0  0  0  0  0
    1.4755   -0.7239   -3.5673 H   0  0  0  0  0  0  0  0  0  0  0  0
    0.2800   -0.4301   -2.1889 H   0  0  0  0  0  0  0  0  0  0  0  0
    0.8474    1.7242   -3.3814 H   0  0  0  0  0  0  0  0  0  0  0  0
    0.2654    1.5169   -0.9685 H   0  0  0  0  0  0  0  0  0  0  0  0
    1.2666    2.9512   -1.2939 H   0  0  0  0  0  0  0  0  0  0  0  0
    2.1336    1.7707    0.6503 H   0  0  0  0  0  0  0  0  0  0  0  0
    4.3908    1.2639   -0.0458 H   0  0  0  0  0  0  0  0  0  0  0  0
    3.8245    2.7039   -0.9648 H   0  0  0  0  0  0  0  0  0  0  0  0
    7.1860    0.2948   -2.2135 H   0  0  0  0  0  0  0  0  0  0  0  0
    6.4538    1.0543   -0.7735 H   0  0  0  0  0  0  0  0  0  0  0  0
    3.0247    1.0519   -4.1321 H   0  0  0  0  0  0  0  0  0  0  0  0
    3.0940    2.6178   -3.2009 H   0  0  0  0  0  0  0  0  0  0  0  0
    4.4092   -0.9746   -1.2998 H   0  0  0  0  0  0  0  0  0  0  0  0
    3.8649   -0.9618   -3.0616 H   0  0  0  0  0  0  0  0  0  0  0  0
   -2.0333   -2.1359    0.5652 H   0  0  0  0  0  0  0  0  0  0  0  0
   -1.7821   -0.3469    0.7552 H   0  0  0  0  0  0  0  0  0  0  0  0
  1  2  3  0
  2  3  1  0
  3  4  2  0
  4  5  1  0
  5  6  2  0
  6  7  1  0
  7  8  2  0
  8  9  1  0
  9 10  1  0
 10 11  1  0
 11 12  1  0
 12 13  1  0
 13 14  1  0
 14 15  2  0
 14 16  1  0
 16 17  1  0
 17 18  1  0
 18 19  1  0
 19 20  1  0
 20 21  1  0
 21 22  1  0
 22 23  1  0
 23 24  1  0
 24 25  1  6
 25 26  1  0
 25 27  2  0
 24 28  1  0
 24 29  1  0
 13 30  1  0
  8  3  1  0
 30 10  1  0
 22 17  1  0
 29 18  1  0
 28 20  1  0
  4 31  1  0
  5 32  1  0
  6 33  1  0
  9 34  1  0
 10 35  1  1
 11 36  1  0
 11 37  1  0
 12 38  1  0
 12 39  1  0
 17 40  1  1
 18 41  1  0
 19 42  1  0
 19 43  1  0
 20 44  1  0
 21 45  1  0
 21 46  1  0
 22 47  1  0
 23 48  1  0
 23 49  1  0
 26 50  1  0
 26 51  1  0
 28 52  1  0
 28 53  1  0
 29 54  1  0
 29 55  1  0
 30 56  1  0
 30 57  1  0
M  END
$$$$
