
     RDKit          3D

 75 76  0  0  0  0  0  0  0  0999 V2000
    4.1944   -0.7194   -0.9229 C   0  0  0  0  0  0  0  0  0  0  0  0
    3.3339   -0.5728    0.0721 C   0  0  0  0  0  0  0  0  0  0  0  0
    3.8704   -0.6899    1.4682 C   0  0  0  0  0  0  0  0  0  0  0  0
    1.9057   -0.3091   -0.1677 C   0  0  2  0  0  0  0  0  0  0  0  0
    1.4229    0.9814    0.4376 C   0  0  0  0  0  0  0  0  0  0  0  0
    2.0000    2.2300   -0.0009 C   0  0  0  0  0  0  0  0  0  0  0  0
    1.1201    3.0341   -0.6533 C   0  0  0  0  0  0  0  0  0  0  0  0
    1.6641    4.3372   -1.1164 C   0  0  0  0  0  0  0  0  0  0  0  0
   -0.2760    2.7685   -1.0405 C   0  0  0  0  0  0  0  0  0  0  0  0
   -1.3310    3.6285   -0.4452 C   0  0  0  0  0  0  0  0  0  0  0  0
   -2.6778    3.2796   -1.0162 C   0  0  0  0  0  0  0  0  0  0  0  0
   -3.0885    1.8255   -0.9474 C   0  0  2  0  0  0  0  0  0  0  0  0
   -4.4634    1.8556   -1.6677 C   0  0  0  0  0  0  0  0  0  0  0  0
   -3.2221    1.3594    0.4201 C   0  0  2  0  0  0  0  0  0  0  0  0
   -2.0664    1.6313    1.1935 O   0  0  0  0  0  0  0  0  0  0  0  0
   -3.6622   -0.0272    0.7413 C   0  0  1  0  0  0  0  0  0  0  0  0
   -5.1466   -0.2508    0.4537 C   0  0  0  0  0  0  0  0  0  0  0  0
   -2.9767   -1.1125   -0.0393 C   0  0  0  0  0  0  0  0  0  0  0  0
   -2.4685   -0.8709   -1.1127 O   0  0  0  0  0  0  0  0  0  0  0  0
   -2.8890   -2.5044    0.4494 C   0  0  0  0  0  0  0  0  0  0  0  0
   -4.1731   -3.0234    1.0804 C   0  0  0  0  0  0  0  0  0  0  0  0
   -2.7662   -3.4488   -0.8010 C   0  0  0  0  0  0  0  0  0  0  0  0
   -1.7420   -2.8594    1.3168 C   0  0  1  0  0  0  0  0  0  0  0  0
   -2.1310   -4.1452    1.8802 O   0  0  0  0  0  0  0  0  0  0  0  0
   -0.4310   -3.1611    0.6759 C   0  0  0  0  0  0  0  0  0  0  0  0
    0.2782   -2.1800   -0.1141 C   0  0  0  0  0  0  0  0  0  0  0  0
    0.3187   -1.8822   -1.3312 O   0  0  0  0  0  0  0  0  0  0  0  0
    1.1371   -1.3206    0.4918 O   0  0  0  0  0  0  0  0  0  0  0  0
    5.6272   -0.9865   -0.7897 C   0  0  0  0  0  0  0  0  0  0  0  0
    6.3586   -1.8235   -1.6544 C   0  0  0  0  0  0  0  0  0  0  0  0
    8.0750   -1.7081   -0.9147 S   0  0  0  0  0  0  0  0  0  0  0  0
    7.4445   -0.5370    0.4297 C   0  0  0  0  0  0  0  0  0  0  0  0
    8.4243   -0.0355    1.4323 C   0  0  0  0  0  0  0  0  0  0  0  0
    6.2755   -0.3982    0.2152 N   0  0  0  0  0  0  0  0  0  0  0  0
    3.7715   -0.6278   -1.9156 H   0  0  0  0  0  0  0  0  0  0  0  0
    3.0678   -0.7203    2.2158 H   0  0  0  0  0  0  0  0  0  0  0  0
    4.4658    0.2502    1.6309 H   0  0  0  0  0  0  0  0  0  0  0  0
    4.5819   -1.5341    1.5524 H   0  0  0  0  0  0  0  0  0  0  0  0
    1.7315   -0.3551   -1.2575 H   0  0  0  0  0  0  0  0  0  0  0  0
    0.3273    0.9815    0.5784 H   0  0  0  0  0  0  0  0  0  0  0  0
    1.7755    0.8805    1.5323 H   0  0  0  0  0  0  0  0  0  0  0  0
    3.0010    2.5498    0.1392 H   0  0  0  0  0  0  0  0  0  0  0  0
    1.5656    5.0688   -0.2871 H   0  0  0  0  0  0  0  0  0  0  0  0
    1.1650    4.7131   -2.0324 H   0  0  0  0  0  0  0  0  0  0  0  0
    2.7466    4.2356   -1.3303 H   0  0  0  0  0  0  0  0  0  0  0  0
   -0.2944    3.0247   -2.1573 H   0  0  0  0  0  0  0  0  0  0  0  0
   -0.5363    1.7138   -1.0393 H   0  0  0  0  0  0  0  0  0  0  0  0
   -1.3958    3.6480    0.6433 H   0  0  0  0  0  0  0  0  0  0  0  0
   -1.1516    4.7257   -0.7146 H   0  0  0  0  0  0  0  0  0  0  0  0
   -2.7455    3.5880   -2.1070 H   0  0  0  0  0  0  0  0  0  0  0  0
   -3.4989    3.8582   -0.5288 H   0  0  0  0  0  0  0  0  0  0  0  0
   -2.3603    1.3081   -1.6125 H   0  0  0  0  0  0  0  0  0  0  0  0
   -4.8832    0.8941   -1.8620 H   0  0  0  0  0  0  0  0  0  0  0  0
   -4.3559    2.4587   -2.6064 H   0  0  0  0  0  0  0  0  0  0  0  0
   -5.1197    2.4590   -1.0242 H   0  0  0  0  0  0  0  0  0  0  0  0
   -3.9981    2.0279    0.9212 H   0  0  0  0  0  0  0  0  0  0  0  0
   -2.1547    1.1987    2.0746 H   0  0  0  0  0  0  0  0  0  0  0  0
   -3.4948   -0.2217    1.8064 H   0  0  0  0  0  0  0  0  0  0  0  0
   -5.6260   -0.7695    1.3327 H   0  0  0  0  0  0  0  0  0  0  0  0
   -5.7193    0.6873    0.3543 H   0  0  0  0  0  0  0  0  0  0  0  0
   -5.3214   -0.8651   -0.4436 H   0  0  0  0  0  0  0  0  0  0  0  0
   -3.9417   -4.1230    1.2586 H   0  0  0  0  0  0  0  0  0  0  0  0
   -4.3701   -2.6346    2.0804 H   0  0  0  0  0  0  0  0  0  0  0  0
   -5.0170   -3.0488    0.3814 H   0  0  0  0  0  0  0  0  0  0  0  0
   -3.8047   -3.5234   -1.2186 H   0  0  0  0  0  0  0  0  0  0  0  0
   -2.1563   -2.9726   -1.5632 H   0  0  0  0  0  0  0  0  0  0  0  0
   -2.4538   -4.4320   -0.4720 H   0  0  0  0  0  0  0  0  0  0  0  0
   -1.6440   -2.1872    2.1692 H   0  0  0  0  0  0  0  0  0  0  0  0
   -1.7164   -4.8573    1.3651 H   0  0  0  0  0  0  0  0  0  0  0  0
   -0.5063   -4.0918    0.0201 H   0  0  0  0  0  0  0  0  0  0  0  0
    0.2277   -3.5607    1.5267 H   0  0  0  0  0  0  0  0  0  0  0  0
    5.8522   -2.3343   -2.5075 H   0  0  0  0  0  0  0  0  0  0  0  0
    9.3927   -0.5910    1.3827 H   0  0  0  0  0  0  0  0  0  0  0  0
    8.6653    1.0275    1.2599 H   0  0  0  0  0  0  0  0  0  0  0  0
    7.9900   -0.2135    2.4316 H   0  0  0  0  0  0  0  0  0  0  0  0
  1  2  2  0
  2  3  1  0
  2  4  1  0
  4  5  1  0
  5  6  1  0
  6  7  2  0
  7  8  1  0
  7  9  1  0
  9 10  1  0
 10 11  1  0
 11 12  1  0
 12 13  1  0
 12 14  1  0
 14 15  1  0
 14 16  1  0
 16 17  1  0
 16 18  1  0
 18 19  2  0
 18 20  1  0
 20 21  1  0
 20 22  1  0
 20 23  1  0
 23 24  1  0
 23 25  1  0
 25 26  1  0
 26 27  2  0
 26 28  1  0
  1 29  1  0
 29 30  2  0
 30 31  1  0
 31 32  1  0
 32 33  1  0
 32 34  2  0
 28  4  1  0
 34 29  1  0
  1 35  1  0
  3 36  1  0
  3 37  1  0
  3 38  1  0
  4 39  1  6
  5 40  1  0
  5 41  1  0
  6 42  1  0
  8 43  1  0
  8 44  1  0
  8 45  1  0
  9 46  1  0
  9 47  1  0
 10 48  1  0
 10 49  1  0
 11 50  1  0
 11 51  1  0
 12 52  1  6
 13 53  1  0
 13 54  1  0
 13 55  1  0
 14 56  1  1
 15 57  1  0
 16 58  1  1
 17 59  1  0
 17 60  1  0
 17 61  1  0
 21 62  1  0
 21 63  1  0
 21 64  1  0
 22 65  1  0
 22 66  1  0
 22 67  1  0
 23 68  1  1
 24 69  1  0
 25 70  1  0
 25 71  1  0
 30 72  1  0
 33 73  1  0
 33 74  1  0
 33 75  1  0
M  END
$$$$
