
     RDKit          3D

 45 48  0  0  0  0  0  0  0  0999 V2000
    7.0453    1.3814   -2.7744 O   0  0  0  0  0  0  0  0  0  0  0  0
    7.3252    1.0474   -1.6122 C   0  0  0  0  0  0  0  0  0  0  0  0
    8.5902    1.2238   -1.0737 N   0  0  0  0  0  0  0  0  0  0  0  0
    9.6044    1.7722   -1.7804 O   0  0  0  0  0  0  0  0  0  0  0  0
    6.2715    0.4418   -0.7777 C   0  0  0  0  0  0  0  0  0  0  0  0
    6.2913   -0.0210    0.5326 C   0  0  0  0  0  0  0  0  0  0  0  0
    5.1480   -0.5266    1.0144 C   0  0  0  0  0  0  0  0  0  0  0  0
    4.0572   -0.5695    0.2448 C   0  0  0  0  0  0  0  0  0  0  0  0
    2.7032   -1.0687    0.5368 C   0  0  0  0  0  0  0  0  0  0  0  0
    2.3254   -1.6042    1.7257 C   0  0  0  0  0  0  0  0  0  0  0  0
    0.9890   -1.9589    1.6278 C   0  0  0  0  0  0  0  0  0  0  0  0
    0.6049   -1.6236    0.3772 N   0  0  0  0  0  0  0  0  0  0  0  0
   -0.6848   -1.7830   -0.2262 C   0  0  0  0  0  0  0  0  0  0  0  0
   -1.5643   -0.5878   -0.0181 C   0  0  0  0  0  0  0  0  0  0  0  0
   -1.8014   -0.3126    1.3873 N   0  0  0  0  0  0  0  0  0  0  0  0
   -2.6483    0.8398    1.5391 C   0  0  0  0  0  0  0  0  0  0  0  0
   -3.9699    0.6929    0.9083 C   0  0  0  0  0  0  0  0  0  0  0  0
   -5.0756    0.1782    1.5640 C   0  0  0  0  0  0  0  0  0  0  0  0
   -6.2807    0.0714    0.9068 C   0  0  0  0  0  0  0  0  0  0  0  0
   -6.4564    0.4560   -0.3977 C   0  0  0  0  0  0  0  0  0  0  0  0
   -5.3545    0.9729   -1.0634 C   0  0  0  0  0  0  0  0  0  0  0  0
   -4.1474    1.0797   -0.4045 C   0  0  0  0  0  0  0  0  0  0  0  0
   -5.7950    1.2776   -2.3422 O   0  0  0  0  0  0  0  0  0  0  0  0
   -7.2276    1.3148   -2.3605 C   0  0  0  0  0  0  0  0  0  0  0  0
   -7.5478    0.4554   -1.2833 O   0  0  0  0  0  0  0  0  0  0  0  0
    1.6535   -1.0874   -0.2670 N   0  0  0  0  0  0  0  0  0  0  0  0
    4.5781    0.1180   -1.2531 S   0  0  0  0  0  0  0  0  0  0  0  0
    8.8440    0.9423   -0.0794 H   0  0  0  0  0  0  0  0  0  0  0  0
    9.9623    1.1770   -2.4702 H   0  0  0  0  0  0  0  0  0  0  0  0
    7.2364    0.0344    1.1487 H   0  0  0  0  0  0  0  0  0  0  0  0
    5.0852   -0.9223    2.0695 H   0  0  0  0  0  0  0  0  0  0  0  0
    2.8918   -1.7605    2.6246 H   0  0  0  0  0  0  0  0  0  0  0  0
    0.3209   -2.4105    2.3458 H   0  0  0  0  0  0  0  0  0  0  0  0
   -1.1793   -2.7201    0.1565 H   0  0  0  0  0  0  0  0  0  0  0  0
   -0.5556   -1.9201   -1.3169 H   0  0  0  0  0  0  0  0  0  0  0  0
   -2.5627   -0.8376   -0.4588 H   0  0  0  0  0  0  0  0  0  0  0  0
   -1.1122    0.2745   -0.5057 H   0  0  0  0  0  0  0  0  0  0  0  0
   -2.1737   -1.1330    1.8918 H   0  0  0  0  0  0  0  0  0  0  0  0
   -2.7063    1.1317    2.6054 H   0  0  0  0  0  0  0  0  0  0  0  0
   -2.1271    1.6903    1.0269 H   0  0  0  0  0  0  0  0  0  0  0  0
   -4.9422   -0.1247    2.5878 H   0  0  0  0  0  0  0  0  0  0  0  0
   -7.1395   -0.3331    1.4306 H   0  0  0  0  0  0  0  0  0  0  0  0
   -3.2917    1.4884   -0.9435 H   0  0  0  0  0  0  0  0  0  0  0  0
   -7.5889    2.3387   -2.2208 H   0  0  0  0  0  0  0  0  0  0  0  0
   -7.5946    0.9044   -3.3091 H   0  0  0  0  0  0  0  0  0  0  0  0
  1  2  2  0
  2  3  1  0
  3  4  1  0
  2  5  1  0
  5  6  2  0
  6  7  1  0
  7  8  2  0
  8  9  1  0
  9 10  1  0
 10 11  2  0
 11 12  1  0
 12 13  1  0
 13 14  1  0
 14 15  1  0
 15 16  1  0
 16 17  1  0
 17 18  2  0
 18 19  1  0
 19 20  2  0
 20 21  1  0
 21 22  2  0
 21 23  1  0
 23 24  1  0
 24 25  1  0
 12 26  1  0
  8 27  1  0
 27  5  1  0
 26  9  2  0
 22 17  1  0
 25 20  1  0
  3 28  1  0
  4 29  1  0
  6 30  1  0
  7 31  1  0
 10 32  1  0
 11 33  1  0
 13 34  1  0
 13 35  1  0
 14 36  1  0
 14 37  1  0
 15 38  1  0
 16 39  1  0
 16 40  1  0
 18 41  1  0
 19 42  1  0
 22 43  1  0
 24 44  1  0
 24 45  1  0
M  END
$$$$
