@<TRIPOS>MOLECULE
*****
 45 48 0 0 0
SMALL
GASTEIGER

@<TRIPOS>ATOM
      1 O           7.0453    1.3814   -2.7744 O.2     1  UNL1       -0.2675
      2 C           7.3252    1.0474   -1.6122 C.2     1  UNL1        0.2731
      3 N           8.5902    1.2238   -1.0737 N.am    1  UNL1       -0.1930
      4 O           9.6044    1.7722   -1.7804 O.3     1  UNL1       -0.2949
      5 C           6.2715    0.4418   -0.7777 C.ar    1  UNL1        0.0764
      6 C           6.2913   -0.0210    0.5326 C.ar    1  UNL1       -0.0418
      7 C           5.1480   -0.5266    1.0144 C.ar    1  UNL1       -0.0447
      8 C           4.0572   -0.5695    0.2448 C.ar    1  UNL1        0.0400
      9 C           2.7032   -1.0687    0.5368 C.ar    1  UNL1        0.0993
     10 C           2.3254   -1.6042    1.7257 C.ar    1  UNL1       -0.0158
     11 C           0.9890   -1.9589    1.6278 C.ar    1  UNL1        0.0261
     12 N           0.6049   -1.6236    0.3772 N.ar    1  UNL1       -0.2696
     13 C          -0.6848   -1.7830   -0.2262 C.3     1  UNL1        0.0540
     14 C          -1.5643   -0.5878   -0.0181 C.3     1  UNL1        0.0158
     15 N          -1.8014   -0.3126    1.3873 N.3     1  UNL1       -0.3103
     16 C          -2.6483    0.8398    1.5391 C.3     1  UNL1        0.0214
     17 C          -3.9699    0.6929    0.9083 C.ar    1  UNL1       -0.0299
     18 C          -5.0756    0.1782    1.5640 C.ar    1  UNL1       -0.0537
     19 C          -6.2807    0.0714    0.9068 C.ar    1  UNL1       -0.0158
     20 C          -6.4564    0.4560   -0.3977 C.ar    1  UNL1        0.1662
     21 C          -5.3545    0.9729   -1.0634 C.ar    1  UNL1        0.1665
     22 C          -4.1474    1.0797   -0.4045 C.ar    1  UNL1       -0.0117
     23 O          -5.7950    1.2776   -2.3422 O.3     1  UNL1       -0.4526
     24 C          -7.2276    1.3148   -2.3605 C.3     1  UNL1        0.2332
     25 O          -7.5478    0.4554   -1.2833 O.3     1  UNL1       -0.4526
     26 N           1.6535   -1.0874   -0.2670 N.ar    1  UNL1       -0.1707
     27 S           4.5781    0.1180   -1.2531 S.2     1  UNL1       -0.0820
     28 H           8.8440    0.9423   -0.0794 H       1  UNL1        0.1825
     29 H           9.9623    1.1770   -2.4702 H       1  UNL1        0.2414
     30 H           7.2364    0.0344    1.1487 H       1  UNL1        0.0631
     31 H           5.0852   -0.9223    2.0695 H       1  UNL1        0.0630
     32 H           2.8918   -1.7605    2.6246 H       1  UNL1        0.0655
     33 H           0.3209   -2.4105    2.3458 H       1  UNL1        0.0826
     34 H          -1.1793   -2.7201    0.1565 H       1  UNL1        0.0521
     35 H          -0.5556   -1.9201   -1.3169 H       1  UNL1        0.0521
     36 H          -2.5627   -0.8376   -0.4588 H       1  UNL1        0.0442
     37 H          -1.1122    0.2745   -0.5057 H       1  UNL1        0.0442
     38 H          -2.1737   -1.1330    1.8918 H       1  UNL1        0.1223
     39 H          -2.7063    1.1317    2.6054 H       1  UNL1        0.0473
     40 H          -2.1271    1.6903    1.0269 H       1  UNL1        0.0473
     41 H          -4.9422   -0.1247    2.5878 H       1  UNL1        0.0622
     42 H          -7.1395   -0.3331    1.4306 H       1  UNL1        0.0655
     43 H          -3.2917    1.4884   -0.9435 H       1  UNL1        0.0658
     44 H          -7.5889    2.3387   -2.2208 H       1  UNL1        0.1166
     45 H          -7.5946    0.9044   -3.3091 H       1  UNL1        0.1166
@<TRIPOS>BOND
     1     1     2    2
     2     2     3   am
     3     3     4    1
     4     2     5    1
     5     5     6   ar
     6     6     7   ar
     7     7     8   ar
     8     8     9    1
     9     9    10   ar
    10    10    11   ar
    11    11    12   ar
    12    12    13    1
    13    13    14    1
    14    14    15    1
    15    15    16    1
    16    16    17    1
    17    17    18   ar
    18    18    19   ar
    19    19    20   ar
    20    20    21   ar
    21    21    22   ar
    22    21    23    1
    23    23    24    1
    24    24    25    1
    25    12    26   ar
    26     8    27   ar
    27    27     5   ar
    28    26     9   ar
    29    22    17   ar
    30    25    20    1
    31     3    28    1
    32     4    29    1
    33     6    30    1
    34     7    31    1
    35    10    32    1
    36    11    33    1
    37    13    34    1
    38    13    35    1
    39    14    36    1
    40    14    37    1
    41    15    38    1
    42    16    39    1
    43    16    40    1
    44    18    41    1
    45    19    42    1
    46    22    43    1
    47    24    44    1
    48    24    45    1
