@<TRIPOS>MOLECULE
*****
 40 43 0 0 0
SMALL
GASTEIGER

@<TRIPOS>ATOM
      1 C           7.2846   -0.4278    0.8400 C.3     1  UNL1        0.0004
      2 N           5.9641   -0.0666    0.2946 N.am    1  UNL1       -0.3144
      3 C           4.7826   -0.6383    0.7889 C.2     1  UNL1        0.2439
      4 O           4.8965   -1.4809    1.7266 O.2     1  UNL1       -0.2702
      5 C           3.4591   -0.3126    0.2820 C.ar    1  UNL1        0.0373
      6 C           3.2258    0.5701   -0.7505 C.ar    1  UNL1       -0.0490
      7 C           1.9665    0.8634   -1.2112 C.ar    1  UNL1       -0.0533
      8 C           0.8958    0.2450   -0.6102 C.ar    1  UNL1       -0.0175
      9 C          -0.3918    0.5230   -1.0545 C.ar    1  UNL1       -0.0477
     10 C          -1.4747   -0.0873   -0.4632 C.ar    1  UNL1       -0.0096
     11 C          -2.8230    0.2257   -0.9533 C.3     1  UNL1        0.1337
     12 O          -2.6954    0.9750   -2.1393 O.3     1  UNL1       -0.3777
     13 C          -3.6038   -1.0268   -1.3170 C.3     1  UNL1        0.0039
     14 C          -5.0300   -0.4655   -1.2784 C.3     1  UNL1        0.0278
     15 N          -4.9456    0.4744   -0.1759 N.ar    1  UNL1       -0.3312
     16 C          -5.7718    1.0730    0.7264 C.ar    1  UNL1        0.0962
     17 N          -4.9674    1.8595    1.4866 N.ar    1  UNL1       -0.2437
     18 C          -3.7008    1.7650    1.0886 C.ar    1  UNL1        0.0518
     19 C          -3.6851    0.8784    0.0238 C.ar    1  UNL1        0.0745
     20 C          -1.3277   -0.9926    0.5867 C.ar    1  UNL1       -0.0549
     21 C          -0.0519   -1.2539    1.0109 C.ar    1  UNL1       -0.0537
     22 C           1.0681   -0.6578    0.4397 C.ar    1  UNL1       -0.0171
     23 C           2.3481   -0.9202    0.8665 C.ar    1  UNL1       -0.0419
     24 H           7.8501    0.5195    0.9443 H       1  UNL1        0.0426
     25 H           7.7758   -1.0909    0.1253 H       1  UNL1        0.0426
     26 H           7.1868   -0.8618    1.8471 H       1  UNL1        0.0426
     27 H           5.9142    0.6316   -0.4766 H       1  UNL1        0.1487
     28 H           4.0824    1.0441   -1.2079 H       1  UNL1        0.0625
     29 H           1.8108    1.5584   -2.0215 H       1  UNL1        0.0624
     30 H          -0.4857    1.2392   -1.8820 H       1  UNL1        0.0627
     31 H          -2.4685    1.9094   -1.8494 H       1  UNL1        0.2111
     32 H          -3.4801   -1.8082   -0.5668 H       1  UNL1        0.0317
     33 H          -3.3172   -1.3148   -2.3455 H       1  UNL1        0.0317
     34 H          -5.7734   -1.2506   -1.1392 H       1  UNL1        0.0493
     35 H          -5.1756    0.0838   -2.2368 H       1  UNL1        0.0493
     36 H          -6.8423    0.9375    0.8049 H       1  UNL1        0.1029
     37 H          -2.8695    2.2841    1.5218 H       1  UNL1        0.0849
     38 H          -2.2241   -1.4316    1.0012 H       1  UNL1        0.0621
     39 H           0.1116   -1.9413    1.8133 H       1  UNL1        0.0624
     40 H           2.4828   -1.6307    1.6934 H       1  UNL1        0.0631
@<TRIPOS>BOND
     1     1     2    1
     2     2     3   am
     3     3     4    2
     4     3     5    1
     5     5     6   ar
     6     6     7   ar
     7     7     8   ar
     8     8     9   ar
     9     9    10   ar
    10    10    11    1
    11    11    12    1
    12    11    13    1
    13    13    14    1
    14    14    15    1
    15    15    16   ar
    16    16    17   ar
    17    17    18   ar
    18    18    19   ar
    19    10    20   ar
    20    20    21   ar
    21    21    22   ar
    22    22    23   ar
    23    23     5   ar
    24    22     8   ar
    25    19    11    1
    26    19    15   ar
    27     1    24    1
    28     1    25    1
    29     1    26    1
    30     2    27    1
    31     6    28    1
    32     7    29    1
    33     9    30    1
    34    12    31    1
    35    13    32    1
    36    13    33    1
    37    14    34    1
    38    14    35    1
    39    16    36    1
    40    18    37    1
    41    20    38    1
    42    21    39    1
    43    23    40    1
