
     RDKit          3D

 53 57  0  0  0  0  0  0  0  0999 V2000
    6.5008   -0.4476   -0.5655 O   0  0  0  0  0  0  0  0  0  0  0  0
    6.1212   -0.1865    0.6041 C   0  0  0  0  0  0  0  0  0  0  0  0
    4.7475    0.0722    0.8441 N   0  0  0  0  0  0  0  0  0  0  0  0
    3.8457    0.0266   -0.2513 C   0  0  0  0  0  0  0  0  0  0  0  0
    4.1746   -0.2442   -1.5241 N   0  0  0  0  0  0  0  0  0  0  0  0
    3.0961   -0.2089   -2.3115 C   0  0  0  0  0  0  0  0  0  0  0  0
    2.9635   -0.4221   -3.6744 C   0  0  0  0  0  0  0  0  0  0  0  0
    1.7021   -0.3155   -4.2155 C   0  0  0  0  0  0  0  0  0  0  0  0
    0.6670   -0.0078   -3.3780 C   0  0  0  0  0  0  0  0  0  0  0  0
    0.8460    0.1951   -2.0321 C   0  0  0  0  0  0  0  0  0  0  0  0
   -0.2808    0.5260   -1.1437 C   0  0  0  0  0  0  0  0  0  0  0  0
   -1.2283    1.4664   -1.4875 C   0  0  0  0  0  0  0  0  0  0  0  0
   -2.2787    1.7626   -0.6391 C   0  0  0  0  0  0  0  0  0  0  0  0
   -2.4247    1.1356    0.5795 C   0  0  0  0  0  0  0  0  0  0  0  0
   -3.5530    1.4366    1.5155 C   0  0  0  0  0  0  0  0  0  0  0  0
   -4.6267    0.5352    1.1981 N   0  0  0  0  0  0  0  0  0  0  0  0
   -5.1315    0.6389   -0.1138 C   0  0  0  0  0  0  0  0  0  0  0  0
   -6.5549    0.1566   -0.2767 C   0  0  0  0  0  0  0  0  0  0  0  0
   -6.6139   -1.5366    0.2591 S   0  0  0  0  0  6  0  0  0  0  0  0
   -6.0029   -2.4094   -0.7777 O   0  0  0  0  0  0  0  0  0  0  0  0
   -8.0493   -1.8905    0.5155 O   0  0  0  0  0  0  0  0  0  0  0  0
   -5.6867   -1.5972    1.7984 C   0  0  0  0  0  0  0  0  0  0  0  0
   -4.4372   -0.7925    1.6919 C   0  0  0  0  0  0  0  0  0  0  0  0
   -1.4590    0.1856    0.9160 C   0  0  0  0  0  0  0  0  0  0  0  0
   -0.4165   -0.1075    0.0726 C   0  0  0  0  0  0  0  0  0  0  0  0
    2.0721    0.0924   -1.5010 N   0  0  0  0  0  0  0  0  0  0  0  0
    2.5094    0.2391   -0.2447 N   0  0  0  0  0  0  0  0  0  0  0  0
    7.1355   -0.1582    1.7025 C   0  0  0  0  0  0  0  0  0  0  0  0
    8.4552    0.5292    1.3578 C   0  0  0  0  0  0  0  0  0  0  0  0
    8.3839   -0.9545    1.5417 C   0  0  0  0  0  0  0  0  0  0  0  0
    4.4287    0.2911    1.8242 H   0  0  0  0  0  0  0  0  0  0  0  0
    3.8234   -0.6664   -4.3043 H   0  0  0  0  0  0  0  0  0  0  0  0
    1.5635   -0.4776   -5.2860 H   0  0  0  0  0  0  0  0  0  0  0  0
   -0.3262    0.0773   -3.7972 H   0  0  0  0  0  0  0  0  0  0  0  0
   -1.1607    1.9839   -2.4260 H   0  0  0  0  0  0  0  0  0  0  0  0
   -2.9855    2.5025   -0.9563 H   0  0  0  0  0  0  0  0  0  0  0  0
   -3.8748    2.4934    1.4181 H   0  0  0  0  0  0  0  0  0  0  0  0
   -3.1541    1.2918    2.5300 H   0  0  0  0  0  0  0  0  0  0  0  0
   -4.4993    0.1168   -0.8323 H   0  0  0  0  0  0  0  0  0  0  0  0
   -5.1742    1.7392   -0.3678 H   0  0  0  0  0  0  0  0  0  0  0  0
   -6.7584    0.1426   -1.3792 H   0  0  0  0  0  0  0  0  0  0  0  0
   -7.2624    0.8027    0.2743 H   0  0  0  0  0  0  0  0  0  0  0  0
   -6.3739   -1.2908    2.5946 H   0  0  0  0  0  0  0  0  0  0  0  0
   -5.4055   -2.6686    1.9332 H   0  0  0  0  0  0  0  0  0  0  0  0
   -3.7210   -1.3272    1.0486 H   0  0  0  0  0  0  0  0  0  0  0  0
   -4.0040   -0.7073    2.7185 H   0  0  0  0  0  0  0  0  0  0  0  0
   -1.5695   -0.3085    1.8705 H   0  0  0  0  0  0  0  0  0  0  0  0
    0.3446   -0.8473    0.3231 H   0  0  0  0  0  0  0  0  0  0  0  0
    6.7676    0.0746    2.7177 H   0  0  0  0  0  0  0  0  0  0  0  0
    8.9751    1.0942    2.1633 H   0  0  0  0  0  0  0  0  0  0  0  0
    8.5911    0.9348    0.3413 H   0  0  0  0  0  0  0  0  0  0  0  0
    8.5257   -1.5385    0.6101 H   0  0  0  0  0  0  0  0  0  0  0  0
    8.7733   -1.4318    2.4532 H   0  0  0  0  0  0  0  0  0  0  0  0
  1  2  2  0
  2  3  1  0
  3  4  1  0
  4  5  1  0
  5  6  2  0
  6  7  1  0
  7  8  2  0
  8  9  1  0
  9 10  2  0
 10 11  1  0
 11 12  2  0
 12 13  1  0
 13 14  2  0
 14 15  1  0
 15 16  1  0
 16 17  1  0
 17 18  1  0
 18 19  1  0
 19 20  2  0
 19 21  2  0
 19 22  1  0
 22 23  1  0
 14 24  1  0
 24 25  2  0
 10 26  1  0
 26 27  1  0
  2 28  1  0
 28 29  1  0
 29 30  1  0
 27  4  2  0
 30 28  1  0
 26  6  1  0
 25 11  1  0
 23 16  1  0
  3 31  1  0
  7 32  1  0
  8 33  1  0
  9 34  1  0
 12 35  1  0
 13 36  1  0
 15 37  1  0
 15 38  1  0
 17 39  1  0
 17 40  1  0
 18 41  1  0
 18 42  1  0
 22 43  1  0
 22 44  1  0
 23 45  1  0
 23 46  1  0
 24 47  1  0
 25 48  1  0
 28 49  1  0
 29 50  1  0
 29 51  1  0
 30 52  1  0
 30 53  1  0
M  END
$$$$
