@<TRIPOS>MOLECULE
*****
 53 57 0 0 0
SMALL
GASTEIGER

@<TRIPOS>ATOM
      1 O           6.5008   -0.4476   -0.5655 O.2     1  UNL1       -0.2751
      2 C           6.1212   -0.1865    0.6041 C.2     1  UNL1        0.2225
      3 N           4.7475    0.0722    0.8441 N.am    1  UNL1       -0.2530
      4 C           3.8457    0.0266   -0.2513 C.ar    1  UNL1        0.2416
      5 N           4.1746   -0.2442   -1.5241 N.ar    1  UNL1       -0.1938
      6 C           3.0961   -0.2089   -2.3115 C.ar    1  UNL1        0.1583
      7 C           2.9635   -0.4221   -3.6744 C.ar    1  UNL1       -0.0173
      8 C           1.7021   -0.3155   -4.2155 C.ar    1  UNL1       -0.0562
      9 C           0.6670   -0.0078   -3.3780 C.ar    1  UNL1       -0.0355
     10 C           0.8460    0.1951   -2.0321 C.ar    1  UNL1        0.0749
     11 C          -0.2808    0.5260   -1.1437 C.ar    1  UNL1        0.0005
     12 C          -1.2283    1.4664   -1.4875 C.ar    1  UNL1       -0.0523
     13 C          -2.2787    1.7626   -0.6391 C.ar    1  UNL1       -0.0567
     14 C          -2.4247    1.1356    0.5795 C.ar    1  UNL1       -0.0333
     15 C          -3.5530    1.4366    1.5155 C.3     1  UNL1        0.0241
     16 N          -4.6267    0.5352    1.1981 N.3     1  UNL1       -0.2951
     17 C          -5.1315    0.6389   -0.1138 C.3     1  UNL1        0.0187
     18 C          -6.5549    0.1566   -0.2767 C.3     1  UNL1        0.0785
     19 S          -6.6139   -1.5366    0.2591 S.O2    1  UNL1       -0.0286
     20 O          -6.0029   -2.4094   -0.7777 O.2     1  UNL1       -0.1743
     21 O          -8.0493   -1.8905    0.5155 O.2     1  UNL1       -0.1743
     22 C          -5.6867   -1.5972    1.7984 C.3     1  UNL1        0.0785
     23 C          -4.4372   -0.7925    1.6919 C.3     1  UNL1        0.0187
     24 C          -1.4590    0.1856    0.9160 C.ar    1  UNL1       -0.0567
     25 C          -0.4165   -0.1075    0.0726 C.ar    1  UNL1       -0.0523
     26 N           2.0721    0.0924   -1.5010 N.ar    1  UNL1       -0.2108
     27 N           2.5094    0.2391   -0.2447 N.ar    1  UNL1       -0.1281
     28 C           7.1355   -0.1582    1.7025 C.3     1  UNL1        0.0360
     29 C           8.4552    0.5292    1.3578 C.3     1  UNL1       -0.0412
     30 C           8.3839   -0.9545    1.5417 C.3     1  UNL1       -0.0412
     31 H           4.4287    0.2911    1.8242 H       1  UNL1        0.1578
     32 H           3.8234   -0.6664   -4.3043 H       1  UNL1        0.0655
     33 H           1.5635   -0.4776   -5.2860 H       1  UNL1        0.0619
     34 H          -0.3262    0.0773   -3.7972 H       1  UNL1        0.0639
     35 H          -1.1607    1.9839   -2.4260 H       1  UNL1        0.0624
     36 H          -2.9855    2.5025   -0.9563 H       1  UNL1        0.0621
     37 H          -3.8748    2.4934    1.4181 H       1  UNL1        0.0476
     38 H          -3.1541    1.2918    2.5300 H       1  UNL1        0.0476
     39 H          -4.4993    0.1168   -0.8323 H       1  UNL1        0.0442
     40 H          -5.1742    1.7392   -0.3678 H       1  UNL1        0.0442
     41 H          -6.7584    0.1426   -1.3792 H       1  UNL1        0.0512
     42 H          -7.2624    0.8027    0.2743 H       1  UNL1        0.0512
     43 H          -6.3739   -1.2908    2.5946 H       1  UNL1        0.0512
     44 H          -5.4055   -2.6686    1.9332 H       1  UNL1        0.0512
     45 H          -3.7210   -1.3272    1.0486 H       1  UNL1        0.0442
     46 H          -4.0040   -0.7073    2.7185 H       1  UNL1        0.0442
     47 H          -1.5695   -0.3085    1.8705 H       1  UNL1        0.0621
     48 H           0.3446   -0.8473    0.3231 H       1  UNL1        0.0624
     49 H           6.7676    0.0746    2.7177 H       1  UNL1        0.0394
     50 H           8.9751    1.0942    2.1633 H       1  UNL1        0.0273
     51 H           8.5911    0.9348    0.3413 H       1  UNL1        0.0273
     52 H           8.5257   -1.5385    0.6101 H       1  UNL1        0.0273
     53 H           8.7733   -1.4318    2.4532 H       1  UNL1        0.0273
@<TRIPOS>BOND
     1     1     2    2
     2     2     3   am
     3     3     4    1
     4     4     5   ar
     5     5     6   ar
     6     6     7   ar
     7     7     8   ar
     8     8     9   ar
     9     9    10   ar
    10    10    11    1
    11    11    12   ar
    12    12    13   ar
    13    13    14   ar
    14    14    15    1
    15    15    16    1
    16    16    17    1
    17    17    18    1
    18    18    19    1
    19    19    20    2
    20    19    21    2
    21    19    22    1
    22    22    23    1
    23    14    24   ar
    24    24    25   ar
    25    10    26   ar
    26    26    27   ar
    27     2    28    1
    28    28    29    1
    29    29    30    1
    30    27     4   ar
    31    30    28    1
    32    26     6   ar
    33    25    11   ar
    34    23    16    1
    35     3    31    1
    36     7    32    1
    37     8    33    1
    38     9    34    1
    39    12    35    1
    40    13    36    1
    41    15    37    1
    42    15    38    1
    43    17    39    1
    44    17    40    1
    45    18    41    1
    46    18    42    1
    47    22    43    1
    48    22    44    1
    49    23    45    1
    50    23    46    1
    51    24    47    1
    52    25    48    1
    53    28    49    1
    54    29    50    1
    55    29    51    1
    56    30    52    1
    57    30    53    1
