
     RDKit          3D

 46 49  0  0  0  0  0  0  0  0999 V2000
   -6.0378    0.8614    0.6798 C   0  0  0  0  0  0  0  0  0  0  0  0
   -4.6164    1.1556    0.9148 N   0  0  0  0  0  0  0  0  0  0  0  0
   -3.5739    0.4232    0.4934 C   0  0  0  0  0  0  0  0  0  0  0  0
   -2.3981    1.0140    0.9054 C   0  0  0  0  0  0  0  0  0  0  0  0
   -0.9863    0.5318    0.6539 C   0  0  1  0  0  0  0  0  0  0  0  0
   -1.0211   -0.4490   -0.4879 C   0  0  0  0  0  0  0  0  0  0  0  0
    0.3993   -1.0095   -0.6409 C   0  0  1  0  0  0  0  0  0  0  0  0
    0.3708   -1.8866   -1.8199 C   0  0  1  0  0  0  0  0  0  0  0  0
   -0.6427   -1.4839   -2.8794 C   0  0  0  0  0  0  0  0  0  0  0  0
   -0.4413   -0.2412   -3.3967 F   0  0  0  0  0  0  0  0  0  0  0  0
    1.9164   -2.1767   -2.6776 S   0  0  0  0  0  0  0  0  0  0  0  0
    2.9133   -0.7158   -2.3255 C   0  0  0  0  0  0  0  0  0  0  0  0
    4.0873   -0.4615   -3.1063 N   0  0  0  0  0  0  0  0  0  0  0  0
    2.5112    0.0062   -1.3985 N   0  0  0  0  0  0  0  0  0  0  0  0
    1.4385    0.0274   -0.4781 C   0  0  2  0  0  0  0  0  0  0  0  0
    2.1030   -0.0175    0.8810 C   0  0  0  0  0  0  0  0  0  0  0  0
    1.9789    1.0356    1.7385 C   0  0  0  0  0  0  0  0  0  0  0  0
    2.6374    1.0044    2.9772 C   0  0  0  0  0  0  0  0  0  0  0  0
    3.4098   -0.1022    3.3142 C   0  0  0  0  0  0  0  0  0  0  0  0
    4.0538   -0.1535    4.5039 F   0  0  0  0  0  0  0  0  0  0  0  0
    3.5097   -1.1461    2.4183 C   0  0  0  0  0  0  0  0  0  0  0  0
    2.8715   -1.1392    1.1942 C   0  0  0  0  0  0  0  0  0  0  0  0
    2.9878   -2.1868    0.3354 F   0  0  0  0  0  0  0  0  0  0  0  0
    0.7899    1.3860   -0.5951 C   0  0  0  0  0  0  0  0  0  0  0  0
   -0.2547    1.6212    0.2709 O   0  0  0  0  0  0  0  0  0  0  0  0
   -2.7735    2.1430    1.5990 C   0  0  0  0  0  0  0  0  0  0  0  0
   -4.1289    2.1817    1.5749 N   0  0  0  0  0  0  0  0  0  0  0  0
   -6.6558    1.6884    1.0294 H   0  0  0  0  0  0  0  0  0  0  0  0
   -6.1557    0.6563   -0.4084 H   0  0  0  0  0  0  0  0  0  0  0  0
   -6.2931   -0.0707    1.2296 H   0  0  0  0  0  0  0  0  0  0  0  0
   -3.6373   -0.4995   -0.0867 H   0  0  0  0  0  0  0  0  0  0  0  0
   -0.6619    0.0324    1.5883 H   0  0  0  0  0  0  0  0  0  0  0  0
   -1.3887    0.0745   -1.3609 H   0  0  0  0  0  0  0  0  0  0  0  0
   -1.6935   -1.3114   -0.2256 H   0  0  0  0  0  0  0  0  0  0  0  0
    0.4736   -1.6742    0.2811 H   0  0  0  0  0  0  0  0  0  0  0  0
    0.0042   -2.9099   -1.4963 H   0  0  0  0  0  0  0  0  0  0  0  0
   -0.4866   -2.2138   -3.7256 H   0  0  0  0  0  0  0  0  0  0  0  0
   -1.6883   -1.6626   -2.5456 H   0  0  0  0  0  0  0  0  0  0  0  0
    4.3030    0.5078   -3.3988 H   0  0  0  0  0  0  0  0  0  0  0  0
    4.7344   -1.2173   -3.3920 H   0  0  0  0  0  0  0  0  0  0  0  0
    1.4224    1.9438    1.5787 H   0  0  0  0  0  0  0  0  0  0  0  0
    2.5536    1.8239    3.6705 H   0  0  0  0  0  0  0  0  0  0  0  0
    4.1021   -2.0361    2.6331 H   0  0  0  0  0  0  0  0  0  0  0  0
    0.4973    1.6004   -1.6640 H   0  0  0  0  0  0  0  0  0  0  0  0
    1.5459    2.2113   -0.4130 H   0  0  0  0  0  0  0  0  0  0  0  0
   -2.0792    2.8346    2.0570 H   0  0  0  0  0  0  0  0  0  0  0  0
  1  2  1  0
  2  3  1  0
  3  4  2  0
  4  5  1  0
  5  6  1  0
  6  7  1  0
  7  8  1  0
  8  9  1  0
  9 10  1  0
  8 11  1  0
 11 12  1  0
 12 13  1  0
 12 14  2  0
 14 15  1  0
 15 16  1  1
 16 17  2  0
 17 18  1  0
 18 19  2  0
 19 20  1  0
 19 21  1  0
 21 22  2  0
 22 23  1  0
 15 24  1  0
 24 25  1  0
  4 26  1  0
 26 27  2  0
 27  2  1  0
 25  5  1  0
 15  7  1  0
 22 16  1  0
  1 28  1  0
  1 29  1  0
  1 30  1  0
  3 31  1  0
  5 32  1  1
  6 33  1  0
  6 34  1  0
  7 35  1  1
  8 36  1  1
  9 37  1  0
  9 38  1  0
 13 39  1  0
 13 40  1  0
 17 41  1  0
 18 42  1  0
 21 43  1  0
 24 44  1  0
 24 45  1  0
 26 46  1  0
M  END
$$$$
