@<TRIPOS>MOLECULE
*****
 46 49 0 0 0
SMALL
GASTEIGER

@<TRIPOS>ATOM
      1 C          -6.0378    0.8614    0.6798 C.3     1  UNL1        0.0302
      2 N          -4.6164    1.1556    0.9148 N.ar    1  UNL1       -0.2741
      3 C          -3.5739    0.4232    0.4934 C.ar    1  UNL1        0.0308
      4 C          -2.3981    1.0140    0.9054 C.ar    1  UNL1        0.0185
      5 C          -0.9863    0.5318    0.6539 C.3     1  UNL1        0.0870
      6 C          -1.0211   -0.4490   -0.4879 C.3     1  UNL1       -0.0158
      7 C           0.3993   -1.0095   -0.6409 C.3     1  UNL1        0.0080
      8 C           0.3708   -1.8866   -1.8199 C.3     1  UNL1        0.0461
      9 C          -0.6427   -1.4839   -2.8794 C.3     1  UNL1        0.1027
     10 F          -0.4413   -0.2412   -3.3967 F       1  UNL1       -0.2479
     11 S           1.9164   -2.1767   -2.6776 S.3     1  UNL1       -0.0848
     12 C           2.9133   -0.7158   -2.3255 C.2     1  UNL1        0.1479
     13 N           4.0873   -0.4615   -3.1063 N.pl3   1  UNL1       -0.3380
     14 N           2.5112    0.0062   -1.3985 N.2     1  UNL1       -0.2495
     15 C           1.4385    0.0274   -0.4781 C.3     1  UNL1        0.1188
     16 C           2.1030   -0.0175    0.8810 C.ar    1  UNL1        0.0178
     17 C           1.9789    1.0356    1.7385 C.ar    1  UNL1       -0.0507
     18 C           2.6374    1.0044    2.9772 C.ar    1  UNL1       -0.0259
     19 C           3.4098   -0.1022    3.3142 C.ar    1  UNL1        0.1261
     20 F           4.0538   -0.1535    4.5039 F       1  UNL1       -0.2054
     21 C           3.5097   -1.1461    2.4183 C.ar    1  UNL1        0.0091
     22 C           2.8715   -1.1392    1.1942 C.ar    1  UNL1        0.1317
     23 F           2.9878   -2.1868    0.3354 F       1  UNL1       -0.2050
     24 C           0.7899    1.3860   -0.5951 C.3     1  UNL1        0.0781
     25 O          -0.2547    1.6212    0.2709 O.3     1  UNL1       -0.3691
     26 C          -2.7735    2.1430    1.5990 C.ar    1  UNL1        0.0550
     27 N          -4.1289    2.1817    1.5749 N.ar    1  UNL1       -0.1796
     28 H          -6.6558    1.6884    1.0294 H       1  UNL1        0.0473
     29 H          -6.1557    0.6563   -0.4084 H       1  UNL1        0.0473
     30 H          -6.2931   -0.0707    1.2296 H       1  UNL1        0.0473
     31 H          -3.6373   -0.4995   -0.0867 H       1  UNL1        0.0830
     32 H          -0.6619    0.0324    1.5883 H       1  UNL1        0.0647
     33 H          -1.3887    0.0745   -1.3609 H       1  UNL1        0.0297
     34 H          -1.6935   -1.3114   -0.2256 H       1  UNL1        0.0297
     35 H           0.4736   -1.6742    0.2811 H       1  UNL1        0.0341
     36 H           0.0042   -2.9099   -1.4963 H       1  UNL1        0.0445
     37 H          -0.4866   -2.2138   -3.7256 H       1  UNL1        0.0626
     38 H          -1.6883   -1.6626   -2.5456 H       1  UNL1        0.0626
     39 H           4.3030    0.5078   -3.3988 H       1  UNL1        0.1442
     40 H           4.7344   -1.2173   -3.3920 H       1  UNL1        0.1442
     41 H           1.4224    1.9438    1.5787 H       1  UNL1        0.0623
     42 H           2.5536    1.8239    3.6705 H       1  UNL1        0.0646
     43 H           4.1021   -2.0361    2.6331 H       1  UNL1        0.0675
     44 H           0.4973    1.6004   -1.6640 H       1  UNL1        0.0588
     45 H           1.5459    2.2113   -0.4130 H       1  UNL1        0.0588
     46 H          -2.0792    2.8346    2.0570 H       1  UNL1        0.0851
@<TRIPOS>BOND
     1     1     2    1
     2     2     3   ar
     3     3     4   ar
     4     4     5    1
     5     5     6    1
     6     6     7    1
     7     7     8    1
     8     8     9    1
     9     9    10    1
    10     8    11    1
    11    11    12    1
    12    12    13    1
    13    12    14    2
    14    14    15    1
    15    15    16    1
    16    16    17   ar
    17    17    18   ar
    18    18    19   ar
    19    19    20    1
    20    19    21   ar
    21    21    22   ar
    22    22    23    1
    23    15    24    1
    24    24    25    1
    25     4    26   ar
    26    26    27   ar
    27    27     2   ar
    28    25     5    1
    29    15     7    1
    30    22    16   ar
    31     1    28    1
    32     1    29    1
    33     1    30    1
    34     3    31    1
    35     5    32    1
    36     6    33    1
    37     6    34    1
    38     7    35    1
    39     8    36    1
    40     9    37    1
    41     9    38    1
    42    13    39    1
    43    13    40    1
    44    17    41    1
    45    18    42    1
    46    21    43    1
    47    24    44    1
    48    24    45    1
    49    26    46    1
