
     RDKit          3D

 51 54  0  0  0  0  0  0  0  0999 V2000
   -5.1282   -5.1758   -1.4469 C   0  0  0  0  0  0  0  0  0  0  0  0
   -4.1272   -4.1346   -1.2699 C   0  0  0  0  0  0  0  0  0  0  0  0
   -2.7841   -4.0939   -1.4871 C   0  0  0  0  0  0  0  0  0  0  0  0
   -2.1689   -2.9812   -1.2198 N   0  0  0  0  0  0  0  0  0  0  0  0
   -2.6279   -1.9610   -0.7988 C   0  0  0  0  0  0  0  0  0  0  0  0
   -2.2418   -0.6185   -0.4151 C   0  0  0  0  0  0  0  0  0  0  0  0
   -3.1184    0.3094    0.0467 C   0  0  0  0  0  0  0  0  0  0  0  0
   -2.6652    1.5769    0.3938 C   0  0  0  0  0  0  0  0  0  0  0  0
   -3.6142    2.4654    0.8548 O   0  0  0  0  0  0  0  0  0  0  0  0
   -3.3749    3.7747    1.2527 C   0  0  0  0  0  0  0  0  0  0  0  0
   -4.3909    4.7265    0.6436 C   0  0  0  0  0  0  0  0  0  0  0  0
   -5.2708    4.4701    1.7053 O   0  0  0  0  0  0  0  0  0  0  0  0
   -4.1607    4.1877    2.4805 C   0  0  0  0  0  0  0  0  0  0  0  0
   -1.3211    1.8572    0.2567 C   0  0  0  0  0  0  0  0  0  0  0  0
   -0.4162    0.9304   -0.2096 C   0  0  0  0  0  0  0  0  0  0  0  0
    0.9744    1.3004   -0.3245 C   0  0  0  0  0  0  0  0  0  0  0  0
    1.3411    2.4716    0.0051 O   0  0  0  0  0  0  0  0  0  0  0  0
    2.0018    0.4536   -0.7850 N   0  0  0  0  0  0  0  0  0  0  0  0
    3.4007    0.8554   -0.8907 C   0  0  2  0  0  0  0  0  0  0  0  0
    3.7426    0.8164   -2.3671 C   0  0  0  0  0  0  0  0  0  0  0  0
    4.2883    0.0026   -0.0861 C   0  0  0  0  0  0  0  0  0  0  0  0
    5.2803    0.5597    0.7021 C   0  0  0  0  0  0  0  0  0  0  0  0
    6.0674   -0.2602    1.4200 N   0  0  0  0  0  0  0  0  0  0  0  0
    5.9199   -1.5966    1.3948 C   0  0  0  0  0  0  0  0  0  0  0  0
    6.8200   -2.4808    2.2120 C   0  0  0  0  0  0  0  0  0  0  0  0
    6.1641   -2.9429    3.3345 F   0  0  0  0  0  0  0  0  0  0  0  0
    7.1649   -3.5566    1.4323 F   0  0  0  0  0  0  0  0  0  0  0  0
    7.9628   -1.7942    2.5686 F   0  0  0  0  0  0  0  0  0  0  0  0
    4.9529   -2.1291    0.6257 N   0  0  0  0  0  0  0  0  0  0  0  0
    4.1290   -1.3747   -0.1182 C   0  0  0  0  0  0  0  0  0  0  0  0
   -0.8904   -0.3149   -0.5456 C   0  0  0  0  0  0  0  0  0  0  0  0
   -4.4419   -2.4620   -0.6550 S   0  0  0  0  0  0  0  0  0  0  0  0
   -4.6689   -6.1538   -1.2423 H   0  0  0  0  0  0  0  0  0  0  0  0
   -5.6279   -5.0993   -2.4247 H   0  0  0  0  0  0  0  0  0  0  0  0
   -5.9125   -5.0345   -0.6588 H   0  0  0  0  0  0  0  0  0  0  0  0
   -2.2612   -4.9940   -1.8788 H   0  0  0  0  0  0  0  0  0  0  0  0
   -4.1641    0.0593    0.1426 H   0  0  0  0  0  0  0  0  0  0  0  0
   -2.3542    4.1484    1.2026 H   0  0  0  0  0  0  0  0  0  0  0  0
   -4.0181    5.7831    0.7476 H   0  0  0  0  0  0  0  0  0  0  0  0
   -4.7530    4.4606   -0.3502 H   0  0  0  0  0  0  0  0  0  0  0  0
   -3.7374    5.1025    2.9148 H   0  0  0  0  0  0  0  0  0  0  0  0
   -4.3189    3.3505    3.2036 H   0  0  0  0  0  0  0  0  0  0  0  0
   -0.9717    2.8401    0.5262 H   0  0  0  0  0  0  0  0  0  0  0  0
    1.7578   -0.5178   -1.0688 H   0  0  0  0  0  0  0  0  0  0  0  0
    3.5470    1.9049   -0.5653 H   0  0  0  0  0  0  0  0  0  0  0  0
    4.7661    0.4969   -2.5608 H   0  0  0  0  0  0  0  0  0  0  0  0
    3.0658    0.1312   -2.9313 H   0  0  0  0  0  0  0  0  0  0  0  0
    3.6186    1.8191   -2.8427 H   0  0  0  0  0  0  0  0  0  0  0  0
    5.4182    1.6376    0.7383 H   0  0  0  0  0  0  0  0  0  0  0  0
    3.3417   -1.7604   -0.7481 H   0  0  0  0  0  0  0  0  0  0  0  0
   -0.1946   -1.0559   -0.9136 H   0  0  0  0  0  0  0  0  0  0  0  0
  1  2  1  0
  2  3  2  0
  3  4  1  0
  4  5  2  0
  5  6  1  0
  6  7  2  0
  7  8  1  0
  8  9  1  0
  9 10  1  0
 10 11  1  0
 11 12  1  0
 12 13  1  0
  8 14  2  0
 14 15  1  0
 15 16  1  0
 16 17  2  0
 16 18  1  0
 18 19  1  0
 19 20  1  0
 19 21  1  0
 21 22  2  0
 22 23  1  0
 23 24  2  0
 24 25  1  0
 25 26  1  0
 25 27  1  0
 25 28  1  0
 24 29  1  0
 29 30  2  0
 15 31  2  0
  5 32  1  0
 32  2  1  0
 31  6  1  0
 13 10  1  0
 30 21  1  0
  1 33  1  0
  1 34  1  0
  1 35  1  0
  3 36  1  0
  7 37  1  0
 10 38  1  0
 11 39  1  0
 11 40  1  0
 13 41  1  0
 13 42  1  0
 14 43  1  0
 18 44  1  0
 19 45  1  1
 20 46  1  0
 20 47  1  0
 20 48  1  0
 22 49  1  0
 30 50  1  0
 31 51  1  0
M  END
$$$$
