@<TRIPOS>MOLECULE
*****
 51 54 0 0 0
SMALL
GASTEIGER

@<TRIPOS>ATOM
      1 C          -5.1282   -5.1758   -1.4469 C.3     1  UNL1       -0.0319
      2 C          -4.1272   -4.1346   -1.2699 C.ar    1  UNL1        0.0068
      3 C          -2.7841   -4.0939   -1.4871 C.ar    1  UNL1        0.0383
      4 N          -2.1689   -2.9812   -1.2198 N.ar    1  UNL1       -0.2471
      5 C          -2.6279   -1.9610   -0.7988 C.ar    1  UNL1        0.1086
      6 C          -2.2418   -0.6185   -0.4151 C.ar    1  UNL1        0.0113
      7 C          -3.1184    0.3094    0.0467 C.ar    1  UNL1       -0.0102
      8 C          -2.6652    1.5769    0.3938 C.ar    1  UNL1        0.1225
      9 O          -3.6142    2.4654    0.8548 O.3     1  UNL1       -0.4842
     10 C          -3.3749    3.7747    1.2527 C.3     1  UNL1        0.1464
     11 C          -4.3909    4.7265    0.6436 C.3     1  UNL1        0.0869
     12 O          -5.2708    4.4701    1.7053 O.3     1  UNL1       -0.3723
     13 C          -4.1607    4.1877    2.4805 C.3     1  UNL1        0.0869
     14 C          -1.3211    1.8572    0.2567 C.ar    1  UNL1       -0.0078
     15 C          -0.4162    0.9304   -0.2096 C.ar    1  UNL1        0.0408
     16 C           0.9744    1.3004   -0.3245 C.2     1  UNL1        0.2447
     17 O           1.3411    2.4716    0.0051 O.2     1  UNL1       -0.2702
     18 N           2.0018    0.4536   -0.7850 N.am    1  UNL1       -0.3047
     19 C           3.4007    0.8554   -0.8907 C.3     1  UNL1        0.0487
     20 C           3.7426    0.8164   -2.3671 C.3     1  UNL1       -0.0423
     21 C           4.2883    0.0026   -0.0861 C.ar    1  UNL1        0.0087
     22 C           5.2803    0.5597    0.7021 C.ar    1  UNL1        0.0363
     23 N           6.0674   -0.2602    1.4200 N.ar    1  UNL1       -0.2321
     24 C           5.9199   -1.5966    1.3948 C.ar    1  UNL1        0.2339
     25 C           6.8200   -2.4808    2.2120 C.3     1  UNL1        0.4522
     26 F           6.1641   -2.9429    3.3345 F       1  UNL1       -0.1632
     27 F           7.1649   -3.5566    1.4323 F       1  UNL1       -0.1632
     28 F           7.9628   -1.7942    2.5686 F       1  UNL1       -0.1632
     29 N           4.9529   -2.1291    0.6257 N.ar    1  UNL1       -0.2321
     30 C           4.1290   -1.3747   -0.1182 C.ar    1  UNL1        0.0363
     31 C          -0.8904   -0.3149   -0.5456 C.ar    1  UNL1       -0.0397
     32 S          -4.4419   -2.4620   -0.6550 S.2     1  UNL1       -0.0725
     33 H          -4.6689   -6.1538   -1.2423 H       1  UNL1        0.0283
     34 H          -5.6279   -5.0993   -2.4247 H       1  UNL1        0.0283
     35 H          -5.9125   -5.0345   -0.6588 H       1  UNL1        0.0283
     36 H          -2.2612   -4.9940   -1.8788 H       1  UNL1        0.0838
     37 H          -4.1641    0.0593    0.1426 H       1  UNL1        0.0661
     38 H          -2.3542    4.1484    1.2026 H       1  UNL1        0.0780
     39 H          -4.0181    5.7831    0.7476 H       1  UNL1        0.0597
     40 H          -4.7530    4.4606   -0.3502 H       1  UNL1        0.0597
     41 H          -3.7374    5.1025    2.9148 H       1  UNL1        0.0597
     42 H          -4.3189    3.3505    3.2036 H       1  UNL1        0.0597
     43 H          -0.9717    2.8401    0.5262 H       1  UNL1        0.0662
     44 H           1.7578   -0.5178   -1.0688 H       1  UNL1        0.1496
     45 H           3.5470    1.9049   -0.5653 H       1  UNL1        0.0546
     46 H           4.7661    0.4969   -2.5608 H       1  UNL1        0.0251
     47 H           3.0658    0.1312   -2.9313 H       1  UNL1        0.0251
     48 H           3.6186    1.8191   -2.8427 H       1  UNL1        0.0251
     49 H           5.4182    1.6376    0.7383 H       1  UNL1        0.0834
     50 H           3.3417   -1.7604   -0.7481 H       1  UNL1        0.0834
     51 H          -0.1946   -1.0559   -0.9136 H       1  UNL1        0.0632
@<TRIPOS>BOND
     1     1     2    1
     2     2     3   ar
     3     3     4   ar
     4     4     5   ar
     5     5     6    1
     6     6     7   ar
     7     7     8   ar
     8     8     9    1
     9     9    10    1
    10    10    11    1
    11    11    12    1
    12    12    13    1
    13     8    14   ar
    14    14    15   ar
    15    15    16    1
    16    16    17    2
    17    16    18   am
    18    18    19    1
    19    19    20    1
    20    19    21    1
    21    21    22   ar
    22    22    23   ar
    23    23    24   ar
    24    24    25    1
    25    25    26    1
    26    25    27    1
    27    25    28    1
    28    24    29   ar
    29    29    30   ar
    30    15    31   ar
    31     5    32   ar
    32    32     2   ar
    33    31     6   ar
    34    13    10    1
    35    30    21   ar
    36     1    33    1
    37     1    34    1
    38     1    35    1
    39     3    36    1
    40     7    37    1
    41    10    38    1
    42    11    39    1
    43    11    40    1
    44    13    41    1
    45    13    42    1
    46    14    43    1
    47    18    44    1
    48    19    45    1
    49    20    46    1
    50    20    47    1
    51    20    48    1
    52    22    49    1
    53    30    50    1
    54    31    51    1
