@<TRIPOS>MOLECULE
*****
 39 42 0 0 0
SMALL
GASTEIGER

@<TRIPOS>ATOM
      1 O           0.1809   -1.3930    0.3228 O.2     1  UNL1       -0.2737
      2 C           0.3807   -0.6189    1.2748 C.2     1  UNL1        0.2354
      3 C          -0.6934    0.1737    1.9121 C.3     1  UNL1        0.0964
      4 N          -1.9452   -0.0521    1.3193 N.am    1  UNL1       -0.2609
      5 C          -2.8064   -1.0781    1.7978 C.2     1  UNL1        0.2206
      6 O          -2.7749   -1.4626    2.9881 O.2     1  UNL1       -0.2752
      7 C          -3.7565   -1.6748    0.7929 C.3     1  UNL1        0.0299
      8 C          -4.5345   -0.5471    0.2116 C.3     1  UNL1       -0.0003
      9 C          -3.6576    0.5037   -0.3555 C.ar    1  UNL1        0.0630
     10 N          -4.0724    1.2390   -1.4052 N.ar    1  UNL1       -0.2580
     11 C          -3.2975    2.2011   -1.9139 C.ar    1  UNL1        0.0280
     12 C          -2.0596    2.4468   -1.3612 C.ar    1  UNL1       -0.0418
     13 C          -1.6362    1.6959   -0.2899 C.ar    1  UNL1       -0.0371
     14 C          -2.4248    0.7145    0.2297 C.ar    1  UNL1        0.0581
     15 N           1.6959   -0.4814    1.7817 N.am    1  UNL1       -0.2781
     16 C           2.7216   -1.2323    1.1802 C.ar    1  UNL1        0.0836
     17 S           3.2380   -2.9156    1.6915 S.2     1  UNL1       -0.0801
     18 C           4.5473   -3.0919    0.4359 C.ar    1  UNL1       -0.0078
     19 C           4.4725   -1.8756   -0.2446 C.ar    1  UNL1        0.0374
     20 BR          5.7577   -1.6452   -1.7286 Br      1  UNL1       -0.0490
     21 C           3.5794   -0.9568    0.1138 C.ar    1  UNL1        0.0614
     22 C           3.4113    0.3923   -0.5521 C.ar    1  UNL1        0.1648
     23 N           2.5016    1.3145   -0.1784 N.ar    1  UNL1       -0.1295
     24 N           2.5815    2.3865   -0.9302 N.ar    1  UNL1       -0.1377
     25 C           3.5555    2.1626   -1.8064 C.ar    1  UNL1        0.1175
     26 N           4.0750    0.9024   -1.5623 N.ar    1  UNL1       -0.3276
     27 H          -0.3249    1.1990    2.0097 H       1  UNL1        0.0564
     28 H          -0.7483   -0.2308    2.9737 H       1  UNL1        0.0564
     29 H          -3.1940   -2.1880    0.0146 H       1  UNL1        0.0362
     30 H          -4.4425   -2.3793    1.3146 H       1  UNL1        0.0362
     31 H          -5.1958   -0.8908   -0.6319 H       1  UNL1        0.0333
     32 H          -5.2543   -0.0992    0.9555 H       1  UNL1        0.0333
     33 H          -3.6215    2.8108   -2.7711 H       1  UNL1        0.0829
     34 H          -1.3960    3.2211   -1.7438 H       1  UNL1        0.0633
     35 H          -0.6663    1.8720    0.1567 H       1  UNL1        0.0637
     36 H           1.8987    0.1803    2.6040 H       1  UNL1        0.1554
     37 H           5.1691   -3.9447    0.3193 H       1  UNL1        0.0705
     38 H           3.8970    2.8329   -2.5806 H       1  UNL1        0.1046
     39 H           4.8390    0.5091   -2.1139 H       1  UNL1        0.1683
@<TRIPOS>BOND
     1     1     2    2
     2     2     3    1
     3     3     4    1
     4     4     5   am
     5     5     6    2
     6     5     7    1
     7     7     8    1
     8     8     9    1
     9     9    10   ar
    10    10    11   ar
    11    11    12   ar
    12    12    13   ar
    13    13    14   ar
    14     2    15   am
    15    15    16    1
    16    16    17   ar
    17    17    18   ar
    18    18    19   ar
    19    19    20    1
    20    19    21   ar
    21    21    22    1
    22    22    23   ar
    23    23    24   ar
    24    24    25   ar
    25    25    26   ar
    26    14     4    1
    27    21    16   ar
    28    26    22   ar
    29    14     9   ar
    30     3    27    1
    31     3    28    1
    32     7    29    1
    33     7    30    1
    34     8    31    1
    35     8    32    1
    36    11    33    1
    37    12    34    1
    38    13    35    1
    39    15    36    1
    40    18    37    1
    41    25    38    1
    42    26    39    1
