
     RDKit          3D

 39 42  0  0  0  0  0  0  0  0999 V2000
    0.1809   -1.3930    0.3228 O   0  0  0  0  0  0  0  0  0  0  0  0
    0.3807   -0.6189    1.2748 C   0  0  0  0  0  0  0  0  0  0  0  0
   -0.6934    0.1737    1.9121 C   0  0  0  0  0  0  0  0  0  0  0  0
   -1.9452   -0.0521    1.3193 N   0  0  0  0  0  0  0  0  0  0  0  0
   -2.8064   -1.0781    1.7978 C   0  0  0  0  0  0  0  0  0  0  0  0
   -2.7749   -1.4626    2.9881 O   0  0  0  0  0  0  0  0  0  0  0  0
   -3.7565   -1.6748    0.7929 C   0  0  0  0  0  0  0  0  0  0  0  0
   -4.5345   -0.5471    0.2116 C   0  0  0  0  0  0  0  0  0  0  0  0
   -3.6576    0.5037   -0.3555 C   0  0  0  0  0  0  0  0  0  0  0  0
   -4.0724    1.2390   -1.4052 N   0  0  0  0  0  0  0  0  0  0  0  0
   -3.2975    2.2011   -1.9139 C   0  0  0  0  0  0  0  0  0  0  0  0
   -2.0596    2.4468   -1.3612 C   0  0  0  0  0  0  0  0  0  0  0  0
   -1.6362    1.6959   -0.2899 C   0  0  0  0  0  0  0  0  0  0  0  0
   -2.4248    0.7145    0.2297 C   0  0  0  0  0  0  0  0  0  0  0  0
    1.6959   -0.4814    1.7817 N   0  0  0  0  0  0  0  0  0  0  0  0
    2.7216   -1.2323    1.1802 C   0  0  0  0  0  0  0  0  0  0  0  0
    3.2380   -2.9156    1.6915 S   0  0  0  0  0  0  0  0  0  0  0  0
    4.5473   -3.0919    0.4359 C   0  0  0  0  0  0  0  0  0  0  0  0
    4.4725   -1.8756   -0.2446 C   0  0  0  0  0  0  0  0  0  0  0  0
    5.7577   -1.6452   -1.7286 Br  0  0  0  0  0  0  0  0  0  0  0  0
    3.5794   -0.9568    0.1138 C   0  0  0  0  0  0  0  0  0  0  0  0
    3.4113    0.3923   -0.5521 C   0  0  0  0  0  0  0  0  0  0  0  0
    2.5016    1.3145   -0.1784 N   0  0  0  0  0  0  0  0  0  0  0  0
    2.5815    2.3865   -0.9302 N   0  0  0  0  0  0  0  0  0  0  0  0
    3.5555    2.1626   -1.8064 C   0  0  0  0  0  0  0  0  0  0  0  0
    4.0750    0.9024   -1.5623 N   0  0  0  0  0  0  0  0  0  0  0  0
   -0.3249    1.1990    2.0097 H   0  0  0  0  0  0  0  0  0  0  0  0
   -0.7483   -0.2308    2.9737 H   0  0  0  0  0  0  0  0  0  0  0  0
   -3.1940   -2.1880    0.0146 H   0  0  0  0  0  0  0  0  0  0  0  0
   -4.4425   -2.3793    1.3146 H   0  0  0  0  0  0  0  0  0  0  0  0
   -5.1958   -0.8908   -0.6319 H   0  0  0  0  0  0  0  0  0  0  0  0
   -5.2543   -0.0992    0.9555 H   0  0  0  0  0  0  0  0  0  0  0  0
   -3.6215    2.8108   -2.7711 H   0  0  0  0  0  0  0  0  0  0  0  0
   -1.3960    3.2211   -1.7438 H   0  0  0  0  0  0  0  0  0  0  0  0
   -0.6663    1.8720    0.1567 H   0  0  0  0  0  0  0  0  0  0  0  0
    1.8987    0.1803    2.6040 H   0  0  0  0  0  0  0  0  0  0  0  0
    5.1691   -3.9447    0.3193 H   0  0  0  0  0  0  0  0  0  0  0  0
    3.8970    2.8329   -2.5806 H   0  0  0  0  0  0  0  0  0  0  0  0
    4.8390    0.5091   -2.1139 H   0  0  0  0  0  0  0  0  0  0  0  0
  1  2  2  0
  2  3  1  0
  3  4  1  0
  4  5  1  0
  5  6  2  0
  5  7  1  0
  7  8  1  0
  8  9  1  0
  9 10  2  0
 10 11  1  0
 11 12  2  0
 12 13  1  0
 13 14  2  0
  2 15  1  0
 15 16  1  0
 16 17  1  0
 17 18  1  0
 18 19  2  0
 19 20  1  0
 19 21  1  0
 21 22  1  0
 22 23  2  0
 23 24  1  0
 24 25  2  0
 25 26  1  0
 14  4  1  0
 21 16  2  0
 26 22  1  0
 14  9  1  0
  3 27  1  0
  3 28  1  0
  7 29  1  0
  7 30  1  0
  8 31  1  0
  8 32  1  0
 11 33  1  0
 12 34  1  0
 13 35  1  0
 15 36  1  0
 18 37  1  0
 25 38  1  0
 26 39  1  0
M  END
$$$$
