@<TRIPOS>MOLECULE
*****
 29 29 0 0 0
SMALL
GASTEIGER

@<TRIPOS>ATOM
      1 C          -3.1178    3.0316   -0.2470 C.3     1  UNL1       -0.0410
      2 C          -1.9758    2.1659    0.1666 C.3     1  UNL1        0.0573
      3 O          -2.2392    0.8033    0.0517 O.3     1  UNL1       -0.2773
      4 P          -0.7876    0.0318    0.5820 P.3     1  UNL1        0.5343
      5 O          -0.7343    0.3338    2.0721 O.2     1  UNL1       -0.2152
      6 O          -0.9036   -1.6293    0.3499 O.3     1  UNL1       -0.2773
      7 C          -1.9766   -1.9880   -0.4445 C.3     1  UNL1        0.0573
      8 C          -1.9466   -3.5106   -0.5603 C.3     1  UNL1       -0.0410
      9 O           0.5471    0.6467   -0.1849 O.3     1  UNL1       -0.3842
     10 C           1.8701    0.4099   -0.0642 C.ar    1  UNL1        0.2446
     11 N           2.7482    1.0996   -0.8648 N.ar    1  UNL1       -0.1982
     12 C           4.0639    0.9327   -0.8160 C.ar    1  UNL1        0.1513
     13 CL          5.1368    1.8529   -1.8747 Cl      1  UNL1       -0.0603
     14 C           4.6267    0.0375    0.0614 C.ar    1  UNL1        0.0793
     15 CL          6.3574   -0.2167    0.1616 Cl      1  UNL1       -0.0804
     16 C           3.8107   -0.6741    0.8789 C.ar    1  UNL1       -0.0169
     17 C           2.4261   -0.4745    0.8026 C.ar    1  UNL1        0.1042
     18 CL          1.4218   -1.4113    1.8715 Cl      1  UNL1       -0.0780
     19 H          -3.1516    3.2363   -1.3369 H       1  UNL1        0.0252
     20 H          -2.9708    4.0286    0.2420 H       1  UNL1        0.0252
     21 H          -4.1079    2.6739    0.1338 H       1  UNL1        0.0252
     22 H          -1.1202    2.3793   -0.5033 H       1  UNL1        0.0563
     23 H          -1.6635    2.4517    1.1846 H       1  UNL1        0.0563
     24 H          -1.7737   -1.6193   -1.4913 H       1  UNL1        0.0563
     25 H          -2.9405   -1.6211   -0.0540 H       1  UNL1        0.0563
     26 H          -2.7773   -3.8988   -1.1689 H       1  UNL1        0.0252
     27 H          -0.9856   -3.7819   -1.0366 H       1  UNL1        0.0252
     28 H          -2.0221   -3.8922    0.4931 H       1  UNL1        0.0252
     29 H           4.1856   -1.3977    1.5956 H       1  UNL1        0.0649
@<TRIPOS>BOND
     1     1     2    1
     2     2     3    1
     3     3     4    1
     4     4     5    2
     5     4     6    1
     6     6     7    1
     7     7     8    1
     8     4     9    1
     9     9    10    1
    10    10    11   ar
    11    11    12   ar
    12    12    13    1
    13    12    14   ar
    14    14    15    1
    15    14    16   ar
    16    16    17   ar
    17    17    18    1
    18    17    10   ar
    19     1    19    1
    20     1    20    1
    21     1    21    1
    22     2    22    1
    23     2    23    1
    24     7    24    1
    25     7    25    1
    26     8    26    1
    27     8    27    1
    28     8    28    1
    29    16    29    1
