
     RDKit          3D

 29 29  0  0  0  0  0  0  0  0999 V2000
   -3.1178    3.0316   -0.2470 C   0  0  0  0  0  0  0  0  0  0  0  0
   -1.9758    2.1659    0.1666 C   0  0  0  0  0  0  0  0  0  0  0  0
   -2.2392    0.8033    0.0517 O   0  0  0  0  0  0  0  0  0  0  0  0
   -0.7876    0.0318    0.5820 P   0  0  0  0  0  5  0  0  0  0  0  0
   -0.7343    0.3338    2.0721 O   0  0  0  0  0  0  0  0  0  0  0  0
   -0.9036   -1.6293    0.3499 O   0  0  0  0  0  0  0  0  0  0  0  0
   -1.9766   -1.9880   -0.4445 C   0  0  0  0  0  0  0  0  0  0  0  0
   -1.9466   -3.5106   -0.5603 C   0  0  0  0  0  0  0  0  0  0  0  0
    0.5471    0.6467   -0.1849 O   0  0  0  0  0  0  0  0  0  0  0  0
    1.8701    0.4099   -0.0642 C   0  0  0  0  0  0  0  0  0  0  0  0
    2.7482    1.0996   -0.8648 N   0  0  0  0  0  0  0  0  0  0  0  0
    4.0639    0.9327   -0.8160 C   0  0  0  0  0  0  0  0  0  0  0  0
    5.1368    1.8529   -1.8747 Cl  0  0  0  0  0  0  0  0  0  0  0  0
    4.6267    0.0375    0.0614 C   0  0  0  0  0  0  0  0  0  0  0  0
    6.3574   -0.2167    0.1616 Cl  0  0  0  0  0  0  0  0  0  0  0  0
    3.8107   -0.6741    0.8789 C   0  0  0  0  0  0  0  0  0  0  0  0
    2.4261   -0.4745    0.8026 C   0  0  0  0  0  0  0  0  0  0  0  0
    1.4218   -1.4113    1.8715 Cl  0  0  0  0  0  0  0  0  0  0  0  0
   -3.1516    3.2363   -1.3369 H   0  0  0  0  0  0  0  0  0  0  0  0
   -2.9708    4.0286    0.2420 H   0  0  0  0  0  0  0  0  0  0  0  0
   -4.1079    2.6739    0.1338 H   0  0  0  0  0  0  0  0  0  0  0  0
   -1.1202    2.3793   -0.5033 H   0  0  0  0  0  0  0  0  0  0  0  0
   -1.6635    2.4517    1.1846 H   0  0  0  0  0  0  0  0  0  0  0  0
   -1.7737   -1.6193   -1.4913 H   0  0  0  0  0  0  0  0  0  0  0  0
   -2.9405   -1.6211   -0.0540 H   0  0  0  0  0  0  0  0  0  0  0  0
   -2.7773   -3.8988   -1.1689 H   0  0  0  0  0  0  0  0  0  0  0  0
   -0.9856   -3.7819   -1.0366 H   0  0  0  0  0  0  0  0  0  0  0  0
   -2.0221   -3.8922    0.4931 H   0  0  0  0  0  0  0  0  0  0  0  0
    4.1856   -1.3977    1.5956 H   0  0  0  0  0  0  0  0  0  0  0  0
  1  2  1  0
  2  3  1  0
  3  4  1  0
  4  5  2  0
  4  6  1  0
  6  7  1  0
  7  8  1  0
  4  9  1  0
  9 10  1  0
 10 11  2  0
 11 12  1  0
 12 13  1  0
 12 14  2  0
 14 15  1  0
 14 16  1  0
 16 17  2  0
 17 18  1  0
 17 10  1  0
  1 19  1  0
  1 20  1  0
  1 21  1  0
  2 22  1  0
  2 23  1  0
  7 24  1  0
  7 25  1  0
  8 26  1  0
  8 27  1  0
  8 28  1  0
 16 29  1  0
M  END
$$$$
