
     RDKit          3D

 40 43  0  0  0  0  0  0  0  0999 V2000
    1.1572   -4.2001    0.3292 O   0  0  0  0  0  0  0  0  0  0  0  0
    1.0929   -2.9968   -0.0750 C   0  0  0  0  0  0  0  0  0  0  0  0
    2.0981   -2.1281    0.2219 C   0  0  0  0  0  0  0  0  0  0  0  0
    2.0163   -0.8078   -0.2279 C   0  0  0  0  0  0  0  0  0  0  0  0
    3.0581    0.0995    0.0776 N   0  0  0  0  0  0  0  0  0  0  0  0
    4.2201   -0.2766    0.8447 C   0  0  0  0  0  0  0  0  0  0  0  0
    4.7849    1.0315    1.4156 C   0  0  0  0  0  0  0  0  0  0  0  0
    5.2127    1.8842    0.4323 O   0  0  0  0  0  0  0  0  0  0  0  0
    4.3551    2.0387   -0.6238 C   0  0  0  0  0  0  0  0  0  0  0  0
    2.9783    1.4639   -0.3865 C   0  0  0  0  0  0  0  0  0  0  0  0
    0.9453   -0.4743   -0.9294 N   0  0  0  0  0  0  0  0  0  0  0  0
   -0.0672   -1.3061   -1.2416 C   0  0  0  0  0  0  0  0  0  0  0  0
   -1.2214   -0.8486   -2.0276 C   0  0  0  0  0  0  0  0  0  0  0  0
   -2.3158   -0.3147   -1.1495 C   0  0  0  0  0  0  0  0  0  0  0  0
   -2.4877    0.9550   -0.7284 N   0  0  0  0  0  0  0  0  0  0  0  0
   -3.5747    1.0589    0.0419 C   0  0  0  0  0  0  0  0  0  0  0  0
   -4.1987    2.1098    0.7208 C   0  0  0  0  0  0  0  0  0  0  0  0
   -5.3460    1.9168    1.4617 C   0  0  0  0  0  0  0  0  0  0  0  0
   -5.8891    0.6607    1.5344 C   0  0  0  0  0  0  0  0  0  0  0  0
   -7.3592    0.3446    2.4675 Cl  0  0  0  0  0  0  0  0  0  0  0  0
   -5.2773   -0.3923    0.8633 C   0  0  0  0  0  0  0  0  0  0  0  0
   -4.1207   -0.1966    0.1167 C   0  0  0  0  0  0  0  0  0  0  0  0
   -3.3358   -1.0127   -0.6165 N   0  0  0  0  0  0  0  0  0  0  0  0
    0.0302   -2.5670   -0.8013 N   0  0  0  0  0  0  0  0  0  0  0  0
    2.9507   -2.4501    0.7977 H   0  0  0  0  0  0  0  0  0  0  0  0
    3.9956   -0.9447    1.6934 H   0  0  0  0  0  0  0  0  0  0  0  0
    4.9989   -0.7058    0.1615 H   0  0  0  0  0  0  0  0  0  0  0  0
    3.9467    1.5381    1.9583 H   0  0  0  0  0  0  0  0  0  0  0  0
    5.6109    0.8363    2.1188 H   0  0  0  0  0  0  0  0  0  0  0  0
    4.2134    3.1278   -0.8075 H   0  0  0  0  0  0  0  0  0  0  0  0
    4.7742    1.6328   -1.5892 H   0  0  0  0  0  0  0  0  0  0  0  0
    2.4031    2.1152    0.3017 H   0  0  0  0  0  0  0  0  0  0  0  0
    2.4805    1.4354   -1.3981 H   0  0  0  0  0  0  0  0  0  0  0  0
   -0.8947   -0.0833   -2.7656 H   0  0  0  0  0  0  0  0  0  0  0  0
   -1.6284   -1.6979   -2.6515 H   0  0  0  0  0  0  0  0  0  0  0  0
   -3.7882    3.1008    0.6757 H   0  0  0  0  0  0  0  0  0  0  0  0
   -5.8506    2.7146    1.9983 H   0  0  0  0  0  0  0  0  0  0  0  0
   -5.6784   -1.3980    0.8983 H   0  0  0  0  0  0  0  0  0  0  0  0
   -3.5380   -2.0372   -0.7224 H   0  0  0  0  0  0  0  0  0  0  0  0
   -0.7513   -3.2260   -1.0371 H   0  0  0  0  0  0  0  0  0  0  0  0
  1  2  2  0
  2  3  1  0
  3  4  2  0
  4  5  1  0
  5  6  1  0
  6  7  1  0
  7  8  1  0
  8  9  1  0
  9 10  1  0
  4 11  1  0
 11 12  2  0
 12 13  1  0
 13 14  1  0
 14 15  2  0
 15 16  1  0
 16 17  2  0
 17 18  1  0
 18 19  2  0
 19 20  1  0
 19 21  1  0
 21 22  2  0
 22 23  1  0
 12 24  1  0
 24  2  1  0
 10  5  1  0
 23 14  1  0
 22 16  1  0
  3 25  1  0
  6 26  1  0
  6 27  1  0
  7 28  1  0
  7 29  1  0
  9 30  1  0
  9 31  1  0
 10 32  1  0
 10 33  1  0
 13 34  1  0
 13 35  1  0
 17 36  1  0
 18 37  1  0
 21 38  1  0
 23 39  1  0
 24 40  1  0
M  END
$$$$
