@<TRIPOS>MOLECULE
*****
 40 43 0 0 0
SMALL
GASTEIGER

@<TRIPOS>ATOM
      1 O           1.1572   -4.2001    0.3292 O.2     1  UNL1       -0.2677
      2 C           1.0929   -2.9968   -0.0750 C.ar    1  UNL1        0.2533
      3 C           2.0981   -2.1281    0.2219 C.ar    1  UNL1        0.0427
      4 C           2.0163   -0.8078   -0.2279 C.ar    1  UNL1        0.1285
      5 N           3.0581    0.0995    0.0776 N.pl3   1  UNL1       -0.3106
      6 C           4.2201   -0.2766    0.8447 C.3     1  UNL1        0.0370
      7 C           4.7849    1.0315    1.4156 C.3     1  UNL1        0.0634
      8 O           5.2127    1.8842    0.4323 O.3     1  UNL1       -0.3767
      9 C           4.3551    2.0387   -0.6238 C.3     1  UNL1        0.0634
     10 C           2.9783    1.4639   -0.3865 C.3     1  UNL1        0.0370
     11 N           0.9453   -0.4743   -0.9294 N.ar    1  UNL1       -0.2186
     12 C          -0.0672   -1.3061   -1.2416 C.ar    1  UNL1        0.1191
     13 C          -1.2214   -0.8486   -2.0276 C.3     1  UNL1        0.0637
     14 C          -2.3158   -0.3147   -1.1495 C.ar    1  UNL1        0.1155
     15 N          -2.4877    0.9550   -0.7284 N.ar    1  UNL1       -0.2321
     16 C          -3.5747    1.0589    0.0419 C.ar    1  UNL1        0.0892
     17 C          -4.1987    2.1098    0.7208 C.ar    1  UNL1       -0.0329
     18 C          -5.3460    1.9168    1.4617 C.ar    1  UNL1       -0.0413
     19 C          -5.8891    0.6607    1.5344 C.ar    1  UNL1        0.0430
     20 CL         -7.3592    0.3446    2.4675 Cl      1  UNL1       -0.0835
     21 C          -5.2773   -0.3923    0.8633 C.ar    1  UNL1       -0.0179
     22 C          -4.1207   -0.1966    0.1167 C.ar    1  UNL1        0.0676
     23 N          -3.3358   -1.0127   -0.6165 N.ar    1  UNL1       -0.3414
     24 N           0.0302   -2.5670   -0.8013 N.ar    1  UNL1       -0.3104
     25 H           2.9507   -2.4501    0.7977 H       1  UNL1        0.0706
     26 H           3.9956   -0.9447    1.6934 H       1  UNL1        0.0487
     27 H           4.9989   -0.7058    0.1615 H       1  UNL1        0.0487
     28 H           3.9467    1.5381    1.9583 H       1  UNL1        0.0575
     29 H           5.6109    0.8363    2.1188 H       1  UNL1        0.0575
     30 H           4.2134    3.1278   -0.8075 H       1  UNL1        0.0575
     31 H           4.7742    1.6328   -1.5892 H       1  UNL1        0.0575
     32 H           2.4031    2.1152    0.3017 H       1  UNL1        0.0487
     33 H           2.4805    1.4354   -1.3981 H       1  UNL1        0.0487
     34 H          -0.8947   -0.0833   -2.7656 H       1  UNL1        0.0422
     35 H          -1.6284   -1.6979   -2.6515 H       1  UNL1        0.0422
     36 H          -3.7882    3.1008    0.6757 H       1  UNL1        0.0640
     37 H          -5.8506    2.7146    1.9983 H       1  UNL1        0.0633
     38 H          -5.6784   -1.3980    0.8983 H       1  UNL1        0.0653
     39 H          -3.5380   -2.0372   -0.7224 H       1  UNL1        0.1671
     40 H          -0.7513   -3.2260   -1.0371 H       1  UNL1        0.1700
@<TRIPOS>BOND
     1     1     2    2
     2     2     3   ar
     3     3     4   ar
     4     4     5    1
     5     5     6    1
     6     6     7    1
     7     7     8    1
     8     8     9    1
     9     9    10    1
    10     4    11   ar
    11    11    12   ar
    12    12    13    1
    13    13    14    1
    14    14    15   ar
    15    15    16   ar
    16    16    17   ar
    17    17    18   ar
    18    18    19   ar
    19    19    20    1
    20    19    21   ar
    21    21    22   ar
    22    22    23   ar
    23    12    24   ar
    24    24     2   ar
    25    10     5    1
    26    23    14   ar
    27    22    16   ar
    28     3    25    1
    29     6    26    1
    30     6    27    1
    31     7    28    1
    32     7    29    1
    33     9    30    1
    34     9    31    1
    35    10    32    1
    36    10    33    1
    37    13    34    1
    38    13    35    1
    39    17    36    1
    40    18    37    1
    41    21    38    1
    42    23    39    1
    43    24    40    1
