
     RDKit          3D

 40 42  0  0  0  0  0  0  0  0999 V2000
    0.1967   -4.4478   -2.5195 N   0  0  0  0  0  0  0  0  0  0  0  0
    0.0824   -3.2781   -2.3258 C   0  0  0  0  0  0  0  0  0  0  0  0
   -0.0713   -1.7864   -2.0529 C   0  0  1  0  0  0  0  0  0  0  0  0
    1.0587   -1.1464   -1.4648 N   0  0  0  0  0  0  0  0  0  0  0  0
    1.5951   -1.3795   -0.1849 C   0  0  0  0  0  0  0  0  0  0  0  0
    0.9346   -2.2719    0.5095 O   0  0  0  0  0  0  0  0  0  0  0  0
    2.7484   -0.7996    0.4641 C   0  0  1  0  0  0  0  0  0  0  0  0
    3.7310   -0.1355   -0.3290 N   0  0  0  0  0  4  0  0  0  0  0  0
    2.5514   -0.1431    1.7891 C   0  0  0  0  0  0  0  0  0  0  0  0
    1.5591    0.8878    1.8981 C   0  0  0  0  0  0  0  0  0  0  0  0
    0.2331    0.7088    2.3140 C   0  0  0  0  0  0  0  0  0  0  0  0
   -0.5924    1.7311    2.4161 C   0  0  0  0  0  0  0  0  0  0  0  0
   -0.1582    3.0146    2.1177 C   0  0  0  0  0  0  0  0  0  0  0  0
    1.6344    2.6821    1.6363 S   0  0  0  0  0  0  0  0  0  0  0  0
   -0.7871   -1.1396   -3.2364 C   0  0  0  0  0  0  0  0  0  0  0  0
   -1.4651   -1.4000   -1.8958 C   0  0  2  0  0  0  0  0  0  0  0  0
   -2.0122   -0.2775   -1.1267 C   0  0  0  0  0  0  0  0  0  0  0  0
   -1.6500    1.0440   -1.3368 C   0  0  0  0  0  0  0  0  0  0  0  0
   -2.2672    2.0493   -0.6139 C   0  0  0  0  0  0  0  0  0  0  0  0
   -3.2286    1.8170    0.3130 C   0  0  0  0  0  0  0  0  0  0  0  0
   -3.6176    0.5023    0.5626 C   0  0  0  0  0  0  0  0  0  0  0  0
   -3.0038   -0.5078   -0.1592 C   0  0  0  0  0  0  0  0  0  0  0  0
    1.5980   -0.3970   -2.0389 H   0  0  0  0  0  0  0  0  0  0  0  0
    3.3925   -1.7627    0.8386 H   0  0  0  0  0  0  0  0  0  0  0  0
    3.3822    0.1514   -1.2863 H   0  0  0  0  0  0  0  0  0  0  0  0
    4.6171   -0.6965   -0.4699 H   0  0  0  0  0  0  0  0  0  0  0  0
    4.0666    0.7585    0.1172 H   0  0  0  0  0  0  0  0  0  0  0  0
    2.3187   -0.9468    2.5258 H   0  0  0  0  0  0  0  0  0  0  0  0
    3.5808    0.2052    2.1052 H   0  0  0  0  0  0  0  0  0  0  0  0
   -0.1100   -0.3705    2.5651 H   0  0  0  0  0  0  0  0  0  0  0  0
   -1.6728    1.6542    2.7453 H   0  0  0  0  0  0  0  0  0  0  0  0
   -0.5751    3.9609    2.0987 H   0  0  0  0  0  0  0  0  0  0  0  0
   -0.4809   -0.1126   -3.4985 H   0  0  0  0  0  0  0  0  0  0  0  0
   -1.1041   -1.7351   -4.0914 H   0  0  0  0  0  0  0  0  0  0  0  0
   -2.2359   -2.2567   -1.9556 H   0  0  0  0  0  0  0  0  0  0  0  0
   -0.8866    1.2974   -2.0593 H   0  0  0  0  0  0  0  0  0  0  0  0
   -1.9718    3.0971   -0.8177 H   0  0  0  0  0  0  0  0  0  0  0  0
   -3.7186    2.6307    0.8698 H   0  0  0  0  0  0  0  0  0  0  0  0
   -4.3734    0.3485    1.2949 H   0  0  0  0  0  0  0  0  0  0  0  0
   -3.2982   -1.5496    0.0107 H   0  0  0  0  0  0  0  0  0  0  0  0
  1  2  3  0
  3  2  1  6
  3  4  1  0
  4  5  1  0
  5  6  2  0
  5  7  1  0
  7  8  1  0
  7  9  1  0
  9 10  1  0
 10 11  2  0
 11 12  1  0
 12 13  2  0
 13 14  1  0
  3 15  1  0
 15 16  1  0
 16 17  1  0
 17 18  2  0
 18 19  1  0
 19 20  2  0
 20 21  1  0
 21 22  2  0
 16  3  1  0
 22 17  1  0
 14 10  1  0
  4 23  1  0
  7 24  1  1
  8 25  1  0
  8 26  1  0
  8 27  1  0
  9 28  1  0
  9 29  1  0
 11 30  1  0
 12 31  1  0
 13 32  1  0
 15 33  1  0
 15 34  1  0
 16 35  1  6
 18 36  1  0
 19 37  1  0
 20 38  1  0
 21 39  1  0
 22 40  1  0
M  CHG  1   8   1
M  END
$$$$
