@<TRIPOS>MOLECULE
*****
 40 42 0 0 0
SMALL
GASTEIGER

@<TRIPOS>ATOM
      1 N           0.1967   -4.4478   -2.5195 N.1     1  UNL1       -0.1943
      2 C           0.0824   -3.2781   -2.3258 C.1     1  UNL1        0.0890
      3 C          -0.0713   -1.7864   -2.0529 C.3     1  UNL1        0.1289
      4 N           1.0587   -1.1464   -1.4648 N.am    1  UNL1       -0.2922
      5 C           1.5951   -1.3795   -0.1849 C.2     1  UNL1        0.2627
      6 O           0.9346   -2.2719    0.5095 O.2     1  UNL1       -0.2696
      7 C           2.7484   -0.7996    0.4641 C.3     1  UNL1        0.0577
      8 N           3.7310   -0.1355   -0.3290 N.4     1  UNL1        0.2276
      9 C           2.5514   -0.1431    1.7891 C.3     1  UNL1        0.0303
     10 C           1.5591    0.8878    1.8981 C.ar    1  UNL1       -0.0044
     11 C           0.2331    0.7088    2.3140 C.ar    1  UNL1       -0.0513
     12 C          -0.5924    1.7311    2.4161 C.ar    1  UNL1       -0.0545
     13 C          -0.1582    3.0146    2.1177 C.ar    1  UNL1       -0.0241
     14 S           1.6344    2.6821    1.6363 S.2     1  UNL1       -0.1014
     15 C          -0.7871   -1.1396   -3.2364 C.3     1  UNL1       -0.0079
     16 C          -1.4651   -1.4000   -1.8958 C.3     1  UNL1        0.0216
     17 C          -2.0122   -0.2775   -1.1267 C.ar    1  UNL1       -0.0411
     18 C          -1.6500    1.0440   -1.3368 C.ar    1  UNL1       -0.0582
     19 C          -2.2672    2.0493   -0.6139 C.ar    1  UNL1       -0.0615
     20 C          -3.2286    1.8170    0.3130 C.ar    1  UNL1       -0.0617
     21 C          -3.6176    0.5023    0.5626 C.ar    1  UNL1       -0.0615
     22 C          -3.0038   -0.5078   -0.1592 C.ar    1  UNL1       -0.0582
     23 H           1.5980   -0.3970   -2.0389 H       1  UNL1        0.1504
     24 H           3.3925   -1.7627    0.8386 H       1  UNL1        0.0952
     25 H           3.3822    0.1514   -1.2863 H       1  UNL1        0.2002
     26 H           4.6171   -0.6965   -0.4699 H       1  UNL1        0.2002
     27 H           4.0666    0.7585    0.1172 H       1  UNL1        0.2002
     28 H           2.3187   -0.9468    2.5258 H       1  UNL1        0.0378
     29 H           3.5808    0.2052    2.1052 H       1  UNL1        0.0378
     30 H          -0.1100   -0.3705    2.5651 H       1  UNL1        0.0626
     31 H          -1.6728    1.6542    2.7453 H       1  UNL1        0.0623
     32 H          -0.5751    3.9609    2.0987 H       1  UNL1        0.0693
     33 H          -0.4809   -0.1126   -3.4985 H       1  UNL1        0.0303
     34 H          -1.1041   -1.7351   -4.0914 H       1  UNL1        0.0303
     35 H          -2.2359   -2.2567   -1.9556 H       1  UNL1        0.0381
     36 H          -0.8866    1.2974   -2.0593 H       1  UNL1        0.0620
     37 H          -1.9718    3.0971   -0.8177 H       1  UNL1        0.0618
     38 H          -3.7186    2.6307    0.8698 H       1  UNL1        0.0618
     39 H          -4.3734    0.3485    1.2949 H       1  UNL1        0.0618
     40 H          -3.2982   -1.5496    0.0107 H       1  UNL1        0.0620
@<TRIPOS>UNITY_ATOM_ATTR
8 1
charge 1
@<TRIPOS>BOND
     1     1     2    3
     2     3     2    1
     3     3     4    1
     4     4     5   am
     5     5     6    2
     6     5     7    1
     7     7     8    1
     8     7     9    1
     9     9    10    1
    10    10    11   ar
    11    11    12   ar
    12    12    13   ar
    13    13    14   ar
    14     3    15    1
    15    15    16    1
    16    16    17    1
    17    17    18   ar
    18    18    19   ar
    19    19    20   ar
    20    20    21   ar
    21    21    22   ar
    22    16     3    1
    23    22    17   ar
    24    14    10   ar
    25     4    23    1
    26     7    24    1
    27     8    25    1
    28     8    26    1
    29     8    27    1
    30     9    28    1
    31     9    29    1
    32    11    30    1
    33    12    31    1
    34    13    32    1
    35    15    33    1
    36    15    34    1
    37    16    35    1
    38    18    36    1
    39    19    37    1
    40    20    38    1
    41    21    39    1
    42    22    40    1
