@<TRIPOS>MOLECULE
*****
 38 40 0 0 0
SMALL
GASTEIGER

@<TRIPOS>ATOM
      1 O          -6.5553    1.6420   -0.3528 O.2     1  UNL1       -0.2451
      2 C          -5.5198    1.2998    0.2485 C.2     1  UNL1        0.3369
      3 O          -5.3538    1.6339    1.5753 O.3     1  UNL1       -0.4771
      4 C          -4.4933    0.5552   -0.4386 C.ar    1  UNL1        0.0607
      5 C          -4.6598    0.2224   -1.7621 C.ar    1  UNL1       -0.0477
      6 C          -3.6712   -0.4918   -2.4147 C.ar    1  UNL1       -0.0591
      7 C          -2.5230   -0.8731   -1.7547 C.ar    1  UNL1       -0.0353
      8 C          -2.3503   -0.5437   -0.4321 C.ar    1  UNL1        0.1063
      9 S          -0.8945   -1.0107    0.4565 S.O2    1  UNL1        0.0612
     10 O          -1.3106   -1.1481    1.8944 O.2     1  UNL1       -0.1528
     11 O          -0.4533   -2.3524   -0.0525 O.2     1  UNL1       -0.1528
     12 N           0.2711    0.2036    0.3110 N.3     1  UNL1       -0.1720
     13 C           0.7309    0.4937   -0.9826 C.3     1  UNL1        0.0248
     14 C           2.1497    0.9804   -1.0800 C.3     1  UNL1       -0.0128
     15 C           3.0565    0.3741   -0.1050 C.ar    1  UNL1       -0.0382
     16 C           4.3742    0.1226   -0.4600 C.ar    1  UNL1       -0.0167
     17 C           5.1897   -0.4566    0.5132 C.ar    1  UNL1        0.1171
     18 O           6.5118   -0.6978    0.1256 O.3     1  UNL1       -0.5068
     19 C           4.7112   -0.7640    1.7651 C.ar    1  UNL1       -0.0199
     20 C           3.3815   -0.4966    2.0848 C.ar    1  UNL1       -0.0536
     21 C           2.5572    0.0720    1.1487 C.ar    1  UNL1       -0.0282
     22 C           1.1395    0.3887    1.4011 C.3     1  UNL1        0.0458
     23 C          -3.3454    0.1673    0.2000 C.ar    1  UNL1       -0.0214
     24 H          -6.1947    1.7901    2.1470 H       1  UNL1        0.2954
     25 H          -5.5536    0.5015   -2.3320 H       1  UNL1        0.0626
     26 H          -3.7543   -0.7761   -3.4495 H       1  UNL1        0.0618
     27 H          -1.7470   -1.4373   -2.2785 H       1  UNL1        0.0637
     28 H           0.0440    1.2028   -1.4896 H       1  UNL1        0.0447
     29 H           0.6840   -0.4533   -1.5978 H       1  UNL1        0.0447
     30 H           2.1239    2.0809   -0.8721 H       1  UNL1        0.0326
     31 H           2.5610    0.8879   -2.1061 H       1  UNL1        0.0326
     32 H           4.7681    0.3567   -1.4370 H       1  UNL1        0.0657
     33 H           7.0541   -1.2805    0.7514 H       1  UNL1        0.2921
     34 H           5.3868   -1.2057    2.4640 H       1  UNL1        0.0654
     35 H           3.0168   -0.7383    3.0601 H       1  UNL1        0.0622
     36 H           1.0933    1.4566    1.7545 H       1  UNL1        0.0493
     37 H           0.7807   -0.2240    2.2597 H       1  UNL1        0.0493
     38 H          -3.2061    0.4236    1.2370 H       1  UNL1        0.0645
@<TRIPOS>BOND
     1     1     2    2
     2     2     3    1
     3     2     4    1
     4     4     5   ar
     5     5     6   ar
     6     6     7   ar
     7     7     8   ar
     8     8     9    1
     9     9    10    2
    10     9    11    2
    11     9    12    1
    12    12    13    1
    13    13    14    1
    14    14    15    1
    15    15    16   ar
    16    16    17   ar
    17    17    18    1
    18    17    19   ar
    19    19    20   ar
    20    20    21   ar
    21    21    22    1
    22     8    23   ar
    23    23     4   ar
    24    22    12    1
    25    21    15   ar
    26     3    24    1
    27     5    25    1
    28     6    26    1
    29     7    27    1
    30    13    28    1
    31    13    29    1
    32    14    30    1
    33    14    31    1
    34    16    32    1
    35    18    33    1
    36    19    34    1
    37    20    35    1
    38    22    36    1
    39    22    37    1
    40    23    38    1
