@<TRIPOS>MOLECULE
*****
 38 40 0 0 0
SMALL
GASTEIGER

@<TRIPOS>ATOM
      1 N           4.3598   -1.5618    0.4253 N.3     1  UNL1       -0.3272
      2 C           3.9983   -0.2105    0.0563 C.3     1  UNL1        0.0049
      3 C           3.0381    0.3155    1.0785 C.3     1  UNL1       -0.0363
      4 C           1.6416   -0.1788    0.6951 C.3     1  UNL1       -0.0361
      5 C           1.1353    0.6195   -0.4741 C.3     1  UNL1        0.0080
      6 N           0.2275   -0.1046   -1.2461 N.3     1  UNL1       -0.3099
      7 C          -1.0624   -0.4250   -0.8428 C.3     1  UNL1        0.0154
      8 C          -1.3010   -1.3512    0.3289 C.3     1  UNL1       -0.0287
      9 C          -1.6842    0.0834    0.4056 C.3     1  UNL1        0.0024
     10 C          -3.1373    0.3812    0.3556 C.ar    1  UNL1       -0.0247
     11 C          -4.0260   -0.3662   -0.3836 C.ar    1  UNL1       -0.0554
     12 C          -5.3695   -0.0364   -0.3883 C.ar    1  UNL1       -0.0433
     13 C          -5.8226    1.0463    0.3507 C.ar    1  UNL1        0.0276
     14 N          -4.9422    1.7550    1.0587 N.ar    1  UNL1       -0.2630
     15 C          -3.6232    1.4454    1.0743 C.ar    1  UNL1        0.0310
     16 C           2.3845    1.0068   -1.2946 C.3     1  UNL1       -0.0361
     17 C           3.3690   -0.1377   -1.3104 C.3     1  UNL1       -0.0363
     18 H           3.6863   -2.2694    0.0442 H       1  UNL1        0.1185
     19 H           5.3419   -1.7411    0.1261 H       1  UNL1        0.1185
     20 H           4.9405    0.3923    0.0359 H       1  UNL1        0.0458
     21 H           3.0307    1.4087    1.0471 H       1  UNL1        0.0281
     22 H           3.2433   -0.0898    2.1044 H       1  UNL1        0.0281
     23 H           1.7008   -1.2527    0.3870 H       1  UNL1        0.0281
     24 H           1.0282   -0.1196    1.5935 H       1  UNL1        0.0281
     25 H           0.7306    1.5875   -0.0671 H       1  UNL1        0.0460
     26 H           0.3707   -0.1075   -2.2747 H       1  UNL1        0.1225
     27 H          -1.8030   -0.6056   -1.6953 H       1  UNL1        0.0466
     28 H          -0.5122   -1.7319    0.9635 H       1  UNL1        0.0287
     29 H          -2.1330   -2.1113    0.2171 H       1  UNL1        0.0287
     30 H          -1.0908    0.7760    1.0465 H       1  UNL1        0.0365
     31 H          -3.6626   -1.2100   -0.9576 H       1  UNL1        0.0621
     32 H          -6.0847   -0.6200   -0.9696 H       1  UNL1        0.0633
     33 H          -6.8774    1.2531    0.3072 H       1  UNL1        0.0829
     34 H          -2.9956    2.0892    1.6847 H       1  UNL1        0.0832
     35 H           2.0695    1.2076   -2.3467 H       1  UNL1        0.0281
     36 H           2.8630    1.9078   -0.9093 H       1  UNL1        0.0281
     37 H           4.0931    0.0589   -2.1182 H       1  UNL1        0.0281
     38 H           2.8753   -1.1031   -1.5374 H       1  UNL1        0.0281
@<TRIPOS>BOND
     1     1     2    1
     2     2     3    1
     3     3     4    1
     4     4     5    1
     5     5     6    1
     6     6     7    1
     7     7     8    1
     8     8     9    1
     9     9    10    1
    10    10    11   ar
    11    11    12   ar
    12    12    13   ar
    13    13    14   ar
    14    14    15   ar
    15     5    16    1
    16    16    17    1
    17    17     2    1
    18     9     7    1
    19    15    10   ar
    20     1    18    1
    21     1    19    1
    22     2    20    1
    23     3    21    1
    24     3    22    1
    25     4    23    1
    26     4    24    1
    27     5    25    1
    28     6    26    1
    29     7    27    1
    30     8    28    1
    31     8    29    1
    32     9    30    1
    33    11    31    1
    34    12    32    1
    35    13    33    1
    36    15    34    1
    37    16    35    1
    38    16    36    1
    39    17    37    1
    40    17    38    1
