
     RDKit          3D

 38 40  0  0  0  0  0  0  0  0999 V2000
    4.3598   -1.5618    0.4253 N   0  0  0  0  0  0  0  0  0  0  0  0
    3.9983   -0.2105    0.0563 C   0  0  0  0  0  0  0  0  0  0  0  0
    3.0381    0.3155    1.0785 C   0  0  0  0  0  0  0  0  0  0  0  0
    1.6416   -0.1788    0.6951 C   0  0  0  0  0  0  0  0  0  0  0  0
    1.1353    0.6195   -0.4741 C   0  0  0  0  0  0  0  0  0  0  0  0
    0.2275   -0.1046   -1.2461 N   0  0  0  0  0  0  0  0  0  0  0  0
   -1.0624   -0.4250   -0.8428 C   0  0  1  0  0  0  0  0  0  0  0  0
   -1.3010   -1.3512    0.3289 C   0  0  0  0  0  0  0  0  0  0  0  0
   -1.6842    0.0834    0.4056 C   0  0  2  0  0  0  0  0  0  0  0  0
   -3.1373    0.3812    0.3556 C   0  0  0  0  0  0  0  0  0  0  0  0
   -4.0260   -0.3662   -0.3836 C   0  0  0  0  0  0  0  0  0  0  0  0
   -5.3695   -0.0364   -0.3883 C   0  0  0  0  0  0  0  0  0  0  0  0
   -5.8226    1.0463    0.3507 C   0  0  0  0  0  0  0  0  0  0  0  0
   -4.9422    1.7550    1.0587 N   0  0  0  0  0  0  0  0  0  0  0  0
   -3.6232    1.4454    1.0743 C   0  0  0  0  0  0  0  0  0  0  0  0
    2.3845    1.0068   -1.2946 C   0  0  0  0  0  0  0  0  0  0  0  0
    3.3690   -0.1377   -1.3104 C   0  0  0  0  0  0  0  0  0  0  0  0
    3.6863   -2.2694    0.0442 H   0  0  0  0  0  0  0  0  0  0  0  0
    5.3419   -1.7411    0.1261 H   0  0  0  0  0  0  0  0  0  0  0  0
    4.9405    0.3923    0.0359 H   0  0  0  0  0  0  0  0  0  0  0  0
    3.0307    1.4087    1.0471 H   0  0  0  0  0  0  0  0  0  0  0  0
    3.2433   -0.0898    2.1044 H   0  0  0  0  0  0  0  0  0  0  0  0
    1.7008   -1.2527    0.3870 H   0  0  0  0  0  0  0  0  0  0  0  0
    1.0282   -0.1196    1.5935 H   0  0  0  0  0  0  0  0  0  0  0  0
    0.7306    1.5875   -0.0671 H   0  0  0  0  0  0  0  0  0  0  0  0
    0.3707   -0.1075   -2.2747 H   0  0  0  0  0  0  0  0  0  0  0  0
   -1.8030   -0.6056   -1.6953 H   0  0  0  0  0  0  0  0  0  0  0  0
   -0.5122   -1.7319    0.9635 H   0  0  0  0  0  0  0  0  0  0  0  0
   -2.1330   -2.1113    0.2171 H   0  0  0  0  0  0  0  0  0  0  0  0
   -1.0908    0.7760    1.0465 H   0  0  0  0  0  0  0  0  0  0  0  0
   -3.6626   -1.2100   -0.9576 H   0  0  0  0  0  0  0  0  0  0  0  0
   -6.0847   -0.6200   -0.9696 H   0  0  0  0  0  0  0  0  0  0  0  0
   -6.8774    1.2531    0.3072 H   0  0  0  0  0  0  0  0  0  0  0  0
   -2.9956    2.0892    1.6847 H   0  0  0  0  0  0  0  0  0  0  0  0
    2.0695    1.2076   -2.3467 H   0  0  0  0  0  0  0  0  0  0  0  0
    2.8630    1.9078   -0.9093 H   0  0  0  0  0  0  0  0  0  0  0  0
    4.0931    0.0589   -2.1182 H   0  0  0  0  0  0  0  0  0  0  0  0
    2.8753   -1.1031   -1.5374 H   0  0  0  0  0  0  0  0  0  0  0  0
  1  2  1  0
  2  3  1  0
  3  4  1  0
  4  5  1  0
  5  6  1  0
  6  7  1  0
  7  8  1  0
  8  9  1  0
  9 10  1  0
 10 11  2  0
 11 12  1  0
 12 13  2  0
 13 14  1  0
 14 15  2  0
  5 16  1  0
 16 17  1  0
 17  2  1  0
  9  7  1  0
 15 10  1  0
  1 18  1  0
  1 19  1  0
  2 20  1  0
  3 21  1  0
  3 22  1  0
  4 23  1  0
  4 24  1  0
  5 25  1  0
  6 26  1  0
  7 27  1  6
  8 28  1  0
  8 29  1  0
  9 30  1  1
 11 31  1  0
 12 32  1  0
 13 33  1  0
 15 34  1  0
 16 35  1  0
 16 36  1  0
 17 37  1  0
 17 38  1  0
M  END
$$$$
