@<TRIPOS>MOLECULE
*****
 26 25 0 0 0
SMALL
GASTEIGER

@<TRIPOS>ATOM
      1 C          -2.4453   -0.5855    1.4222 C.3     1  UNL1       -0.0440
      2 C          -2.9692    0.2856    0.3322 C.2     1  UNL1       -0.0775
      3 C          -4.3282    0.8838    0.2073 C.3     1  UNL1       -0.0440
      4 C          -2.1301    0.5739   -0.6603 C.2     1  UNL1       -0.0594
      5 C          -0.7204    0.1046   -0.7766 C.3     1  UNL1        0.0775
      6 O           0.1838    1.1580   -0.8186 O.3     1  UNL1       -0.2823
      7 P           1.7346    0.4965   -0.9505 P.3     1  UNL1        0.4837
      8 O           2.7920    1.7994   -1.2107 O.3     1  UNL1       -0.3022
      9 O           1.8679   -0.4748   -2.0841 O.2     1  UNL1       -0.2269
     10 O           2.1213   -0.3220    0.4782 O.3     1  UNL1       -0.1862
     11 P           3.7023   -0.9170    0.2877 P.3     1  UNL1        0.4808
     12 O           4.7389    0.4272    0.4902 O.3     1  UNL1       -0.3023
     13 O           4.0098   -2.0477    1.4924 O.3     1  UNL1       -0.3023
     14 O           3.8517   -1.5125   -1.0832 O.2     1  UNL1       -0.2271
     15 H          -2.0982   -1.5410    0.9524 H       1  UNL1        0.0274
     16 H          -1.5620   -0.1406    1.9465 H       1  UNL1        0.0274
     17 H          -3.2666   -0.8000    2.1379 H       1  UNL1        0.0274
     18 H          -4.2887    1.9712    0.4630 H       1  UNL1        0.0274
     19 H          -4.7031    0.7586   -0.8259 H       1  UNL1        0.0274
     20 H          -4.9879    0.3477    0.9227 H       1  UNL1        0.0274
     21 H          -2.3559    1.1887   -1.5193 H       1  UNL1        0.0594
     22 H          -0.6663   -0.5557   -1.6529 H       1  UNL1        0.0610
     23 H          -0.4736   -0.5142    0.1169 H       1  UNL1        0.0610
     24 H           3.0284    1.8421   -2.1647 H       1  UNL1        0.2220
     25 H           4.5016    0.7947    1.3963 H       1  UNL1        0.2220
     26 H           4.4633   -2.8144    1.1008 H       1  UNL1        0.2220
@<TRIPOS>BOND
     1     1     2    1
     2     2     3    1
     3     2     4    2
     4     4     5    1
     5     5     6    1
     6     7     6    1
     7     7     8    1
     8     7     9    2
     9     7    10    1
    10    10    11    1
    11    11    12    1
    12    11    13    1
    13    11    14    2
    14     1    15    1
    15     1    16    1
    16     1    17    1
    17     3    18    1
    18     3    19    1
    19     3    20    1
    20     4    21    1
    21     5    22    1
    22     5    23    1
    23     8    24    1
    24    12    25    1
    25    13    26    1
