@<TRIPOS>MOLECULE
*****
 55 59 0 0 0
SMALL
GASTEIGER

@<TRIPOS>ATOM
      1 O           2.4297    1.1289    0.5742 O.2     1  UNL1       -0.2749
      2 C           1.8220    0.2757    1.2612 C.2     1  UNL1        0.2235
      3 C           2.4951   -0.5293    2.3455 C.3     1  UNL1        0.0776
      4 S           3.2726   -1.9727    1.6116 S.3     1  UNL1       -0.0785
      5 C           4.6483   -1.4443    0.5765 C.ar    1  UNL1        0.1699
      6 N           4.9458   -0.1392    0.4677 N.ar    1  UNL1       -0.2232
      7 C           5.9387    0.3628   -0.2572 C.ar    1  UNL1        0.0790
      8 C           6.1323    1.7287   -0.2798 C.ar    1  UNL1       -0.0355
      9 C           7.1537    2.2570   -1.0253 C.ar    1  UNL1       -0.0597
     10 C           7.9695    1.3879   -1.7419 C.ar    1  UNL1       -0.0609
     11 C           7.7730    0.0177   -1.7172 C.ar    1  UNL1       -0.0474
     12 C           6.7356   -0.5135   -0.9593 C.ar    1  UNL1        0.0647
     13 C           6.4495   -1.8410   -0.8616 C.ar    1  UNL1        0.2598
     14 O           7.1841   -2.6545   -1.5103 O.2     1  UNL1       -0.2671
     15 N           5.4230   -2.2999   -0.1065 N.ar    1  UNL1       -0.3014
     16 N           0.4436    0.0917    0.9753 N.am    1  UNL1       -0.3118
     17 C          -0.2776    0.8247   -0.0458 C.3     1  UNL1        0.0233
     18 C          -0.8221   -0.1810   -1.0078 C.3     1  UNL1       -0.0326
     19 C          -2.0836   -0.8458   -0.6447 C.3     1  UNL1       -0.0303
     20 C          -2.9201   -0.0377    0.3278 C.3     1  UNL1        0.0395
     21 N          -4.2478   -0.4889    0.5073 N.ar    1  UNL1       -0.2891
     22 C          -4.6884   -1.3371    1.4864 C.ar    1  UNL1        0.3278
     23 O          -3.9366   -1.8231    2.3595 O.2     1  UNL1       -0.2465
     24 N          -5.9797   -1.5460    1.3590 N.ar    1  UNL1       -0.3059
     25 C          -6.4502   -0.8569    0.3048 C.ar    1  UNL1        0.0684
     26 C          -7.7151   -0.7500   -0.2315 C.ar    1  UNL1       -0.0179
     27 C          -7.8571    0.0561   -1.3390 C.ar    1  UNL1        0.0430
     28 CL         -9.4702    0.1995   -2.0338 Cl      1  UNL1       -0.0835
     29 C          -6.7783    0.7200   -1.8769 C.ar    1  UNL1       -0.0413
     30 C          -5.5228    0.5961   -1.3207 C.ar    1  UNL1       -0.0346
     31 C          -5.3445   -0.1968   -0.2197 C.ar    1  UNL1        0.0700
     32 C          -2.6976    1.3843   -0.0356 C.3     1  UNL1       -0.0303
     33 C          -1.3144    1.7251    0.5697 C.3     1  UNL1       -0.0326
     34 H           3.2144    0.1129    2.9035 H       1  UNL1        0.0475
     35 H           1.6753   -0.8660    3.0146 H       1  UNL1        0.0475
     36 H           5.4837    2.3645    0.2834 H       1  UNL1        0.0639
     37 H           7.3463    3.3176   -1.0771 H       1  UNL1        0.0618
     38 H           8.7638    1.8229   -2.3189 H       1  UNL1        0.0618
     39 H           8.4018   -0.6494   -2.2697 H       1  UNL1        0.0626
     40 H           5.2054   -3.3331   -0.0337 H       1  UNL1        0.1709
     41 H          -0.0535   -0.6367    1.5671 H       1  UNL1        0.1490
     42 H           0.4640    1.4837   -0.5442 H       1  UNL1        0.0498
     43 H          -0.0609   -0.9530   -1.2488 H       1  UNL1        0.0284
     44 H          -0.9777    0.3499   -1.9835 H       1  UNL1        0.0284
     45 H          -1.8784   -1.8309   -0.1301 H       1  UNL1        0.0286
     46 H          -2.7329   -1.1222   -1.4967 H       1  UNL1        0.0286
     47 H          -2.3981   -0.2167    1.3264 H       1  UNL1        0.0529
     48 H          -6.6134   -2.1477    1.9544 H       1  UNL1        0.1705
     49 H          -8.5731   -1.2634    0.1759 H       1  UNL1        0.0653
     50 H          -6.9120    1.3473   -2.7460 H       1  UNL1        0.0633
     51 H          -4.6633    1.1049   -1.7256 H       1  UNL1        0.0639
     52 H          -3.4562    2.0937    0.2824 H       1  UNL1        0.0286
     53 H          -2.4393    1.4860   -1.1382 H       1  UNL1        0.0286
     54 H          -1.4015    1.4564    1.6384 H       1  UNL1        0.0284
     55 H          -1.1048    2.7807    0.3783 H       1  UNL1        0.0284
@<TRIPOS>BOND
     1     1     2    2
     2     2     3    1
     3     3     4    1
     4     4     5    1
     5     5     6   ar
     6     6     7   ar
     7     7     8   ar
     8     8     9   ar
     9     9    10   ar
    10    10    11   ar
    11    11    12   ar
    12    12    13   ar
    13    13    14    2
    14    13    15   ar
    15     2    16   am
    16    16    17    1
    17    17    18    1
    18    18    19    1
    19    19    20    1
    20    20    21    1
    21    21    22   ar
    22    22    23    2
    23    22    24   ar
    24    24    25   ar
    25    25    26   ar
    26    26    27   ar
    27    27    28    1
    28    27    29   ar
    29    29    30   ar
    30    30    31   ar
    31    20    32    1
    32    32    33    1
    33    15     5   ar
    34    33    17    1
    35    12     7   ar
    36    31    21   ar
    37    31    25   ar
    38     3    34    1
    39     3    35    1
    40     8    36    1
    41     9    37    1
    42    10    38    1
    43    11    39    1
    44    15    40    1
    45    16    41    1
    46    17    42    1
    47    18    43    1
    48    18    44    1
    49    19    45    1
    50    19    46    1
    51    20    47    1
    52    24    48    1
    53    26    49    1
    54    29    50    1
    55    30    51    1
    56    32    52    1
    57    32    53    1
    58    33    54    1
    59    33    55    1
