
     RDKit          3D

 55 59  0  0  0  0  0  0  0  0999 V2000
    2.4297    1.1289    0.5742 O   0  0  0  0  0  0  0  0  0  0  0  0
    1.8220    0.2757    1.2612 C   0  0  0  0  0  0  0  0  0  0  0  0
    2.4951   -0.5293    2.3455 C   0  0  0  0  0  0  0  0  0  0  0  0
    3.2726   -1.9727    1.6116 S   0  0  0  0  0  0  0  0  0  0  0  0
    4.6483   -1.4443    0.5765 C   0  0  0  0  0  0  0  0  0  0  0  0
    4.9458   -0.1392    0.4677 N   0  0  0  0  0  0  0  0  0  0  0  0
    5.9387    0.3628   -0.2572 C   0  0  0  0  0  0  0  0  0  0  0  0
    6.1323    1.7287   -0.2798 C   0  0  0  0  0  0  0  0  0  0  0  0
    7.1537    2.2570   -1.0253 C   0  0  0  0  0  0  0  0  0  0  0  0
    7.9695    1.3879   -1.7419 C   0  0  0  0  0  0  0  0  0  0  0  0
    7.7730    0.0177   -1.7172 C   0  0  0  0  0  0  0  0  0  0  0  0
    6.7356   -0.5135   -0.9593 C   0  0  0  0  0  0  0  0  0  0  0  0
    6.4495   -1.8410   -0.8616 C   0  0  0  0  0  0  0  0  0  0  0  0
    7.1841   -2.6545   -1.5103 O   0  0  0  0  0  0  0  0  0  0  0  0
    5.4230   -2.2999   -0.1065 N   0  0  0  0  0  0  0  0  0  0  0  0
    0.4436    0.0917    0.9753 N   0  0  0  0  0  0  0  0  0  0  0  0
   -0.2776    0.8247   -0.0458 C   0  0  1  0  0  0  0  0  0  0  0  0
   -0.8221   -0.1810   -1.0078 C   0  0  0  0  0  0  0  0  0  0  0  0
   -2.0836   -0.8458   -0.6447 C   0  0  0  0  0  0  0  0  0  0  0  0
   -2.9201   -0.0377    0.3278 C   0  0  2  0  0  0  0  0  0  0  0  0
   -4.2478   -0.4889    0.5073 N   0  0  0  0  0  0  0  0  0  0  0  0
   -4.6884   -1.3371    1.4864 C   0  0  0  0  0  0  0  0  0  0  0  0
   -3.9366   -1.8231    2.3595 O   0  0  0  0  0  0  0  0  0  0  0  0
   -5.9797   -1.5460    1.3590 N   0  0  0  0  0  0  0  0  0  0  0  0
   -6.4502   -0.8569    0.3048 C   0  0  0  0  0  0  0  0  0  0  0  0
   -7.7151   -0.7500   -0.2315 C   0  0  0  0  0  0  0  0  0  0  0  0
   -7.8571    0.0561   -1.3390 C   0  0  0  0  0  0  0  0  0  0  0  0
   -9.4702    0.1995   -2.0338 Cl  0  0  0  0  0  0  0  0  0  0  0  0
   -6.7783    0.7200   -1.8769 C   0  0  0  0  0  0  0  0  0  0  0  0
   -5.5228    0.5961   -1.3207 C   0  0  0  0  0  0  0  0  0  0  0  0
   -5.3445   -0.1968   -0.2197 C   0  0  0  0  0  0  0  0  0  0  0  0
   -2.6976    1.3843   -0.0356 C   0  0  0  0  0  0  0  0  0  0  0  0
   -1.3144    1.7251    0.5697 C   0  0  0  0  0  0  0  0  0  0  0  0
    3.2144    0.1129    2.9035 H   0  0  0  0  0  0  0  0  0  0  0  0
    1.6753   -0.8660    3.0146 H   0  0  0  0  0  0  0  0  0  0  0  0
    5.4837    2.3645    0.2834 H   0  0  0  0  0  0  0  0  0  0  0  0
    7.3463    3.3176   -1.0771 H   0  0  0  0  0  0  0  0  0  0  0  0
    8.7638    1.8229   -2.3189 H   0  0  0  0  0  0  0  0  0  0  0  0
    8.4018   -0.6494   -2.2697 H   0  0  0  0  0  0  0  0  0  0  0  0
    5.2054   -3.3331   -0.0337 H   0  0  0  0  0  0  0  0  0  0  0  0
   -0.0535   -0.6367    1.5671 H   0  0  0  0  0  0  0  0  0  0  0  0
    0.4640    1.4837   -0.5442 H   0  0  0  0  0  0  0  0  0  0  0  0
   -0.0609   -0.9530   -1.2488 H   0  0  0  0  0  0  0  0  0  0  0  0
   -0.9777    0.3499   -1.9835 H   0  0  0  0  0  0  0  0  0  0  0  0
   -1.8784   -1.8309   -0.1301 H   0  0  0  0  0  0  0  0  0  0  0  0
   -2.7329   -1.1222   -1.4967 H   0  0  0  0  0  0  0  0  0  0  0  0
   -2.3981   -0.2167    1.3264 H   0  0  0  0  0  0  0  0  0  0  0  0
   -6.6134   -2.1477    1.9544 H   0  0  0  0  0  0  0  0  0  0  0  0
   -8.5731   -1.2634    0.1759 H   0  0  0  0  0  0  0  0  0  0  0  0
   -6.9120    1.3473   -2.7460 H   0  0  0  0  0  0  0  0  0  0  0  0
   -4.6633    1.1049   -1.7256 H   0  0  0  0  0  0  0  0  0  0  0  0
   -3.4562    2.0937    0.2824 H   0  0  0  0  0  0  0  0  0  0  0  0
   -2.4393    1.4860   -1.1382 H   0  0  0  0  0  0  0  0  0  0  0  0
   -1.4015    1.4564    1.6384 H   0  0  0  0  0  0  0  0  0  0  0  0
   -1.1048    2.7807    0.3783 H   0  0  0  0  0  0  0  0  0  0  0  0
  1  2  2  0
  2  3  1  0
  3  4  1  0
  4  5  1  0
  5  6  2  0
  6  7  1  0
  7  8  2  0
  8  9  1  0
  9 10  2  0
 10 11  1  0
 11 12  2  0
 12 13  1  0
 13 14  2  0
 13 15  1  0
  2 16  1  0
 16 17  1  0
 17 18  1  0
 18 19  1  0
 19 20  1  0
 20 21  1  0
 21 22  1  0
 22 23  2  0
 22 24  1  0
 24 25  1  0
 25 26  2  0
 26 27  1  0
 27 28  1  0
 27 29  2  0
 29 30  1  0
 30 31  2  0
 20 32  1  0
 32 33  1  0
 15  5  1  0
 33 17  1  0
 12  7  1  0
 31 21  1  0
 31 25  1  0
  3 34  1  0
  3 35  1  0
  8 36  1  0
  9 37  1  0
 10 38  1  0
 11 39  1  0
 15 40  1  0
 16 41  1  0
 17 42  1  6
 18 43  1  0
 18 44  1  0
 19 45  1  0
 19 46  1  0
 20 47  1  1
 24 48  1  0
 26 49  1  0
 29 50  1  0
 30 51  1  0
 32 52  1  0
 32 53  1  0
 33 54  1  0
 33 55  1  0
M  END
$$$$
