@<TRIPOS>MOLECULE
*****
 36 35 0 0 0
SMALL
GASTEIGER

@<TRIPOS>ATOM
      1 C           4.8794    1.9777    0.6190 C.3     1  UNL1       -0.0653
      2 C           4.0719    1.2461   -0.4093 C.3     1  UNL1       -0.0558
      3 C           3.0247    0.3790    0.3000 C.3     1  UNL1       -0.0512
      4 C           2.2533   -0.3239   -0.7887 C.3     1  UNL1       -0.0278
      5 CA          1.1746   -1.2242   -0.2353 C.3     1  UNL1        0.0815
      6 C           1.7226   -2.2829    0.6437 C.2     1  UNL1        0.1405
      7 O           1.3301   -2.4341    1.7803 O.2     1  UNL1       -0.2991
      8 N           0.1765   -0.5006    0.5031 N.am    1  UNL1       -0.2718
      9 C          -1.1738   -0.5084    0.0948 C.2     1  UNL1        0.4013
     10 O          -1.4537   -1.1744   -0.9371 O.2     1  UNL1       -0.2264
     11 O          -2.1723    0.1920    0.8000 O.3     1  UNL1       -0.4447
     12 C          -3.4794    0.0833    0.2606 C.3     1  UNL1        0.1068
     13 C          -3.4187    0.6407   -1.1499 C.3     1  UNL1       -0.0253
     14 C          -4.4845    0.8372    1.0806 C.3     1  UNL1       -0.0253
     15 C          -3.8728   -1.3801    0.2713 C.3     1  UNL1       -0.0253
     16 H           4.2324    2.2664    1.4676 H       1  UNL1        0.0230
     17 H           5.3080    2.9011    0.1523 H       1  UNL1        0.0230
     18 H           5.7098    1.3129    0.9436 H       1  UNL1        0.0230
     19 H           3.5928    1.9378   -1.1193 H       1  UNL1        0.0263
     20 H           4.6950    0.5382   -1.0136 H       1  UNL1        0.0263
     21 H           2.3644    0.9740    0.9332 H       1  UNL1        0.0266
     22 H           3.5282   -0.3900    0.9038 H       1  UNL1        0.0266
     23 H           2.9721   -0.9735   -1.3319 H       1  UNL1        0.0287
     24 H           1.7824    0.3887   -1.4735 H       1  UNL1        0.0287
     25 HA          0.7368   -1.7571   -1.1241 H       1  UNL1        0.0575
     26 H           2.4895   -2.9410    0.2750 H       1  UNL1        0.1046
     27 H           0.4687    0.0304    1.3462 H       1  UNL1        0.1527
     28 H          -4.1405    1.4840   -1.2405 H       1  UNL1        0.0268
     29 H          -2.4181    1.0478   -1.4013 H       1  UNL1        0.0268
     30 H          -3.6736   -0.1458   -1.8804 H       1  UNL1        0.0268
     31 H          -4.1037    1.8061    1.4528 H       1  UNL1        0.0268
     32 H          -5.3418    1.0767    0.3978 H       1  UNL1        0.0268
     33 H          -4.8562    0.2195    1.9028 H       1  UNL1        0.0268
     34 H          -4.9015   -1.5239    0.6667 H       1  UNL1        0.0268
     35 H          -3.8236   -1.7933   -0.7610 H       1  UNL1        0.0268
     36 H          -3.1990   -1.9865    0.9340 H       1  UNL1        0.0268
@<TRIPOS>BOND
     1     1     2    1
     2     2     3    1
     3     3     4    1
     4     4     5    1
     5     5     6    1
     6     6     7    2
     7     5     8    1
     8     8     9   am
     9     9    10    2
    10     9    11    1
    11    11    12    1
    12    12    13    1
    13    12    14    1
    14    12    15    1
    15     1    16    1
    16     1    17    1
    17     1    18    1
    18     2    19    1
    19     2    20    1
    20     3    21    1
    21     3    22    1
    22     4    23    1
    23     4    24    1
    24     5    25    1
    25     6    26    1
    26     8    27    1
    27    13    28    1
    28    13    29    1
    29    13    30    1
    30    14    31    1
    31    14    32    1
    32    14    33    1
    33    15    34    1
    34    15    35    1
    35    15    36    1
