@<TRIPOS>MOLECULE
*****
 35 36 0 0 0
SMALL
GASTEIGER

@<TRIPOS>ATOM
      1 O           6.8078    1.4612   -0.3266 O.3     1  UNL1       -0.5039
      2 C           5.6068    0.7706   -0.1230 C.ar    1  UNL1        0.1519
      3 C           4.6832    1.3808    0.6975 C.ar    1  UNL1       -0.0167
      4 C           3.4829    0.6996    0.9062 C.ar    1  UNL1       -0.0494
      5 C           3.2335   -0.5245    0.3197 C.ar    1  UNL1       -0.0009
      6 C           1.9697   -1.2129    0.5562 C.2     1  UNL1        0.0744
      7 N           1.0535   -0.7067    1.3124 N.2     1  UNL1       -0.0822
      8 O          -0.1397   -1.4029    1.5088 O.3     1  UNL1       -0.3170
      9 C          -1.3662   -0.8107    1.2413 C.2     1  UNL1        0.3387
     10 O          -0.4607    0.0391    0.9769 O.2     1  UNL1       -0.2480
     11 C          -2.7417   -0.3697    1.0214 C.3     1  UNL1        0.0588
     12 C          -2.7330    1.0571    0.5105 C.3     1  UNL1       -0.0400
     13 C          -2.9370    0.9745   -1.0008 C.3     1  UNL1       -0.0523
     14 C          -4.4187    0.6813   -1.1727 C.3     1  UNL1       -0.0530
     15 C          -4.6940   -0.6473   -0.5204 C.3     1  UNL1       -0.0523
     16 C          -3.4826   -1.2850    0.0742 C.3     1  UNL1       -0.0400
     17 C           4.1785   -1.0860   -0.4833 C.ar    1  UNL1       -0.0141
     18 C           5.3681   -0.4568   -0.7169 C.ar    1  UNL1        0.1652
     19 F           6.3228   -1.0007   -1.5144 F       1  UNL1       -0.2016
     20 H           7.3702    1.7545    0.4814 H       1  UNL1        0.2923
     21 H           4.8925    2.3442    1.1525 H       1  UNL1        0.0655
     22 H           2.7400    1.1803    1.5603 H       1  UNL1        0.0625
     23 H           1.7717   -2.1629    0.1032 H       1  UNL1        0.0869
     24 H          -3.3479   -0.3459    1.9718 H       1  UNL1        0.0414
     25 H          -3.5406    1.6575    0.9423 H       1  UNL1        0.0273
     26 H          -1.7358    1.5340    0.7306 H       1  UNL1        0.0273
     27 H          -2.3331    0.1371   -1.3846 H       1  UNL1        0.0265
     28 H          -2.6672    1.9309   -1.4986 H       1  UNL1        0.0265
     29 H          -4.9565    1.4743   -0.5833 H       1  UNL1        0.0265
     30 H          -4.7473    0.7549   -2.2081 H       1  UNL1        0.0265
     31 H          -5.0942   -1.3394   -1.2881 H       1  UNL1        0.0265
     32 H          -5.4848   -0.5631    0.2634 H       1  UNL1        0.0265
     33 H          -3.8298   -2.1544    0.6751 H       1  UNL1        0.0273
     34 H          -2.8203   -1.7373   -0.7039 H       1  UNL1        0.0273
     35 H           4.0499   -2.0254   -0.9650 H       1  UNL1        0.0654
@<TRIPOS>BOND
     1     1     2    1
     2     2     3   ar
     3     3     4   ar
     4     4     5   ar
     5     5     6    1
     6     6     7    2
     7     7     8    1
     8     8     9    1
     9     9    10    2
    10     9    11    1
    11    11    12    1
    12    12    13    1
    13    13    14    1
    14    14    15    1
    15    15    16    1
    16     5    17   ar
    17    17    18   ar
    18    18    19    1
    19    18     2   ar
    20    16    11    1
    21     1    20    1
    22     3    21    1
    23     4    22    1
    24     6    23    1
    25    11    24    1
    26    12    25    1
    27    12    26    1
    28    13    27    1
    29    13    28    1
    30    14    29    1
    31    14    30    1
    32    15    31    1
    33    15    32    1
    34    16    33    1
    35    16    34    1
    36    17    35    1
