@<TRIPOS>MOLECULE
*****
 39 41 0 0 0
SMALL
GASTEIGER

@<TRIPOS>ATOM
      1 C           4.7672    1.9795   -1.5100 C.3     1  UNL1        0.0790
      2 O           4.4501    0.6966   -1.0143 O.3     1  UNL1       -0.4915
      3 C           3.1618    0.4910   -0.5026 C.ar    1  UNL1        0.1615
      4 C           2.2439    1.5024   -0.4856 C.ar    1  UNL1       -0.0157
      5 C           0.9557    1.2918    0.0274 C.ar    1  UNL1       -0.0491
      6 C           0.5591    0.1006    0.5210 C.ar    1  UNL1        0.0017
      7 C          -0.7864   -0.1763    1.0040 C.2     1  UNL1        0.0706
      8 N          -0.9478   -1.3442    1.6131 N.2     1  UNL1       -0.1840
      9 N          -2.1376   -1.7738    2.1488 N.am    1  UNL1       -0.2065
     10 C          -3.2466   -0.9153    2.0500 C.2     1  UNL1        0.2362
     11 O          -4.1942   -1.0364    2.8581 O.2     1  UNL1       -0.2737
     12 C          -3.2811    0.1021    1.0116 C.3     1  UNL1        0.0491
     13 C          -3.9521   -0.5674   -0.1758 C.3     1  UNL1       -0.0230
     14 C          -4.0482    0.3566   -1.3182 C.2     1  UNL1       -0.0872
     15 C          -3.0894    1.2130   -1.4795 C.2     1  UNL1       -0.0873
     16 C          -1.8853    1.3659   -0.6249 C.3     1  UNL1       -0.0257
     17 C          -1.9423    0.7052    0.7259 C.3     1  UNL1        0.0182
     18 C           1.5237   -0.9206    0.4919 C.ar    1  UNL1       -0.0074
     19 C           2.7895   -0.7434   -0.0022 C.ar    1  UNL1        0.1621
     20 O           3.7454   -1.7398   -0.0357 O.3     1  UNL1       -0.4914
     21 C           3.5439   -3.0512    0.4286 C.3     1  UNL1        0.0790
     22 H           5.7831    2.0513   -1.8944 H       1  UNL1        0.0660
     23 H           4.5932    2.6944   -0.6584 H       1  UNL1        0.0660
     24 H           3.9887    2.2340   -2.2695 H       1  UNL1        0.0660
     25 H           2.5184    2.4806   -0.8751 H       1  UNL1        0.0655
     26 H           0.3450    2.1650    0.0336 H       1  UNL1        0.0625
     27 H          -2.2197   -2.7331    2.6281 H       1  UNL1        0.1772
     28 H          -3.9897    0.9107    1.3609 H       1  UNL1        0.0404
     29 H          -4.9632   -0.8597    0.1708 H       1  UNL1        0.0315
     30 H          -3.3833   -1.4665   -0.4466 H       1  UNL1        0.0315
     31 H          -4.8844    0.3060   -1.9765 H       1  UNL1        0.0569
     32 H          -3.1682    1.8908   -2.3290 H       1  UNL1        0.0569
     33 H          -1.0658    0.9126   -1.2096 H       1  UNL1        0.0314
     34 H          -1.7281    2.4705   -0.5694 H       1  UNL1        0.0314
     35 H          -1.8324    1.5492    1.4764 H       1  UNL1        0.0375
     36 H           1.2569   -1.8910    0.8763 H       1  UNL1        0.0662
     37 H           3.1288   -3.7245   -0.3409 H       1  UNL1        0.0660
     38 H           4.5020   -3.5085    0.8065 H       1  UNL1        0.0660
     39 H           2.8893   -3.0179    1.3484 H       1  UNL1        0.0660
@<TRIPOS>BOND
     1     1     2    1
     2     2     3    1
     3     3     4   ar
     4     4     5   ar
     5     5     6   ar
     6     6     7    1
     7     7     8    2
     8     8     9    1
     9     9    10   am
    10    10    11    2
    11    10    12    1
    12    12    13    1
    13    13    14    1
    14    14    15    2
    15    15    16    1
    16    16    17    1
    17     6    18   ar
    18    18    19   ar
    19    19    20    1
    20    20    21    1
    21    19     3   ar
    22    17     7    1
    23    17    12    1
    24     1    22    1
    25     1    23    1
    26     1    24    1
    27     4    25    1
    28     5    26    1
    29     9    27    1
    30    12    28    1
    31    13    29    1
    32    13    30    1
    33    14    31    1
    34    15    32    1
    35    16    33    1
    36    16    34    1
    37    17    35    1
    38    18    36    1
    39    21    37    1
    40    21    38    1
    41    21    39    1
