@<TRIPOS>MOLECULE
*****
 60 63 0 0 0
SMALL
GASTEIGER

@<TRIPOS>ATOM
      1 C           6.6693    1.9144   -2.6519 C.3     1  UNL1        0.0790
      2 O           7.3089    0.8568   -1.9361 O.3     1  UNL1       -0.4914
      3 C           6.5252    0.1159   -1.0634 C.ar    1  UNL1        0.1623
      4 C           5.1696    0.3751   -0.8781 C.ar    1  UNL1       -0.0056
      5 C           4.4060   -0.3658   -0.0113 C.ar    1  UNL1        0.0219
      6 C           3.0392   -0.1188    0.1879 C.ar    1  UNL1       -0.0364
      7 C           2.3460   -0.9057    1.0735 C.ar    1  UNL1        0.0672
      8 C           0.9335   -0.6715    1.3011 C.ar    1  UNL1       -0.0110
      9 C           0.0158   -1.7180    1.3673 C.ar    1  UNL1       -0.0535
     10 C          -1.3267   -1.4830    1.5834 C.ar    1  UNL1       -0.0568
     11 C          -1.8425   -0.2130    1.7461 C.ar    1  UNL1       -0.0333
     12 C          -3.2950    0.0425    1.9837 C.3     1  UNL1        0.0244
     13 N          -4.0862    0.2129    0.8753 N.3     1  UNL1       -0.2918
     14 C          -3.9785    1.1490   -0.1081 C.3     1  UNL1        0.0228
     15 C          -4.2392    2.5896    0.2152 C.3     1  UNL1        0.0569
     16 O          -5.5195    2.8324    0.6933 O.3     1  UNL1       -0.3937
     17 C          -5.1514   -0.7288    0.7669 C.3     1  UNL1        0.0244
     18 C          -5.9347   -0.5604   -0.4595 C.ar    1  UNL1       -0.0334
     19 C          -5.5485   -1.2656   -1.5922 C.ar    1  UNL1       -0.0573
     20 C          -6.2419   -1.1509   -2.7569 C.ar    1  UNL1       -0.0615
     21 C          -7.3388   -0.3307   -2.8248 C.ar    1  UNL1       -0.0617
     22 C          -7.7414    0.3753   -1.7251 C.ar    1  UNL1       -0.0615
     23 C          -7.0371    0.2585   -0.5427 C.ar    1  UNL1       -0.0573
     24 C          -0.9275    0.8172    1.6792 C.ar    1  UNL1       -0.0568
     25 C           0.4172    0.5999    1.4641 C.ar    1  UNL1       -0.0535
     26 C           3.0250   -1.9021    1.7260 C.ar    1  UNL1        0.3451
     27 O           2.4557   -2.6612    2.5503 O.2     1  UNL1       -0.2445
     28 O           4.3191   -2.1159    1.5199 O.2     1  UNL1       -0.4216
     29 C           5.0115   -1.3866    0.6842 C.ar    1  UNL1        0.1428
     30 C           6.3697   -1.6460    0.4981 C.ar    1  UNL1        0.0267
     31 C           7.1354   -0.9054   -0.3693 C.ar    1  UNL1        0.1650
     32 O           8.4618   -1.1826   -0.5303 O.3     1  UNL1       -0.4913
     33 C           9.1982   -2.1800    0.1044 C.3     1  UNL1        0.0790
     34 H           6.3310    2.6333   -1.8508 H       1  UNL1        0.0660
     35 H           5.7829    1.5668   -3.2080 H       1  UNL1        0.0660
     36 H           7.4045    2.3850   -3.3173 H       1  UNL1        0.0660
     37 H           4.7247    1.1758   -1.4326 H       1  UNL1        0.0662
     38 H           2.6121    0.6827   -0.3731 H       1  UNL1        0.0633
     39 H           0.4177   -2.7282    1.2391 H       1  UNL1        0.0624
     40 H          -2.0224   -2.3095    1.6311 H       1  UNL1        0.0621
     41 H          -3.3392    0.8158    2.7816 H       1  UNL1        0.0476
     42 H          -3.6431   -0.8947    2.5253 H       1  UNL1        0.0476
     43 H          -4.6678    0.9218   -0.9612 H       1  UNL1        0.0449
     44 H          -2.9623    1.0591   -0.6068 H       1  UNL1        0.0449
     45 H          -4.1837    3.1377   -0.7721 H       1  UNL1        0.0570
     46 H          -3.5265    3.0622    0.8717 H       1  UNL1        0.0570
     47 H          -5.4655    3.2213    1.5993 H       1  UNL1        0.2095
     48 H          -5.8185   -0.7015    1.6692 H       1  UNL1        0.0476
     49 H          -4.7777   -1.7957    0.7663 H       1  UNL1        0.0476
     50 H          -4.6857   -1.9117   -1.5407 H       1  UNL1        0.0621
     51 H          -5.9154   -1.7131   -3.6193 H       1  UNL1        0.0618
     52 H          -7.8724   -0.2641   -3.7807 H       1  UNL1        0.0618
     53 H          -8.6068    1.0322   -1.7511 H       1  UNL1        0.0618
     54 H          -7.3542    0.8172    0.3310 H       1  UNL1        0.0621
     55 H          -1.2976    1.8232    1.8023 H       1  UNL1        0.0621
     56 H           1.1434    1.4111    1.4105 H       1  UNL1        0.0624
     57 H           6.8138   -2.4518    1.0574 H       1  UNL1        0.0692
     58 H           8.6214   -3.0844    0.3743 H       1  UNL1        0.0660
     59 H           9.5962   -1.7463    1.0668 H       1  UNL1        0.0660
     60 H          10.0926   -2.5010   -0.4826 H       1  UNL1        0.0660
@<TRIPOS>BOND
     1     1     2    1
     2     2     3    1
     3     3     4   ar
     4     4     5   ar
     5     5     6   ar
     6     6     7   ar
     7     7     8    1
     8     8     9   ar
     9     9    10   ar
    10    10    11   ar
    11    11    12    1
    12    12    13    1
    13    13    14    1
    14    14    15    1
    15    15    16    1
    16    13    17    1
    17    17    18    1
    18    18    19   ar
    19    19    20   ar
    20    20    21   ar
    21    21    22   ar
    22    22    23   ar
    23    11    24   ar
    24    24    25   ar
    25     7    26   ar
    26    26    27    2
    27    26    28   ar
    28    28    29   ar
    29    29    30   ar
    30    30    31   ar
    31    31    32    1
    32    32    33    1
    33    31     3   ar
    34    29     5   ar
    35    25     8   ar
    36    23    18   ar
    37     1    34    1
    38     1    35    1
    39     1    36    1
    40     4    37    1
    41     6    38    1
    42     9    39    1
    43    10    40    1
    44    12    41    1
    45    12    42    1
    46    14    43    1
    47    14    44    1
    48    15    45    1
    49    15    46    1
    50    16    47    1
    51    17    48    1
    52    17    49    1
    53    19    50    1
    54    20    51    1
    55    21    52    1
    56    22    53    1
    57    23    54    1
    58    24    55    1
    59    25    56    1
    60    30    57    1
    61    33    58    1
    62    33    59    1
    63    33    60    1
