@<TRIPOS>MOLECULE
*****
 55 59 0 0 0
SMALL
GASTEIGER

@<TRIPOS>ATOM
      1 O          -7.3169   -1.8612   -1.9231 O.3     1  UNL1       -0.4910
      2 C          -6.2839   -1.2799   -1.1974 C.ar    1  UNL1        0.2398
      3 N          -5.1065   -1.9205   -1.0294 N.ar    1  UNL1       -0.1108
      4 N          -4.1014   -1.3987   -0.3455 N.ar    1  UNL1       -0.1498
      5 C          -4.2164   -0.1659    0.2299 C.ar    1  UNL1        0.0758
      6 C          -3.1832    0.5257    1.0114 C.3     1  UNL1        0.0172
      7 C          -1.9721   -0.3322    1.0837 C.ar    1  UNL1       -0.0406
      8 C          -1.0123   -0.1952    0.0969 C.ar    1  UNL1       -0.0433
      9 C           0.1126   -0.9902    0.1616 C.ar    1  UNL1        0.0723
     10 C           1.1233   -0.8453   -0.8784 C.2     1  UNL1        0.2495
     11 O           1.3832   -1.3488   -2.0199 O.2     1  UNL1       -0.2699
     12 N           2.2299    0.0488   -0.8283 N.am    1  UNL1       -0.2945
     13 C           3.0654   -0.0461   -2.0350 C.3     1  UNL1        0.0308
     14 C           4.3172    0.7871   -1.8075 C.3     1  UNL1        0.0305
     15 N           4.5942    0.9291   -0.3874 N.am    1  UNL1       -0.2983
     16 C           3.5672    1.6965    0.2868 C.3     1  UNL1        0.0305
     17 C           2.3138    0.8505    0.3620 C.3     1  UNL1        0.0308
     18 C           5.6767    0.4497    0.4142 C.2     1  UNL1        0.2187
     19 O           5.7621    0.6676    1.6514 O.2     1  UNL1       -0.2753
     20 C           6.7902   -0.3474   -0.1563 C.3     1  UNL1        0.0358
     21 C           8.1372   -0.2491    0.4142 C.3     1  UNL1       -0.0412
     22 C           7.3014   -1.4817    0.6964 C.3     1  UNL1       -0.0412
     23 C           0.3137   -1.9150    1.1737 C.ar    1  UNL1        0.1355
     24 F           1.4242   -2.6865    1.2206 F       1  UNL1       -0.2047
     25 C          -0.6423   -2.0618    2.1699 C.ar    1  UNL1       -0.0254
     26 C          -1.7618   -1.2545    2.0847 C.ar    1  UNL1       -0.0555
     27 C          -5.4169    0.5360    0.0833 C.ar    1  UNL1        0.0106
     28 C          -5.6008    1.7902    0.6408 C.ar    1  UNL1       -0.0521
     29 C          -6.7883    2.4709    0.4889 C.ar    1  UNL1       -0.0611
     30 C          -7.8095    1.8888   -0.2323 C.ar    1  UNL1       -0.0610
     31 C          -7.6614    0.6238   -0.8102 C.ar    1  UNL1       -0.0488
     32 C          -6.4577   -0.0308   -0.6382 C.ar    1  UNL1        0.0468
     33 H          -7.8607   -2.6351   -1.5478 H       1  UNL1        0.2938
     34 H          -3.5693    0.7347    2.0408 H       1  UNL1        0.0377
     35 H          -2.8970    1.5061    0.5896 H       1  UNL1        0.0377
     36 H          -1.1090    0.5068   -0.7187 H       1  UNL1        0.0629
     37 H           3.3003   -1.1337   -2.1554 H       1  UNL1        0.0480
     38 H           2.5494    0.3232   -2.9295 H       1  UNL1        0.0480
     39 H           5.1588    0.2855   -2.3139 H       1  UNL1        0.0480
     40 H           4.1029    1.8077   -2.2090 H       1  UNL1        0.0480
     41 H           3.2973    2.6023   -0.3282 H       1  UNL1        0.0480
     42 H           3.8877    2.0141    1.3060 H       1  UNL1        0.0480
     43 H           1.4163    1.4788    0.5252 H       1  UNL1        0.0480
     44 H           2.4591    0.1384    1.2072 H       1  UNL1        0.0480
     45 H           6.7107   -0.5372   -1.2477 H       1  UNL1        0.0394
     46 H           9.0283   -0.4520   -0.2142 H       1  UNL1        0.0273
     47 H           8.3537    0.3594    1.3282 H       1  UNL1        0.0273
     48 H           6.8591   -1.6141    1.7171 H       1  UNL1        0.0273
     49 H           7.5610   -2.4274    0.1523 H       1  UNL1        0.0273
     50 H          -0.5336   -2.7693    2.9823 H       1  UNL1        0.0646
     51 H          -2.5272   -1.3316    2.8307 H       1  UNL1        0.0621
     52 H          -4.7953    2.2449    1.2073 H       1  UNL1        0.0624
     53 H          -6.9581    3.4615    0.9189 H       1  UNL1        0.0618
     54 H          -8.7507    2.4120   -0.3609 H       1  UNL1        0.0618
     55 H          -8.4641    0.1714   -1.3744 H       1  UNL1        0.0625
@<TRIPOS>BOND
     1     1     2    1
     2     2     3   ar
     3     3     4   ar
     4     4     5   ar
     5     5     6    1
     6     6     7    1
     7     7     8   ar
     8     8     9   ar
     9     9    10    1
    10    10    11    2
    11    10    12   am
    12    12    13    1
    13    13    14    1
    14    14    15    1
    15    15    16    1
    16    16    17    1
    17    15    18   am
    18    18    19    2
    19    18    20    1
    20    20    21    1
    21    21    22    1
    22     9    23   ar
    23    23    24    1
    24    23    25   ar
    25    25    26   ar
    26     5    27   ar
    27    27    28   ar
    28    28    29   ar
    29    29    30   ar
    30    30    31   ar
    31    31    32   ar
    32    32     2   ar
    33    26     7   ar
    34    32    27   ar
    35    17    12    1
    36    22    20    1
    37     1    33    1
    38     6    34    1
    39     6    35    1
    40     8    36    1
    41    13    37    1
    42    13    38    1
    43    14    39    1
    44    14    40    1
    45    16    41    1
    46    16    42    1
    47    17    43    1
    48    17    44    1
    49    20    45    1
    50    21    46    1
    51    21    47    1
    52    22    48    1
    53    22    49    1
    54    25    50    1
    55    26    51    1
    56    28    52    1
    57    29    53    1
    58    30    54    1
    59    31    55    1
