@<TRIPOS>MOLECULE
*****
 56 60 0 0 0
SMALL
GASTEIGER

@<TRIPOS>ATOM
      1 C          -3.4275   -3.0463    0.7737 C.3     1  UNL1       -0.0220
      2 C          -1.9492   -3.1297    0.6946 C.ar    1  UNL1        0.0471
      3 C          -1.0923   -2.1594    0.2222 C.ar    1  UNL1        0.0643
      4 C          -1.2863   -0.8771   -0.2982 C.ar    1  UNL1        0.1324
      5 O          -2.4548   -0.3628   -0.4207 O.3     1  UNL1       -0.4880
      6 C          -3.6364    0.1547   -0.5435 C.3     1  UNL1        0.1021
      7 C          -4.1019    0.4858   -1.9682 C.3     1  UNL1       -0.0275
      8 C          -3.9287    1.3955    0.3301 C.3     1  UNL1        0.0195
      9 C          -3.7897    1.0769    1.7901 C.3     1  UNL1        0.0182
     10 N          -3.5065    2.3574    2.3884 N.am    1  UNL1       -0.3149
     11 C          -3.0666    3.2635    1.3844 C.2     1  UNL1        0.2135
     12 O          -2.8401    4.4786    1.6096 O.2     1  UNL1       -0.2758
     13 C          -2.9477    2.4954    0.1089 C.3     1  UNL1        0.0315
     14 C          -0.1481   -0.1482   -0.6915 C.ar    1  UNL1       -0.0113
     15 C           1.1288   -0.6331   -0.5884 C.ar    1  UNL1       -0.0094
     16 C           2.3015    0.1442   -1.0008 C.ar    1  UNL1        0.0198
     17 C           2.4005    1.0730   -2.0148 C.ar    1  UNL1        0.0571
     18 N           3.6675    1.5442   -2.0363 N.ar    1  UNL1       -0.1788
     19 N           4.3824    0.9512   -1.0742 N.ar    1  UNL1       -0.2678
     20 C           5.7802    1.2126   -0.8026 C.3     1  UNL1        0.0527
     21 C           6.0763    1.6128    0.6284 C.3     1  UNL1       -0.0304
     22 C           6.7219    2.8924    0.1753 C.3     1  UNL1       -0.0492
     23 C           6.2959    2.5508   -1.2428 C.3     1  UNL1       -0.0304
     24 C           3.5705    0.0985   -0.4356 C.ar    1  UNL1        0.0335
     25 C           1.2782   -1.9002   -0.0707 C.ar    1  UNL1       -0.0259
     26 C           0.1874   -2.6435    0.3248 C.ar    1  UNL1        0.0971
     27 N           0.0577   -3.8932    0.8572 N.ar    1  UNL1       -0.1711
     28 N          -1.2095   -4.1821    1.0768 N.ar    1  UNL1       -0.2704
     29 C          -1.7290   -5.4143    1.6333 C.3     1  UNL1        0.0305
     30 H          -3.7111   -2.1936    1.4080 H       1  UNL1        0.0293
     31 H          -3.8693   -3.9853    1.1327 H       1  UNL1        0.0293
     32 H          -3.7792   -2.8615   -0.2708 H       1  UNL1        0.0293
     33 H          -4.4460   -0.5645   -0.1882 H       1  UNL1        0.0733
     34 H          -3.3246    0.9742   -2.5574 H       1  UNL1        0.0265
     35 H          -4.4530   -0.4411   -2.4899 H       1  UNL1        0.0265
     36 H          -5.0022    1.1228   -1.8493 H       1  UNL1        0.0265
     37 H          -4.9533    1.7942    0.0802 H       1  UNL1        0.0356
     38 H          -2.8857    0.4491    1.9054 H       1  UNL1        0.0466
     39 H          -4.6933    0.5941    2.2161 H       1  UNL1        0.0466
     40 H          -3.6237    2.5453    3.4243 H       1  UNL1        0.1487
     41 H          -1.9149    2.1485    0.0182 H       1  UNL1        0.0363
     42 H          -3.2458    3.2017   -0.6977 H       1  UNL1        0.0363
     43 H          -0.2460    0.8551   -1.1047 H       1  UNL1        0.0660
     44 H           1.5986    1.3702   -2.6761 H       1  UNL1        0.0854
     45 H           6.4694    0.4065   -1.1478 H       1  UNL1        0.0545
     46 H           5.1757    1.7575    1.2558 H       1  UNL1        0.0286
     47 H           6.8347    0.9746    1.1383 H       1  UNL1        0.0286
     48 H           6.2757    3.8344    0.5677 H       1  UNL1        0.0267
     49 H           7.8455    2.9064    0.2344 H       1  UNL1        0.0267
     50 H           7.1532    2.5071   -1.9702 H       1  UNL1        0.0286
     51 H           5.5330    3.2355   -1.6633 H       1  UNL1        0.0286
     52 H           3.8429   -0.5478    0.4082 H       1  UNL1        0.0832
     53 H           2.2719   -2.2917    0.0152 H       1  UNL1        0.0646
     54 H          -0.9571   -6.1829    1.5634 H       1  UNL1        0.0473
     55 H          -2.6286   -5.7017    1.0715 H       1  UNL1        0.0473
     56 H          -2.0013   -5.3044    2.7191 H       1  UNL1        0.0473
@<TRIPOS>BOND
     1     1     2    1
     2     2     3   ar
     3     3     4   ar
     4     4     5    1
     5     5     6    1
     6     6     7    1
     7     6     8    1
     8     8     9    1
     9     9    10    1
    10    10    11   am
    11    11    12    2
    12    11    13    1
    13     4    14   ar
    14    14    15   ar
    15    15    16    1
    16    16    17   ar
    17    17    18   ar
    18    18    19   ar
    19    19    20    1
    20    20    21    1
    21    21    22    1
    22    22    23    1
    23    19    24   ar
    24    15    25   ar
    25    25    26   ar
    26    26    27   ar
    27    27    28   ar
    28    28    29    1
    29    28     2   ar
    30    26     3   ar
    31    13     8    1
    32    24    16   ar
    33    23    20    1
    34     1    30    1
    35     1    31    1
    36     1    32    1
    37     6    33    1
    38     7    34    1
    39     7    35    1
    40     7    36    1
    41     8    37    1
    42     9    38    1
    43     9    39    1
    44    10    40    1
    45    13    41    1
    46    13    42    1
    47    14    43    1
    48    17    44    1
    49    20    45    1
    50    21    46    1
    51    21    47    1
    52    22    48    1
    53    22    49    1
    54    23    50    1
    55    23    51    1
    56    24    52    1
    57    25    53    1
    58    29    54    1
    59    29    55    1
    60    29    56    1
