
     RDKit          3D

 56 60  0  0  0  0  0  0  0  0999 V2000
   -3.4275   -3.0463    0.7737 C   0  0  0  0  0  0  0  0  0  0  0  0
   -1.9492   -3.1297    0.6946 C   0  0  0  0  0  0  0  0  0  0  0  0
   -1.0923   -2.1594    0.2222 C   0  0  0  0  0  0  0  0  0  0  0  0
   -1.2863   -0.8771   -0.2982 C   0  0  0  0  0  0  0  0  0  0  0  0
   -2.4548   -0.3628   -0.4207 O   0  0  0  0  0  0  0  0  0  0  0  0
   -3.6364    0.1547   -0.5435 C   0  0  2  0  0  0  0  0  0  0  0  0
   -4.1019    0.4858   -1.9682 C   0  0  0  0  0  0  0  0  0  0  0  0
   -3.9287    1.3955    0.3301 C   0  0  1  0  0  0  0  0  0  0  0  0
   -3.7897    1.0769    1.7901 C   0  0  0  0  0  0  0  0  0  0  0  0
   -3.5065    2.3574    2.3884 N   0  0  0  0  0  0  0  0  0  0  0  0
   -3.0666    3.2635    1.3844 C   0  0  0  0  0  0  0  0  0  0  0  0
   -2.8401    4.4786    1.6096 O   0  0  0  0  0  0  0  0  0  0  0  0
   -2.9477    2.4954    0.1089 C   0  0  0  0  0  0  0  0  0  0  0  0
   -0.1481   -0.1482   -0.6915 C   0  0  0  0  0  0  0  0  0  0  0  0
    1.1288   -0.6331   -0.5884 C   0  0  0  0  0  0  0  0  0  0  0  0
    2.3015    0.1442   -1.0008 C   0  0  0  0  0  0  0  0  0  0  0  0
    2.4005    1.0730   -2.0148 C   0  0  0  0  0  0  0  0  0  0  0  0
    3.6675    1.5442   -2.0363 N   0  0  0  0  0  0  0  0  0  0  0  0
    4.3824    0.9512   -1.0742 N   0  0  0  0  0  0  0  0  0  0  0  0
    5.7802    1.2126   -0.8026 C   0  0  0  0  0  0  0  0  0  0  0  0
    6.0763    1.6128    0.6284 C   0  0  0  0  0  0  0  0  0  0  0  0
    6.7219    2.8924    0.1753 C   0  0  0  0  0  0  0  0  0  0  0  0
    6.2959    2.5508   -1.2428 C   0  0  0  0  0  0  0  0  0  0  0  0
    3.5705    0.0985   -0.4356 C   0  0  0  0  0  0  0  0  0  0  0  0
    1.2782   -1.9002   -0.0707 C   0  0  0  0  0  0  0  0  0  0  0  0
    0.1874   -2.6435    0.3248 C   0  0  0  0  0  0  0  0  0  0  0  0
    0.0577   -3.8932    0.8572 N   0  0  0  0  0  0  0  0  0  0  0  0
   -1.2095   -4.1821    1.0768 N   0  0  0  0  0  0  0  0  0  0  0  0
   -1.7290   -5.4143    1.6333 C   0  0  0  0  0  0  0  0  0  0  0  0
   -3.7111   -2.1936    1.4080 H   0  0  0  0  0  0  0  0  0  0  0  0
   -3.8693   -3.9853    1.1327 H   0  0  0  0  0  0  0  0  0  0  0  0
   -3.7792   -2.8615   -0.2708 H   0  0  0  0  0  0  0  0  0  0  0  0
   -4.4460   -0.5645   -0.1882 H   0  0  0  0  0  0  0  0  0  0  0  0
   -3.3246    0.9742   -2.5574 H   0  0  0  0  0  0  0  0  0  0  0  0
   -4.4530   -0.4411   -2.4899 H   0  0  0  0  0  0  0  0  0  0  0  0
   -5.0022    1.1228   -1.8493 H   0  0  0  0  0  0  0  0  0  0  0  0
   -4.9533    1.7942    0.0802 H   0  0  0  0  0  0  0  0  0  0  0  0
   -2.8857    0.4491    1.9054 H   0  0  0  0  0  0  0  0  0  0  0  0
   -4.6933    0.5941    2.2161 H   0  0  0  0  0  0  0  0  0  0  0  0
   -3.6237    2.5453    3.4243 H   0  0  0  0  0  0  0  0  0  0  0  0
   -1.9149    2.1485    0.0182 H   0  0  0  0  0  0  0  0  0  0  0  0
   -3.2458    3.2017   -0.6977 H   0  0  0  0  0  0  0  0  0  0  0  0
   -0.2460    0.8551   -1.1047 H   0  0  0  0  0  0  0  0  0  0  0  0
    1.5986    1.3702   -2.6761 H   0  0  0  0  0  0  0  0  0  0  0  0
    6.4694    0.4065   -1.1478 H   0  0  0  0  0  0  0  0  0  0  0  0
    5.1757    1.7575    1.2558 H   0  0  0  0  0  0  0  0  0  0  0  0
    6.8347    0.9746    1.1383 H   0  0  0  0  0  0  0  0  0  0  0  0
    6.2757    3.8344    0.5677 H   0  0  0  0  0  0  0  0  0  0  0  0
    7.8455    2.9064    0.2344 H   0  0  0  0  0  0  0  0  0  0  0  0
    7.1532    2.5071   -1.9702 H   0  0  0  0  0  0  0  0  0  0  0  0
    5.5330    3.2355   -1.6633 H   0  0  0  0  0  0  0  0  0  0  0  0
    3.8429   -0.5478    0.4082 H   0  0  0  0  0  0  0  0  0  0  0  0
    2.2719   -2.2917    0.0152 H   0  0  0  0  0  0  0  0  0  0  0  0
   -0.9571   -6.1829    1.5634 H   0  0  0  0  0  0  0  0  0  0  0  0
   -2.6286   -5.7017    1.0715 H   0  0  0  0  0  0  0  0  0  0  0  0
   -2.0013   -5.3044    2.7191 H   0  0  0  0  0  0  0  0  0  0  0  0
  1  2  1  0
  2  3  2  0
  3  4  1  0
  4  5  1  0
  5  6  1  0
  6  7  1  0
  6  8  1  0
  8  9  1  0
  9 10  1  0
 10 11  1  0
 11 12  2  0
 11 13  1  0
  4 14  2  0
 14 15  1  0
 15 16  1  0
 16 17  1  0
 17 18  2  0
 18 19  1  0
 19 20  1  0
 20 21  1  0
 21 22  1  0
 22 23  1  0
 19 24  1  0
 15 25  2  0
 25 26  1  0
 26 27  2  0
 27 28  1  0
 28 29  1  0
 28  2  1  0
 26  3  1  0
 13  8  1  0
 24 16  2  0
 23 20  1  0
  1 30  1  0
  1 31  1  0
  1 32  1  0
  6 33  1  1
  7 34  1  0
  7 35  1  0
  7 36  1  0
  8 37  1  1
  9 38  1  0
  9 39  1  0
 10 40  1  0
 13 41  1  0
 13 42  1  0
 14 43  1  0
 17 44  1  0
 20 45  1  0
 21 46  1  0
 21 47  1  0
 22 48  1  0
 22 49  1  0
 23 50  1  0
 23 51  1  0
 24 52  1  0
 25 53  1  0
 29 54  1  0
 29 55  1  0
 29 56  1  0
M  END
$$$$
