@<TRIPOS>MOLECULE
*****
 61 65 0 0 0
SMALL
GASTEIGER

@<TRIPOS>ATOM
      1 O           8.0484    2.4640    0.3962 O.2     1  UNL1       -0.2510
      2 C           7.9897    1.2163    0.5152 C.2     1  UNL1        0.3050
      3 O           8.5061    0.6346    1.6590 O.3     1  UNL1       -0.4806
      4 C           7.3852    0.3990   -0.5363 C.3     1  UNL1        0.0476
      5 C           5.9565    0.8731   -0.8563 C.3     1  UNL1       -0.0310
      6 C           5.3502    0.0445   -1.9294 C.3     1  UNL1       -0.0492
      7 C           4.5982   -1.1508   -1.4751 C.3     1  UNL1       -0.0470
      8 C           3.6199   -0.8574   -0.3586 C.3     1  UNL1       -0.0264
      9 C           4.4646   -0.3222    0.7787 C.3     1  UNL1       -0.0470
     10 C           5.1766    0.9403    0.4179 C.3     1  UNL1       -0.0492
     11 C           2.6669    0.2294   -0.7666 C.3     1  UNL1       -0.0315
     12 C           1.4277   -0.3568   -1.4521 C.3     1  UNL1        0.0140
     13 N           0.7480   -1.0885   -0.4005 N.pl3   1  UNL1       -0.3151
     14 C          -0.6250   -0.8422   -0.1931 C.ar    1  UNL1        0.1212
     15 C          -1.3623   -1.5132    0.7790 C.ar    1  UNL1       -0.0210
     16 C          -2.7054   -1.2493    0.9572 C.ar    1  UNL1       -0.0464
     17 C          -3.3618   -0.3158    0.1815 C.ar    1  UNL1        0.0355
     18 C          -4.7763   -0.0159    0.3444 C.ar    1  UNL1        0.1407
     19 N          -5.4967    0.8631   -0.3479 N.ar    1  UNL1       -0.2277
     20 C          -6.7748    0.8722    0.0767 C.ar    1  UNL1        0.0900
     21 C          -7.8896    1.5797   -0.3003 C.ar    1  UNL1       -0.0226
     22 C          -9.1042    1.3701    0.3350 C.ar    1  UNL1        0.0569
     23 C         -10.3338    2.1217   -0.0507 C.3     1  UNL1        0.4175
     24 F         -11.0720    1.3874   -0.9721 F       1  UNL1       -0.1659
     25 F          -9.9964    3.3465   -0.5733 F       1  UNL1       -0.1659
     26 F         -11.0413    2.3515    1.1166 F       1  UNL1       -0.1659
     27 C          -9.1721    0.4422    1.3474 C.ar    1  UNL1       -0.0480
     28 C          -8.0493   -0.2666    1.7217 C.ar    1  UNL1       -0.0357
     29 C          -6.8359   -0.0614    1.0926 C.ar    1  UNL1        0.0665
     30 N          -5.6067   -0.5887    1.2383 N.ar    1  UNL1       -0.3378
     31 C          -2.5928    0.3266   -0.7703 C.ar    1  UNL1        0.0403
     32 N          -1.2859    0.0607   -0.9337 N.ar    1  UNL1       -0.2396
     33 C           1.5157   -2.0320    0.3701 C.3     1  UNL1        0.0140
     34 C           2.9441   -2.1350    0.0296 C.3     1  UNL1       -0.0315
     35 H           8.4458    1.1032    2.5799 H       1  UNL1        0.2951
     36 H           7.3464   -0.6734   -0.3372 H       1  UNL1        0.0380
     37 H           7.9409    0.5008   -1.5179 H       1  UNL1        0.0380
     38 H           6.0728    1.9011   -1.2328 H       1  UNL1        0.0306
     39 H           6.1760   -0.3056   -2.5866 H       1  UNL1        0.0268
     40 H           4.6854    0.6417   -2.6197 H       1  UNL1        0.0268
     41 H           5.3504   -1.9028   -1.1025 H       1  UNL1        0.0271
     42 H           4.0456   -1.5612   -2.3447 H       1  UNL1        0.0271
     43 H           3.7786   -0.0935    1.6252 H       1  UNL1        0.0271
     44 H           5.1640   -1.1083    1.0966 H       1  UNL1        0.0271
     45 H           5.9013    1.1541    1.2345 H       1  UNL1        0.0268
     46 H           4.4409    1.7670    0.4179 H       1  UNL1        0.0268
     47 H           2.2927    0.7143    0.1586 H       1  UNL1        0.0286
     48 H           3.0798    0.9962   -1.4096 H       1  UNL1        0.0286
     49 H           1.7481   -1.0309   -2.2521 H       1  UNL1        0.0464
     50 H           0.8409    0.5150   -1.8071 H       1  UNL1        0.0464
     51 H          -0.8260   -2.2248    1.3569 H       1  UNL1        0.0652
     52 H          -3.2640   -1.7775    1.7199 H       1  UNL1        0.0626
     53 H          -7.8476    2.3143   -1.0956 H       1  UNL1        0.0645
     54 H         -10.1262    0.2744    1.8480 H       1  UNL1        0.0624
     55 H          -8.0968   -1.0017    2.5201 H       1  UNL1        0.0639
     56 H          -5.3284   -1.3228    1.9260 H       1  UNL1        0.1674
     57 H          -3.1212    1.0652   -1.3817 H       1  UNL1        0.0837
     58 H           1.3277   -1.8864    1.4494 H       1  UNL1        0.0464
     59 H           1.0477   -3.0402    0.1511 H       1  UNL1        0.0464
     60 H           3.1096   -2.9077   -0.7654 H       1  UNL1        0.0286
     61 H           3.5001   -2.5366    0.9280 H       1  UNL1        0.0286
@<TRIPOS>BOND
     1     1     2    2
     2     2     3    1
     3     2     4    1
     4     4     5    1
     5     5     6    1
     6     6     7    1
     7     7     8    1
     8     8     9    1
     9     9    10    1
    10     8    11    1
    11    11    12    1
    12    12    13    1
    13    13    14    1
    14    14    15   ar
    15    15    16   ar
    16    16    17   ar
    17    17    18    1
    18    18    19   ar
    19    19    20   ar
    20    20    21   ar
    21    21    22   ar
    22    22    23    1
    23    23    24    1
    24    23    25    1
    25    23    26    1
    26    22    27   ar
    27    27    28   ar
    28    28    29   ar
    29    29    30   ar
    30    17    31   ar
    31    31    32   ar
    32    13    33    1
    33    33    34    1
    34    10     5    1
    35    32    14   ar
    36    34     8    1
    37    30    18   ar
    38    29    20   ar
    39     3    35    1
    40     4    36    1
    41     4    37    1
    42     5    38    1
    43     6    39    1
    44     6    40    1
    45     7    41    1
    46     7    42    1
    47     9    43    1
    48     9    44    1
    49    10    45    1
    50    10    46    1
    51    11    47    1
    52    11    48    1
    53    12    49    1
    54    12    50    1
    55    15    51    1
    56    16    52    1
    57    21    53    1
    58    27    54    1
    59    28    55    1
    60    30    56    1
    61    31    57    1
    62    33    58    1
    63    33    59    1
    64    34    60    1
    65    34    61    1
