
     RDKit          3D

 61 65  0  0  0  0  0  0  0  0999 V2000
    8.0484    2.4640    0.3962 O   0  0  0  0  0  0  0  0  0  0  0  0
    7.9897    1.2163    0.5152 C   0  0  0  0  0  0  0  0  0  0  0  0
    8.5061    0.6346    1.6590 O   0  0  0  0  0  0  0  0  0  0  0  0
    7.3852    0.3990   -0.5363 C   0  0  0  0  0  0  0  0  0  0  0  0
    5.9565    0.8731   -0.8563 C   0  0  0  0  0  0  0  0  0  0  0  0
    5.3502    0.0445   -1.9294 C   0  0  0  0  0  0  0  0  0  0  0  0
    4.5982   -1.1508   -1.4751 C   0  0  0  0  0  0  0  0  0  0  0  0
    3.6199   -0.8574   -0.3586 C   0  0  0  0  0  0  0  0  0  0  0  0
    4.4646   -0.3222    0.7787 C   0  0  0  0  0  0  0  0  0  0  0  0
    5.1766    0.9403    0.4179 C   0  0  0  0  0  0  0  0  0  0  0  0
    2.6669    0.2294   -0.7666 C   0  0  0  0  0  0  0  0  0  0  0  0
    1.4277   -0.3568   -1.4521 C   0  0  0  0  0  0  0  0  0  0  0  0
    0.7480   -1.0885   -0.4005 N   0  0  0  0  0  0  0  0  0  0  0  0
   -0.6250   -0.8422   -0.1931 C   0  0  0  0  0  0  0  0  0  0  0  0
   -1.3623   -1.5132    0.7790 C   0  0  0  0  0  0  0  0  0  0  0  0
   -2.7054   -1.2493    0.9572 C   0  0  0  0  0  0  0  0  0  0  0  0
   -3.3618   -0.3158    0.1815 C   0  0  0  0  0  0  0  0  0  0  0  0
   -4.7763   -0.0159    0.3444 C   0  0  0  0  0  0  0  0  0  0  0  0
   -5.4967    0.8631   -0.3479 N   0  0  0  0  0  0  0  0  0  0  0  0
   -6.7748    0.8722    0.0767 C   0  0  0  0  0  0  0  0  0  0  0  0
   -7.8896    1.5797   -0.3003 C   0  0  0  0  0  0  0  0  0  0  0  0
   -9.1042    1.3701    0.3350 C   0  0  0  0  0  0  0  0  0  0  0  0
  -10.3338    2.1217   -0.0507 C   0  0  0  0  0  0  0  0  0  0  0  0
  -11.0720    1.3874   -0.9721 F   0  0  0  0  0  0  0  0  0  0  0  0
   -9.9964    3.3465   -0.5733 F   0  0  0  0  0  0  0  0  0  0  0  0
  -11.0413    2.3515    1.1166 F   0  0  0  0  0  0  0  0  0  0  0  0
   -9.1721    0.4422    1.3474 C   0  0  0  0  0  0  0  0  0  0  0  0
   -8.0493   -0.2666    1.7217 C   0  0  0  0  0  0  0  0  0  0  0  0
   -6.8359   -0.0614    1.0926 C   0  0  0  0  0  0  0  0  0  0  0  0
   -5.6067   -0.5887    1.2383 N   0  0  0  0  0  0  0  0  0  0  0  0
   -2.5928    0.3266   -0.7703 C   0  0  0  0  0  0  0  0  0  0  0  0
   -1.2859    0.0607   -0.9337 N   0  0  0  0  0  0  0  0  0  0  0  0
    1.5157   -2.0320    0.3701 C   0  0  0  0  0  0  0  0  0  0  0  0
    2.9441   -2.1350    0.0296 C   0  0  0  0  0  0  0  0  0  0  0  0
    8.4458    1.1032    2.5799 H   0  0  0  0  0  0  0  0  0  0  0  0
    7.3464   -0.6734   -0.3372 H   0  0  0  0  0  0  0  0  0  0  0  0
    7.9409    0.5008   -1.5179 H   0  0  0  0  0  0  0  0  0  0  0  0
    6.0728    1.9011   -1.2328 H   0  0  0  0  0  0  0  0  0  0  0  0
    6.1760   -0.3056   -2.5866 H   0  0  0  0  0  0  0  0  0  0  0  0
    4.6854    0.6417   -2.6197 H   0  0  0  0  0  0  0  0  0  0  0  0
    5.3504   -1.9028   -1.1025 H   0  0  0  0  0  0  0  0  0  0  0  0
    4.0456   -1.5612   -2.3447 H   0  0  0  0  0  0  0  0  0  0  0  0
    3.7786   -0.0935    1.6252 H   0  0  0  0  0  0  0  0  0  0  0  0
    5.1640   -1.1083    1.0966 H   0  0  0  0  0  0  0  0  0  0  0  0
    5.9013    1.1541    1.2345 H   0  0  0  0  0  0  0  0  0  0  0  0
    4.4409    1.7670    0.4179 H   0  0  0  0  0  0  0  0  0  0  0  0
    2.2927    0.7143    0.1586 H   0  0  0  0  0  0  0  0  0  0  0  0
    3.0798    0.9962   -1.4096 H   0  0  0  0  0  0  0  0  0  0  0  0
    1.7481   -1.0309   -2.2521 H   0  0  0  0  0  0  0  0  0  0  0  0
    0.8409    0.5150   -1.8071 H   0  0  0  0  0  0  0  0  0  0  0  0
   -0.8260   -2.2248    1.3569 H   0  0  0  0  0  0  0  0  0  0  0  0
   -3.2640   -1.7775    1.7199 H   0  0  0  0  0  0  0  0  0  0  0  0
   -7.8476    2.3143   -1.0956 H   0  0  0  0  0  0  0  0  0  0  0  0
  -10.1262    0.2744    1.8480 H   0  0  0  0  0  0  0  0  0  0  0  0
   -8.0968   -1.0017    2.5201 H   0  0  0  0  0  0  0  0  0  0  0  0
   -5.3284   -1.3228    1.9260 H   0  0  0  0  0  0  0  0  0  0  0  0
   -3.1212    1.0652   -1.3817 H   0  0  0  0  0  0  0  0  0  0  0  0
    1.3277   -1.8864    1.4494 H   0  0  0  0  0  0  0  0  0  0  0  0
    1.0477   -3.0402    0.1511 H   0  0  0  0  0  0  0  0  0  0  0  0
    3.1096   -2.9077   -0.7654 H   0  0  0  0  0  0  0  0  0  0  0  0
    3.5001   -2.5366    0.9280 H   0  0  0  0  0  0  0  0  0  0  0  0
  1  2  2  0
  2  3  1  0
  2  4  1  0
  4  5  1  0
  5  6  1  0
  6  7  1  0
  7  8  1  0
  8  9  1  0
  9 10  1  0
  8 11  1  0
 11 12  1  0
 12 13  1  0
 13 14  1  0
 14 15  2  0
 15 16  1  0
 16 17  2  0
 17 18  1  0
 18 19  2  0
 19 20  1  0
 20 21  2  0
 21 22  1  0
 22 23  1  0
 23 24  1  0
 23 25  1  0
 23 26  1  0
 22 27  2  0
 27 28  1  0
 28 29  2  0
 29 30  1  0
 17 31  1  0
 31 32  2  0
 13 33  1  0
 33 34  1  0
 10  5  1  0
 32 14  1  0
 34  8  1  0
 30 18  1  0
 29 20  1  0
  3 35  1  0
  4 36  1  0
  4 37  1  0
  5 38  1  0
  6 39  1  0
  6 40  1  0
  7 41  1  0
  7 42  1  0
  9 43  1  0
  9 44  1  0
 10 45  1  0
 10 46  1  0
 11 47  1  0
 11 48  1  0
 12 49  1  0
 12 50  1  0
 15 51  1  0
 16 52  1  0
 21 53  1  0
 27 54  1  0
 28 55  1  0
 30 56  1  0
 31 57  1  0
 33 58  1  0
 33 59  1  0
 34 60  1  0
 34 61  1  0
M  END
$$$$
