@<TRIPOS>MOLECULE
*****
 78 85 0 0 0
SMALL
GASTEIGER

@<TRIPOS>ATOM
      1 C          -1.1676   -1.0392    0.8707 C.3     1  UNL1        0.0375
      2 C          -0.1442   -1.8289    1.6555 C.3     1  UNL1        0.0987
      3 O          -1.0218   -2.5393    2.5452 O.3     1  UNL1       -0.4640
      4 C          -2.1384   -1.7245    2.8213 C.2     1  UNL1        0.3116
      5 O          -3.0981   -2.0125    3.6160 O.2     1  UNL1       -0.2505
      6 C          -1.9745   -0.4976    2.0219 C.3     1  UNL1        0.0758
      7 C          -3.2093    0.1264    1.5116 C.3     1  UNL1        0.0233
      8 C          -4.0803   -0.7122    0.6665 C.ar    1  UNL1       -0.0320
      9 C          -3.8930   -0.9613   -0.6733 C.ar    1  UNL1       -0.0123
     10 C          -4.6992   -1.7527   -1.4615 C.ar    1  UNL1        0.1653
     11 O          -4.4474   -1.9608   -2.8146 O.3     1  UNL1       -0.4913
     12 C          -3.3101   -1.3238   -3.3954 C.3     1  UNL1        0.0790
     13 C          -5.7922   -2.3515   -0.8601 C.ar    1  UNL1        0.2010
     14 O          -6.6057   -3.1563   -1.6728 O.3     1  UNL1       -0.5009
     15 C          -6.0276   -2.1295    0.5029 C.ar    1  UNL1        0.1653
     16 O          -7.1587   -2.8014    0.9443 O.3     1  UNL1       -0.4913
     17 C          -7.5197   -2.6694    2.3039 C.3     1  UNL1        0.0790
     18 C          -5.1900   -1.3278    1.2463 C.ar    1  UNL1       -0.0123
     19 C          -2.7901    1.2801    0.6621 C.ar    1  UNL1       -0.0298
     20 C          -3.5586    2.3867    0.4918 C.ar    1  UNL1       -0.0120
     21 C          -3.1916    3.4610   -0.2904 C.ar    1  UNL1        0.1665
     22 C          -1.9733    3.4094   -0.9380 C.ar    1  UNL1        0.1666
     23 O          -1.8471    4.5884   -1.6439 O.3     1  UNL1       -0.4526
     24 C          -2.8117    5.5293   -1.2191 C.3     1  UNL1        0.2332
     25 O          -3.7941    4.6840   -0.6147 O.3     1  UNL1       -0.4526
     26 C          -1.1850    2.2844   -0.7686 C.ar    1  UNL1       -0.0102
     27 C          -1.5465    1.1905    0.0215 C.ar    1  UNL1       -0.0109
     28 C          -0.5577    0.0804    0.0741 C.3     1  UNL1        0.0938
     29 O           0.5972    0.5826    0.6478 O.3     1  UNL1       -0.3404
     30 C           1.7246    0.4779   -0.1506 C.3     1  UNL1        0.1886
     31 O           2.5077   -0.5141    0.4562 O.3     1  UNL1       -0.3405
     32 C           3.7956   -0.5280   -0.0295 C.3     1  UNL1        0.1137
     33 C           4.5490   -1.7236    0.4099 C.3     1  UNL1        0.0798
     34 O           5.7986   -1.5676    0.8932 O.3     1  UNL1       -0.3440
     35 C           6.4674   -0.4085    0.6917 C.3     1  UNL1        0.1921
     36 O           5.7793    0.6148    0.0897 O.3     1  UNL1       -0.3382
     37 C           4.4847    0.6801    0.5924 C.3     1  UNL1        0.1187
     38 C           3.7535    1.9282    0.2704 C.3     1  UNL1        0.1144
     39 O           3.4647    2.5907    1.4860 O.3     1  UNL1       -0.3864
     40 C           2.4439    1.7433   -0.4334 C.3     1  UNL1        0.1341
     41 O           2.7245    1.7815   -1.8191 O.3     1  UNL1       -0.3841
     42 C           7.7012   -0.6259   -0.1373 C.ar    1  UNL1        0.0451
     43 C           8.2269    0.0648   -1.2043 C.ar    1  UNL1       -0.0467
     44 C           9.3831   -0.3837   -1.7586 C.ar    1  UNL1       -0.0543
     45 C           9.9937   -1.5142   -1.2369 C.ar    1  UNL1       -0.0239
     46 S           8.8348   -1.9826    0.1545 S.2     1  UNL1       -0.0966
     47 H          -1.7305   -1.7679    0.2810 H       1  UNL1        0.0370
     48 H           0.5133   -1.2134    2.2802 H       1  UNL1        0.0701
     49 H           0.4220   -2.5368    1.0270 H       1  UNL1        0.0701
     50 H          -1.3642    0.2729    2.5381 H       1  UNL1        0.0427
     51 H          -3.7858    0.5461    2.3861 H       1  UNL1        0.0405
     52 H          -3.0639   -0.5124   -1.2003 H       1  UNL1        0.0658
     53 H          -3.2232   -1.5487   -4.4674 H       1  UNL1        0.0660
     54 H          -2.4101   -1.7185   -2.8915 H       1  UNL1        0.0660
     55 H          -3.3590   -0.2229   -3.2799 H       1  UNL1        0.0660
     56 H          -6.7598   -2.8991   -2.6412 H       1  UNL1        0.2924
     57 H          -8.3221   -3.4070    2.5484 H       1  UNL1        0.0660
     58 H          -6.6008   -2.8366    2.9073 H       1  UNL1        0.0660
     59 H          -7.9087   -1.6524    2.5497 H       1  UNL1        0.0660
     60 H          -5.4683   -1.2321    2.2686 H       1  UNL1        0.0658
     61 H          -4.5146    2.3837    1.0229 H       1  UNL1        0.0658
     62 H          -3.2279    6.1285   -2.0536 H       1  UNL1        0.1166
     63 H          -2.4099    6.1764   -0.3947 H       1  UNL1        0.1166
     64 H          -0.2589    2.3206   -1.3028 H       1  UNL1        0.0659
     65 H          -0.4182   -0.3319   -0.9436 H       1  UNL1        0.0651
     66 H           1.3642   -0.0128   -1.0999 H       1  UNL1        0.0938
     67 H           3.8261   -0.4807   -1.1407 H       1  UNL1        0.0647
     68 H           4.5700   -2.4962   -0.4143 H       1  UNL1        0.0588
     69 H           3.9381   -2.2396    1.2093 H       1  UNL1        0.0588
     70 H           6.8296   -0.0284    1.6686 H       1  UNL1        0.0970
     71 H           4.5544    0.4554    1.6678 H       1  UNL1        0.0651
     72 H           4.3837    2.6235   -0.3593 H       1  UNL1        0.0648
     73 H           3.0042    3.4440    1.2648 H       1  UNL1        0.2100
     74 H           1.8627    2.6662   -0.2416 H       1  UNL1        0.0671
     75 H           3.6580    1.9759   -2.0201 H       1  UNL1        0.2101
     76 H           7.6597    0.9255   -1.5180 H       1  UNL1        0.0627
     77 H           9.8432    0.1275   -2.6081 H       1  UNL1        0.0623
     78 H          10.9001   -1.9790   -1.5685 H       1  UNL1        0.0693
@<TRIPOS>BOND
     1     1     2    1
     2     2     3    1
     3     3     4    1
     4     4     5    2
     5     4     6    1
     6     6     7    1
     7     7     8    1
     8     8     9   ar
     9     9    10   ar
    10    10    11    1
    11    11    12    1
    12    10    13   ar
    13    13    14    1
    14    13    15   ar
    15    15    16    1
    16    16    17    1
    17    15    18   ar
    18     7    19    1
    19    19    20   ar
    20    20    21   ar
    21    21    22   ar
    22    22    23    1
    23    23    24    1
    24    24    25    1
    25    22    26   ar
    26    26    27   ar
    27    27    28    1
    28    28    29    1
    29    29    30    1
    30    30    31    1
    31    31    32    1
    32    32    33    1
    33    33    34    1
    34    34    35    1
    35    35    36    1
    36    36    37    1
    37    37    38    1
    38    38    39    1
    39    38    40    1
    40    40    41    1
    41    35    42    1
    42    42    43   ar
    43    43    44   ar
    44    44    45   ar
    45    45    46   ar
    46     6     1    1
    47    18     8   ar
    48    27    19   ar
    49    40    30    1
    50    46    42   ar
    51    28     1    1
    52    37    32    1
    53    25    21    1
    54     1    47    1
    55     2    48    1
    56     2    49    1
    57     6    50    1
    58     7    51    1
    59     9    52    1
    60    12    53    1
    61    12    54    1
    62    12    55    1
    63    14    56    1
    64    17    57    1
    65    17    58    1
    66    17    59    1
    67    18    60    1
    68    20    61    1
    69    24    62    1
    70    24    63    1
    71    26    64    1
    72    28    65    1
    73    30    66    1
    74    32    67    1
    75    33    68    1
    76    33    69    1
    77    35    70    1
    78    37    71    1
    79    38    72    1
    80    39    73    1
    81    40    74    1
    82    41    75    1
    83    43    76    1
    84    44    77    1
    85    45    78    1
