@<TRIPOS>MOLECULE
*****
 47 50 0 0 0
SMALL
GASTEIGER

@<TRIPOS>ATOM
      1 C           1.3790    0.1591    1.0022 C.3     1  UNL1        0.0282
      2 N           1.5638    1.2662    1.9507 N.3     1  UNL1       -0.3254
      3 C          -0.0492    0.1390    0.5096 C.3     1  UNL1        0.0304
      4 N          -0.2100    1.2838   -0.3918 N.am    1  UNL1       -0.2997
      5 C          -1.0162    2.4594   -0.3451 C.3     1  UNL1        0.0187
      6 C          -2.3745    2.3183   -0.9852 C.3     1  UNL1       -0.0117
      7 C          -3.1856    1.2595   -0.3363 C.ar    1  UNL1       -0.0422
      8 C          -3.9878    1.6500    0.7292 C.ar    1  UNL1       -0.0548
      9 C          -4.7758    0.7230    1.3901 C.ar    1  UNL1       -0.0159
     10 C          -4.6968   -0.5764    0.9143 C.ar    1  UNL1        0.1662
     11 O          -5.3621   -1.6983    1.3725 O.3     1  UNL1       -0.4526
     12 C          -5.3042   -2.6703    0.3495 C.3     1  UNL1        0.2332
     13 O          -4.0974   -2.3528   -0.3184 O.3     1  UNL1       -0.4526
     14 C          -3.9106   -0.9809   -0.1362 C.ar    1  UNL1        0.1665
     15 C          -3.1322   -0.0446   -0.7832 C.ar    1  UNL1       -0.0129
     16 C           0.6408    1.1235   -1.5218 C.2     1  UNL1        0.2162
     17 O           0.5194    1.7622   -2.6231 O.2     1  UNL1       -0.2756
     18 C           1.7750    0.1597   -1.4899 C.3     1  UNL1        0.0325
     19 C           2.3841    0.2839   -0.0871 C.3     1  UNL1        0.0118
     20 C           3.5547   -0.6140    0.0536 C.ar    1  UNL1       -0.0042
     21 C           3.4986   -1.9233    0.4836 C.ar    1  UNL1       -0.0174
     22 C           4.6069   -2.7351    0.6034 C.ar    1  UNL1        0.1588
     23 F           4.5121   -4.0176    1.0298 F       1  UNL1       -0.2025
     24 C           5.8559   -2.2437    0.2842 C.ar    1  UNL1        0.1611
     25 F           7.0085   -2.9535    0.3654 F       1  UNL1       -0.2024
     26 C           5.9927   -0.9429   -0.1535 C.ar    1  UNL1        0.0119
     27 C           4.8502   -0.1821   -0.2525 C.ar    1  UNL1        0.1298
     28 F           4.9768    1.1058   -0.6846 F       1  UNL1       -0.2051
     29 H           1.5873   -0.7533    1.5946 H       1  UNL1        0.0480
     30 H           1.1730    2.1498    1.5304 H       1  UNL1        0.1185
     31 H           1.1734    1.0252    2.8742 H       1  UNL1        0.1185
     32 H          -0.2019   -0.8252    0.0010 H       1  UNL1        0.0480
     33 H          -0.7089    0.2021    1.3918 H       1  UNL1        0.0480
     34 H          -0.4591    3.3163   -0.7234 H       1  UNL1        0.0468
     35 H          -1.2215    2.6749    0.7402 H       1  UNL1        0.0468
     36 H          -2.8736    3.3069   -0.8576 H       1  UNL1        0.0328
     37 H          -2.3363    2.0903   -2.0667 H       1  UNL1        0.0328
     38 H          -4.0004    2.6975    1.0521 H       1  UNL1        0.0621
     39 H          -5.4076    0.9897    2.2171 H       1  UNL1        0.0655
     40 H          -5.2426   -3.7081    0.7253 H       1  UNL1        0.1166
     41 H          -6.1834   -2.6103   -0.3253 H       1  UNL1        0.1166
     42 H          -2.5099   -0.3501   -1.6104 H       1  UNL1        0.0658
     43 H           2.5576    0.3952   -2.2153 H       1  UNL1        0.0365
     44 H           1.3459   -0.8591   -1.5693 H       1  UNL1        0.0365
     45 H           2.8079    1.3323   -0.0884 H       1  UNL1        0.0370
     46 H           2.5418   -2.3346    0.7388 H       1  UNL1        0.0651
     47 H           6.9421   -0.4972   -0.4195 H       1  UNL1        0.0676
@<TRIPOS>BOND
     1     1     2    1
     2     1     3    1
     3     3     4    1
     4     4     5    1
     5     5     6    1
     6     6     7    1
     7     7     8   ar
     8     8     9   ar
     9     9    10   ar
    10    10    11    1
    11    11    12    1
    12    12    13    1
    13    13    14    1
    14    14    15   ar
    15     4    16   am
    16    16    17    2
    17    16    18    1
    18    18    19    1
    19    19    20    1
    20    20    21   ar
    21    21    22   ar
    22    22    23    1
    23    22    24   ar
    24    24    25    1
    25    24    26   ar
    26    26    27   ar
    27    27    28    1
    28    19     1    1
    29    27    20   ar
    30    15     7   ar
    31    14    10   ar
    32     1    29    1
    33     2    30    1
    34     2    31    1
    35     3    32    1
    36     3    33    1
    37     5    34    1
    38     5    35    1
    39     6    36    1
    40     6    37    1
    41     8    38    1
    42     9    39    1
    43    12    40    1
    44    12    41    1
    45    15    42    1
    46    18    43    1
    47    18    44    1
    48    19    45    1
    49    21    46    1
    50    26    47    1
