
     RDKit          3D

 47 50  0  0  0  0  0  0  0  0999 V2000
    1.3790    0.1591    1.0022 C   0  0  1  0  0  0  0  0  0  0  0  0
    1.5638    1.2662    1.9507 N   0  0  0  0  0  0  0  0  0  0  0  0
   -0.0492    0.1390    0.5096 C   0  0  0  0  0  0  0  0  0  0  0  0
   -0.2100    1.2838   -0.3918 N   0  0  0  0  0  0  0  0  0  0  0  0
   -1.0162    2.4594   -0.3451 C   0  0  0  0  0  0  0  0  0  0  0  0
   -2.3745    2.3183   -0.9852 C   0  0  0  0  0  0  0  0  0  0  0  0
   -3.1856    1.2595   -0.3363 C   0  0  0  0  0  0  0  0  0  0  0  0
   -3.9878    1.6500    0.7292 C   0  0  0  0  0  0  0  0  0  0  0  0
   -4.7758    0.7230    1.3901 C   0  0  0  0  0  0  0  0  0  0  0  0
   -4.6968   -0.5764    0.9143 C   0  0  0  0  0  0  0  0  0  0  0  0
   -5.3621   -1.6983    1.3725 O   0  0  0  0  0  0  0  0  0  0  0  0
   -5.3042   -2.6703    0.3495 C   0  0  0  0  0  0  0  0  0  0  0  0
   -4.0974   -2.3528   -0.3184 O   0  0  0  0  0  0  0  0  0  0  0  0
   -3.9106   -0.9809   -0.1362 C   0  0  0  0  0  0  0  0  0  0  0  0
   -3.1322   -0.0446   -0.7832 C   0  0  0  0  0  0  0  0  0  0  0  0
    0.6408    1.1235   -1.5218 C   0  0  0  0  0  0  0  0  0  0  0  0
    0.5194    1.7622   -2.6231 O   0  0  0  0  0  0  0  0  0  0  0  0
    1.7750    0.1597   -1.4899 C   0  0  0  0  0  0  0  0  0  0  0  0
    2.3841    0.2839   -0.0871 C   0  0  2  0  0  0  0  0  0  0  0  0
    3.5547   -0.6140    0.0536 C   0  0  0  0  0  0  0  0  0  0  0  0
    3.4986   -1.9233    0.4836 C   0  0  0  0  0  0  0  0  0  0  0  0
    4.6069   -2.7351    0.6034 C   0  0  0  0  0  0  0  0  0  0  0  0
    4.5121   -4.0176    1.0298 F   0  0  0  0  0  0  0  0  0  0  0  0
    5.8559   -2.2437    0.2842 C   0  0  0  0  0  0  0  0  0  0  0  0
    7.0085   -2.9535    0.3654 F   0  0  0  0  0  0  0  0  0  0  0  0
    5.9927   -0.9429   -0.1535 C   0  0  0  0  0  0  0  0  0  0  0  0
    4.8502   -0.1821   -0.2525 C   0  0  0  0  0  0  0  0  0  0  0  0
    4.9768    1.1058   -0.6846 F   0  0  0  0  0  0  0  0  0  0  0  0
    1.5873   -0.7533    1.5946 H   0  0  0  0  0  0  0  0  0  0  0  0
    1.1730    2.1498    1.5304 H   0  0  0  0  0  0  0  0  0  0  0  0
    1.1734    1.0252    2.8742 H   0  0  0  0  0  0  0  0  0  0  0  0
   -0.2019   -0.8252    0.0010 H   0  0  0  0  0  0  0  0  0  0  0  0
   -0.7089    0.2021    1.3918 H   0  0  0  0  0  0  0  0  0  0  0  0
   -0.4591    3.3163   -0.7234 H   0  0  0  0  0  0  0  0  0  0  0  0
   -1.2215    2.6749    0.7402 H   0  0  0  0  0  0  0  0  0  0  0  0
   -2.8736    3.3069   -0.8576 H   0  0  0  0  0  0  0  0  0  0  0  0
   -2.3363    2.0903   -2.0667 H   0  0  0  0  0  0  0  0  0  0  0  0
   -4.0004    2.6975    1.0521 H   0  0  0  0  0  0  0  0  0  0  0  0
   -5.4076    0.9897    2.2171 H   0  0  0  0  0  0  0  0  0  0  0  0
   -5.2426   -3.7081    0.7253 H   0  0  0  0  0  0  0  0  0  0  0  0
   -6.1834   -2.6103   -0.3253 H   0  0  0  0  0  0  0  0  0  0  0  0
   -2.5099   -0.3501   -1.6104 H   0  0  0  0  0  0  0  0  0  0  0  0
    2.5576    0.3952   -2.2153 H   0  0  0  0  0  0  0  0  0  0  0  0
    1.3459   -0.8591   -1.5693 H   0  0  0  0  0  0  0  0  0  0  0  0
    2.8079    1.3323   -0.0884 H   0  0  0  0  0  0  0  0  0  0  0  0
    2.5418   -2.3346    0.7388 H   0  0  0  0  0  0  0  0  0  0  0  0
    6.9421   -0.4972   -0.4195 H   0  0  0  0  0  0  0  0  0  0  0  0
  1  2  1  0
  1  3  1  0
  3  4  1  0
  4  5  1  0
  5  6  1  0
  6  7  1  0
  7  8  2  0
  8  9  1  0
  9 10  2  0
 10 11  1  0
 11 12  1  0
 12 13  1  0
 13 14  1  0
 14 15  2  0
  4 16  1  0
 16 17  2  0
 16 18  1  0
 18 19  1  0
 19 20  1  0
 20 21  2  0
 21 22  1  0
 22 23  1  0
 22 24  2  0
 24 25  1  0
 24 26  1  0
 26 27  2  0
 27 28  1  0
 19  1  1  0
 27 20  1  0
 15  7  1  0
 14 10  1  0
  1 29  1  1
  2 30  1  0
  2 31  1  0
  3 32  1  0
  3 33  1  0
  5 34  1  0
  5 35  1  0
  6 36  1  0
  6 37  1  0
  8 38  1  0
  9 39  1  0
 12 40  1  0
 12 41  1  0
 15 42  1  0
 18 43  1  0
 18 44  1  0
 19 45  1  6
 21 46  1  0
 26 47  1  0
M  END
$$$$
