
     RDKit          3D

 45 45  0  0  0  0  0  0  0  0999 V2000
   -2.7488   -1.2952    0.9026 C   0  0  1  0  0  0  0  0  0  0  0  0
   -2.4231   -0.6818    2.1134 O   0  0  0  0  0  0  0  0  0  0  0  0
   -4.0198   -0.6557    0.3776 C   0  0  2  0  0  0  0  0  0  0  0  0
   -4.6339   -1.5700   -0.4667 O   0  0  0  0  0  0  0  0  0  0  0  0
   -3.6872    0.6137   -0.3776 C   0  0  1  0  0  0  0  0  0  0  0  0
   -4.7482    1.6776   -0.2315 C   0  0  0  0  0  0  0  0  0  0  0  0
   -5.9681    1.2802   -0.7711 O   0  0  0  0  0  0  0  0  0  0  0  0
   -2.5136    1.1175    0.1945 O   0  0  0  0  0  0  0  0  0  0  0  0
   -1.4260    0.4125   -0.3143 C   0  0  1  0  0  0  0  0  0  0  0  0
   -0.2321    0.8821    0.1694 O   0  0  0  0  0  0  0  0  0  0  0  0
    0.5757    1.4514   -0.8036 C   0  0  0  0  0  0  0  0  0  0  0  0
    1.8508    1.9298   -0.1671 C   0  0  0  0  0  0  0  0  0  0  0  0
    2.6199    0.8020    0.4893 C   0  0  0  0  0  0  0  0  0  0  0  0
    2.9864   -0.2513   -0.5294 C   0  0  0  0  0  0  0  0  0  0  0  0
    3.7490   -1.3811    0.0910 C   0  0  0  0  0  0  0  0  0  0  0  0
    5.0383   -0.9754    0.7360 C   0  0  0  0  0  0  0  0  0  0  0  0
    6.0224   -0.3413   -0.1798 C   0  0  0  0  0  0  0  0  0  0  0  0
   -1.6111   -1.0558   -0.0663 C   0  0  2  0  0  0  0  0  0  0  0  0
   -1.8584   -1.7801   -1.2317 O   0  0  0  0  0  0  0  0  0  0  0  0
   -2.9006   -2.3859    1.0318 H   0  0  0  0  0  0  0  0  0  0  0  0
   -3.1637   -0.0875    2.4427 H   0  0  0  0  0  0  0  0  0  0  0  0
   -4.6853   -0.3563    1.2252 H   0  0  0  0  0  0  0  0  0  0  0  0
   -5.3815   -2.0485   -0.0292 H   0  0  0  0  0  0  0  0  0  0  0  0
   -3.4844    0.4085   -1.4536 H   0  0  0  0  0  0  0  0  0  0  0  0
   -4.3469    2.5945   -0.6961 H   0  0  0  0  0  0  0  0  0  0  0  0
   -4.8233    1.9070    0.8624 H   0  0  0  0  0  0  0  0  0  0  0  0
   -5.8290    0.5307   -1.4330 H   0  0  0  0  0  0  0  0  0  0  0  0
   -1.4257    0.6267   -1.4209 H   0  0  0  0  0  0  0  0  0  0  0  0
    0.7898    0.7430   -1.6135 H   0  0  0  0  0  0  0  0  0  0  0  0
    0.1107    2.3347   -1.2839 H   0  0  0  0  0  0  0  0  0  0  0  0
    1.6154    2.6707    0.6326 H   0  0  0  0  0  0  0  0  0  0  0  0
    2.5244    2.4092   -0.9067 H   0  0  0  0  0  0  0  0  0  0  0  0
    2.0194    0.3346    1.2859 H   0  0  0  0  0  0  0  0  0  0  0  0
    3.5626    1.2267    0.8698 H   0  0  0  0  0  0  0  0  0  0  0  0
    3.4463    0.2155   -1.4036 H   0  0  0  0  0  0  0  0  0  0  0  0
    2.0288   -0.7162   -0.9084 H   0  0  0  0  0  0  0  0  0  0  0  0
    3.1066   -1.7947    0.8989 H   0  0  0  0  0  0  0  0  0  0  0  0
    3.8698   -2.1900   -0.6559 H   0  0  0  0  0  0  0  0  0  0  0  0
    5.4957   -1.9290    1.1179 H   0  0  0  0  0  0  0  0  0  0  0  0
    4.8144   -0.3799    1.6446 H   0  0  0  0  0  0  0  0  0  0  0  0
    7.0682   -0.6863   -0.0367 H   0  0  0  0  0  0  0  0  0  0  0  0
    5.7981   -0.4561   -1.2552 H   0  0  0  0  0  0  0  0  0  0  0  0
    6.0353    0.7601    0.0429 H   0  0  0  0  0  0  0  0  0  0  0  0
   -0.6734   -1.4460    0.4178 H   0  0  0  0  0  0  0  0  0  0  0  0
   -2.5438   -2.4646   -1.0505 H   0  0  0  0  0  0  0  0  0  0  0  0
  1  2  1  0
  1  3  1  0
  3  4  1  0
  3  5  1  0
  5  6  1  0
  6  7  1  0
  5  8  1  0
  8  9  1  0
  9 10  1  0
 10 11  1  0
 11 12  1  0
 12 13  1  0
 13 14  1  0
 14 15  1  0
 15 16  1  0
 16 17  1  0
  9 18  1  0
 18 19  1  0
 18  1  1  0
  1 20  1  1
  2 21  1  0
  3 22  1  1
  4 23  1  0
  5 24  1  6
  6 25  1  0
  6 26  1  0
  7 27  1  0
  9 28  1  6
 11 29  1  0
 11 30  1  0
 12 31  1  0
 12 32  1  0
 13 33  1  0
 13 34  1  0
 14 35  1  0
 14 36  1  0
 15 37  1  0
 15 38  1  0
 16 39  1  0
 16 40  1  0
 17 41  1  0
 17 42  1  0
 17 43  1  0
 18 44  1  1
 19 45  1  0
M  END
$$$$
