@<TRIPOS>MOLECULE
*****
 45 45 0 0 0
SMALL
GASTEIGER

@<TRIPOS>ATOM
      1 C          -2.7488   -1.2952    0.9026 C.3     1  UNL1        0.1141
      2 O          -2.4231   -0.6818    2.1134 O.3     1  UNL1       -0.3864
      3 C          -4.0198   -0.6557    0.3776 C.3     1  UNL1        0.1119
      4 O          -4.6339   -1.5700   -0.4667 O.3     1  UNL1       -0.3865
      5 C          -3.6872    0.6137   -0.3776 C.3     1  UNL1        0.1130
      6 C          -4.7482    1.6776   -0.2315 C.3     1  UNL1        0.0730
      7 O          -5.9681    1.2802   -0.7711 O.3     1  UNL1       -0.3924
      8 O          -2.5136    1.1175    0.1945 O.3     1  UNL1       -0.3405
      9 C          -1.4260    0.4125   -0.3143 C.3     1  UNL1        0.1879
     10 O          -0.2321    0.8821    0.1694 O.3     1  UNL1       -0.3487
     11 C           0.5757    1.4514   -0.8036 C.3     1  UNL1        0.0508
     12 C           1.8508    1.9298   -0.1671 C.3     1  UNL1       -0.0294
     13 C           2.6199    0.8020    0.4893 C.3     1  UNL1       -0.0510
     14 C           2.9864   -0.2513   -0.5294 C.3     1  UNL1       -0.0530
     15 C           3.7490   -1.3811    0.0910 C.3     1  UNL1       -0.0533
     16 C           5.0383   -0.9754    0.7360 C.3     1  UNL1       -0.0559
     17 C           6.0224   -0.3413   -0.1798 C.3     1  UNL1       -0.0653
     18 C          -1.6111   -1.0558   -0.0663 C.3     1  UNL1        0.1341
     19 O          -1.8584   -1.7801   -1.2317 O.3     1  UNL1       -0.3841
     20 H          -2.9006   -2.3859    1.0318 H       1  UNL1        0.0648
     21 H          -3.1637   -0.0875    2.4427 H       1  UNL1        0.2100
     22 H          -4.6853   -0.3563    1.2252 H       1  UNL1        0.0647
     23 H          -5.3815   -2.0485   -0.0292 H       1  UNL1        0.2100
     24 H          -3.4844    0.4085   -1.4536 H       1  UNL1        0.0647
     25 H          -4.3469    2.5945   -0.6961 H       1  UNL1        0.0584
     26 H          -4.8233    1.9070    0.8624 H       1  UNL1        0.0584
     27 H          -5.8290    0.5307   -1.4330 H       1  UNL1        0.2095
     28 H          -1.4257    0.6267   -1.4209 H       1  UNL1        0.0937
     29 H           0.7898    0.7430   -1.6135 H       1  UNL1        0.0561
     30 H           0.1107    2.3347   -1.2839 H       1  UNL1        0.0561
     31 H           1.6154    2.6707    0.6326 H       1  UNL1        0.0287
     32 H           2.5244    2.4092   -0.9067 H       1  UNL1        0.0287
     33 H           2.0194    0.3346    1.2859 H       1  UNL1        0.0266
     34 H           3.5626    1.2267    0.8698 H       1  UNL1        0.0266
     35 H           3.4463    0.2155   -1.4036 H       1  UNL1        0.0265
     36 H           2.0288   -0.7162   -0.9084 H       1  UNL1        0.0265
     37 H           3.1066   -1.7947    0.8989 H       1  UNL1        0.0265
     38 H           3.8698   -2.1900   -0.6559 H       1  UNL1        0.0265
     39 H           5.4957   -1.9290    1.1179 H       1  UNL1        0.0263
     40 H           4.8144   -0.3799    1.6446 H       1  UNL1        0.0263
     41 H           7.0682   -0.6863   -0.0367 H       1  UNL1        0.0230
     42 H           5.7981   -0.4561   -1.2552 H       1  UNL1        0.0230
     43 H           6.0353    0.7601    0.0429 H       1  UNL1        0.0230
     44 H          -0.6734   -1.4460    0.4178 H       1  UNL1        0.0671
     45 H          -2.5438   -2.4646   -1.0505 H       1  UNL1        0.2101
@<TRIPOS>BOND
     1     1     2    1
     2     1     3    1
     3     3     4    1
     4     3     5    1
     5     5     6    1
     6     6     7    1
     7     5     8    1
     8     8     9    1
     9     9    10    1
    10    10    11    1
    11    11    12    1
    12    12    13    1
    13    13    14    1
    14    14    15    1
    15    15    16    1
    16    16    17    1
    17     9    18    1
    18    18    19    1
    19    18     1    1
    20     1    20    1
    21     2    21    1
    22     3    22    1
    23     4    23    1
    24     5    24    1
    25     6    25    1
    26     6    26    1
    27     7    27    1
    28     9    28    1
    29    11    29    1
    30    11    30    1
    31    12    31    1
    32    12    32    1
    33    13    33    1
    34    13    34    1
    35    14    35    1
    36    14    36    1
    37    15    37    1
    38    15    38    1
    39    16    39    1
    40    16    40    1
    41    17    41    1
    42    17    42    1
    43    17    43    1
    44    18    44    1
    45    19    45    1
