@<TRIPOS>MOLECULE
*****
 30 32 0 0 0
SMALL
GASTEIGER

@<TRIPOS>ATOM
      1 O          -0.1833    0.2364    2.7847 O.2     1  UNL1       -0.2866
      2 C          -0.4269    0.1299    1.5617 C.2     1  UNL1        0.1947
      3 C          -1.7881    0.1767    1.0384 C.ar    1  UNL1        0.0366
      4 C          -2.8609    0.3448    1.9166 C.ar    1  UNL1       -0.0500
      5 C          -4.1412    0.3881    1.4182 C.ar    1  UNL1       -0.0576
      6 C          -4.4236    0.2721    0.0736 C.ar    1  UNL1       -0.0194
      7 C          -3.3698    0.1063   -0.7950 C.ar    1  UNL1        0.1283
      8 O          -3.6059   -0.0148   -2.1567 O.3     1  UNL1       -0.5060
      9 C          -2.0764    0.0610   -0.3066 C.ar    1  UNL1        0.0745
     10 C          -0.9741   -0.1159   -1.2502 C.2     1  UNL1        0.2015
     11 O          -1.2365   -0.2217   -2.4795 O.2     1  UNL1       -0.2864
     12 C           0.3932   -0.1657   -0.7527 C.ar    1  UNL1        0.0745
     13 C           1.4099   -0.3347   -1.6802 C.ar    1  UNL1        0.1287
     14 O           1.0729   -0.4453   -3.0111 O.3     1  UNL1       -0.5060
     15 C           2.6947   -0.3824   -1.2223 C.ar    1  UNL1       -0.0141
     16 C           2.9917   -0.2678    0.1191 C.ar    1  UNL1       -0.0180
     17 C           4.3949   -0.3222    0.5970 C.3     1  UNL1        0.0694
     18 O           4.9082    0.9735    0.6057 O.3     1  UNL1       -0.3904
     19 C           1.9875   -0.1001    1.0435 C.ar    1  UNL1       -0.0446
     20 C           0.6642   -0.0478    0.6019 C.ar    1  UNL1        0.0369
     21 H          -2.6165    0.4331    2.9618 H       1  UNL1        0.0625
     22 H          -4.9557    0.5174    2.1014 H       1  UNL1        0.0619
     23 H          -5.4634    0.3113   -0.2922 H       1  UNL1        0.0654
     24 H          -3.6454   -0.9840   -2.5068 H       1  UNL1        0.2922
     25 H           0.9445    0.4142   -3.5536 H       1  UNL1        0.2922
     26 H           3.5119   -0.5156   -1.9419 H       1  UNL1        0.0658
     27 H           5.0289   -0.9189   -0.1010 H       1  UNL1        0.0607
     28 H           4.4701   -0.8065    1.5859 H       1  UNL1        0.0607
     29 H           5.1088    1.2856    1.5367 H       1  UNL1        0.2098
     30 H           2.1865   -0.0069    2.1034 H       1  UNL1        0.0628
@<TRIPOS>BOND
     1     1     2    2
     2     2     3    1
     3     3     4   ar
     4     4     5   ar
     5     5     6   ar
     6     6     7   ar
     7     7     8    1
     8     7     9   ar
     9     9    10    1
    10    10    11    2
    11    10    12    1
    12    12    13   ar
    13    13    14    1
    14    13    15   ar
    15    15    16   ar
    16    16    17    1
    17    17    18    1
    18    16    19   ar
    19    19    20   ar
    20    20     2    1
    21     9     3   ar
    22    20    12   ar
    23     4    21    1
    24     5    22    1
    25     6    23    1
    26     8    24    1
    27    14    25    1
    28    15    26    1
    29    17    27    1
    30    17    28    1
    31    18    29    1
    32    19    30    1
