
     RDKit          3D

 43 43  0  0  0  0  0  0  0  0999 V2000
   -8.0224   -0.7169    0.7144 N   0  0  0  0  0  0  0  0  0  0  0  0
   -6.7709   -1.0059    0.0275 C   0  0  0  0  0  0  0  0  0  0  0  0
   -5.8319    0.1714    0.2322 C   0  0  0  0  0  0  0  0  0  0  0  0
   -4.6628   -0.1101   -0.4155 O   0  0  0  0  0  0  0  0  0  0  0  0
   -3.7025    0.8801   -0.3166 C   0  0  0  0  0  0  0  0  0  0  0  0
   -3.2703    1.2005    1.0754 C   0  0  0  0  0  0  0  0  0  0  0  0
   -2.7180    0.1608    1.7794 O   0  0  0  0  0  0  0  0  0  0  0  0
   -1.5781   -0.3928    1.2243 C   0  0  0  0  0  0  0  0  0  0  0  0
   -0.4358    0.5435    1.0574 C   0  0  0  0  0  0  0  0  0  0  0  0
    0.7146   -0.1498    0.4621 N   0  0  0  0  0  0  0  0  0  0  0  0
    1.7993    0.7575    0.3084 C   0  0  0  0  0  0  0  0  0  0  0  0
    1.5224    1.9353    0.7157 O   0  0  0  0  0  0  0  0  0  0  0  0
    3.1002    0.4760   -0.2335 C   0  0  0  0  0  0  0  0  0  0  0  0
    3.9826    1.5342   -0.2752 C   0  0  0  0  0  0  0  0  0  0  0  0
    5.2519    1.2842   -0.7976 C   0  0  0  0  0  0  0  0  0  0  0  0
    5.6292    0.0291   -1.2609 C   0  0  0  0  0  0  0  0  0  0  0  0
    4.6955   -1.0061   -1.1948 C   0  0  0  0  0  0  0  0  0  0  0  0
    3.4234   -0.7797   -0.6776 C   0  0  0  0  0  0  0  0  0  0  0  0
    7.2440   -0.1259   -1.8830 S   0  0  0  0  0  0  0  0  0  0  0  0
    8.3420   -0.5642   -0.6305 N   0  0  0  0  0  0  0  0  0  0  0  0
    7.6663    1.1882   -2.4892 O   0  0  0  0  0  0  0  0  0  0  0  0
    7.1999   -1.1567   -2.9765 O   0  0  0  0  0  0  0  0  0  0  0  0
   -7.8572   -0.9063    1.7310 H   0  0  0  0  0  0  0  0  0  0  0  0
   -8.1444    0.3346    0.6375 H   0  0  0  0  0  0  0  0  0  0  0  0
   -6.3944   -1.9462    0.4396 H   0  0  0  0  0  0  0  0  0  0  0  0
   -6.9936   -1.1595   -1.0490 H   0  0  0  0  0  0  0  0  0  0  0  0
   -6.3684    1.0668   -0.1228 H   0  0  0  0  0  0  0  0  0  0  0  0
   -5.6166    0.1901    1.3296 H   0  0  0  0  0  0  0  0  0  0  0  0
   -4.1303    1.8035   -0.7476 H   0  0  0  0  0  0  0  0  0  0  0  0
   -2.8148    0.6330   -0.9266 H   0  0  0  0  0  0  0  0  0  0  0  0
   -4.0962    1.5992    1.6985 H   0  0  0  0  0  0  0  0  0  0  0  0
   -2.5103    2.0063    0.9920 H   0  0  0  0  0  0  0  0  0  0  0  0
   -1.2459   -1.1865    1.9384 H   0  0  0  0  0  0  0  0  0  0  0  0
   -1.8269   -0.8642    0.2648 H   0  0  0  0  0  0  0  0  0  0  0  0
   -0.6517    1.4089    0.4010 H   0  0  0  0  0  0  0  0  0  0  0  0
   -0.0715    0.9470    2.0246 H   0  0  0  0  0  0  0  0  0  0  0  0
    0.9000   -1.1437    0.1358 H   0  0  0  0  0  0  0  0  0  0  0  0
    3.7426    2.5353    0.0724 H   0  0  0  0  0  0  0  0  0  0  0  0
    5.9499    2.1158   -0.8320 H   0  0  0  0  0  0  0  0  0  0  0  0
    5.0591   -1.9723   -1.5778 H   0  0  0  0  0  0  0  0  0  0  0  0
    2.7542   -1.6070   -0.6524 H   0  0  0  0  0  0  0  0  0  0  0  0
    7.7803   -0.8071    0.2192 H   0  0  0  0  0  0  0  0  0  0  0  0
    8.9576    0.2416   -0.4223 H   0  0  0  0  0  0  0  0  0  0  0  0
  1  2  1  0
  2  3  1  0
  3  4  1  0
  4  5  1  0
  5  6  1  0
  6  7  1  0
  7  8  1  0
  8  9  1  0
  9 10  1  0
 10 11  1  0
 11 12  2  0
 11 13  1  0
 13 14  2  0
 14 15  1  0
 15 16  2  0
 16 17  1  0
 17 18  2  0
 16 19  1  0
 19 20  1  0
 19 21  2  0
 19 22  2  0
 18 13  1  0
  1 23  1  0
  1 24  1  0
  2 25  1  0
  2 26  1  0
  3 27  1  0
  3 28  1  0
  5 29  1  0
  5 30  1  0
  6 31  1  0
  6 32  1  0
  8 33  1  0
  8 34  1  0
  9 35  1  0
  9 36  1  0
 10 37  1  0
 14 38  1  0
 15 39  1  0
 17 40  1  0
 18 41  1  0
 20 42  1  0
 20 43  1  0
M  END
$$$$
