@<TRIPOS>MOLECULE
*****
 54 57 0 0 0
SMALL
GASTEIGER

@<TRIPOS>ATOM
      1 O           0.9046   -1.9080   -1.7336 O.2     1  UNL1       -0.2699
      2 C           0.4963   -1.6237   -0.5657 C.2     1  UNL1        0.2483
      3 N           1.1526   -2.2680    0.5015 N.am    1  UNL1       -0.2808
      4 C           2.2203   -3.1958    0.3456 C.ar    1  UNL1        0.0459
      5 C           1.9723   -4.5645    0.2094 C.ar    1  UNL1       -0.0384
      6 C           3.0015   -5.4405    0.0611 C.ar    1  UNL1       -0.0416
      7 C           4.2886   -4.9680    0.0462 C.ar    1  UNL1        0.0418
      8 CL          5.5865   -6.1131   -0.1453 Cl      1  UNL1       -0.0835
      9 C           4.5186   -3.6113    0.1819 C.ar    1  UNL1       -0.0295
     10 C           3.4913   -2.6978    0.3343 C.ar    1  UNL1        0.0596
     11 C           3.7268   -1.2706    0.4774 C.2     1  UNL1        0.2511
     12 O           2.7420   -0.5012    0.6118 O.2     1  UNL1       -0.2697
     13 N           5.0089   -0.6594    0.4779 N.am    1  UNL1       -0.2663
     14 C           5.1711    0.7550    0.6234 C.ar    1  UNL1        0.1252
     15 C           6.4061    1.3592    0.6255 C.ar    1  UNL1       -0.0201
     16 C           6.5686    2.7246    0.7657 C.ar    1  UNL1       -0.0387
     17 C           5.4378    3.5247    0.9109 C.ar    1  UNL1        0.0592
     18 CL          5.5780    5.2615    1.0926 Cl      1  UNL1       -0.0820
     19 C           4.2183    2.8805    0.9036 C.ar    1  UNL1        0.0480
     20 N           4.0950    1.5433    0.7645 N.ar    1  UNL1       -0.2387
     21 C          -0.5941   -0.6733   -0.4523 C.ar    1  UNL1        0.0370
     22 C          -1.1710   -0.0957   -1.5620 C.ar    1  UNL1       -0.0493
     23 C          -2.2123    0.8101   -1.4253 C.ar    1  UNL1       -0.0566
     24 C          -2.6876    1.1477   -0.1760 C.ar    1  UNL1       -0.0333
     25 C          -3.7980    2.1081    0.0121 C.3     1  UNL1        0.0240
     26 N          -5.0836    1.4859    0.0364 N.3     1  UNL1       -0.2982
     27 C          -5.4545    0.7728   -1.1441 C.3     1  UNL1       -0.0007
     28 C          -6.9596    0.9712   -1.3093 C.3     1  UNL1       -0.0390
     29 C          -7.0757    2.4175   -0.8156 C.3     1  UNL1       -0.0390
     30 C          -6.1322    2.3981    0.3642 C.3     1  UNL1       -0.0007
     31 C          -2.1325    0.5882    0.9506 C.ar    1  UNL1       -0.0566
     32 C          -1.0878   -0.3183    0.7793 C.ar    1  UNL1       -0.0493
     33 H           0.8445   -2.0591    1.4721 H       1  UNL1        0.1552
     34 H           0.9466   -4.8748    0.2285 H       1  UNL1        0.0637
     35 H           2.7528   -6.4977   -0.0412 H       1  UNL1        0.0633
     36 H           5.5389   -3.2960    0.1637 H       1  UNL1        0.0640
     37 H           5.8257   -1.3003    0.3661 H       1  UNL1        0.1566
     38 H           7.2797    0.7347    0.5127 H       1  UNL1        0.0652
     39 H           7.5385    3.2026    0.7678 H       1  UNL1        0.0634
     40 H           3.3415    3.5086    1.0170 H       1  UNL1        0.0845
     41 H          -0.8106   -0.3481   -2.5658 H       1  UNL1        0.0625
     42 H          -2.6384    1.2434   -2.3257 H       1  UNL1        0.0621
     43 H          -3.6530    2.6253    0.9757 H       1  UNL1        0.0476
     44 H          -3.7737    2.9038   -0.7662 H       1  UNL1        0.0476
     45 H          -5.2122   -0.3011   -1.0400 H       1  UNL1        0.0427
     46 H          -5.0181    1.2143   -2.0862 H       1  UNL1        0.0427
     47 H          -7.5030    0.2779   -0.6633 H       1  UNL1        0.0278
     48 H          -7.2475    0.8914   -2.3709 H       1  UNL1        0.0278
     49 H          -8.0989    2.6935   -0.5651 H       1  UNL1        0.0278
     50 H          -6.6477    3.0344   -1.6558 H       1  UNL1        0.0278
     51 H          -5.7685    3.4164    0.6337 H       1  UNL1        0.0427
     52 H          -6.7221    1.9861    1.2273 H       1  UNL1        0.0427
     53 H          -2.5051    0.8529    1.9293 H       1  UNL1        0.0621
     54 H          -0.6658   -0.7471    1.6896 H       1  UNL1        0.0625
@<TRIPOS>BOND
     1     1     2    2
     2     2     3   am
     3     3     4    1
     4     4     5   ar
     5     5     6   ar
     6     6     7   ar
     7     7     8    1
     8     7     9   ar
     9     9    10   ar
    10    10    11    1
    11    11    12    2
    12    11    13   am
    13    13    14    1
    14    14    15   ar
    15    15    16   ar
    16    16    17   ar
    17    17    18    1
    18    17    19   ar
    19    19    20   ar
    20     2    21    1
    21    21    22   ar
    22    22    23   ar
    23    23    24   ar
    24    24    25    1
    25    25    26    1
    26    26    27    1
    27    27    28    1
    28    28    29    1
    29    29    30    1
    30    24    31   ar
    31    31    32   ar
    32    10     4   ar
    33    20    14   ar
    34    32    21   ar
    35    30    26    1
    36     3    33    1
    37     5    34    1
    38     6    35    1
    39     9    36    1
    40    13    37    1
    41    15    38    1
    42    16    39    1
    43    19    40    1
    44    22    41    1
    45    23    42    1
    46    25    43    1
    47    25    44    1
    48    27    45    1
    49    27    46    1
    50    28    47    1
    51    28    48    1
    52    29    49    1
    53    29    50    1
    54    30    51    1
    55    30    52    1
    56    31    53    1
    57    32    54    1
