@<TRIPOS>MOLECULE
*****
 61 68 0 0 0
SMALL
GASTEIGER

@<TRIPOS>ATOM
      1 C          -4.4519   -2.5279    0.6675 C.3     1  UNL1       -0.0155
      2 N          -4.0340   -1.1549    0.8746 N.3     1  UNL1       -0.3136
      3 C          -3.1502   -0.8008   -0.2277 C.3     1  UNL1        0.0423
      4 C          -1.9795   -1.7445   -0.1895 C.3     1  UNL1        0.0107
      5 C          -1.0771   -1.3997   -1.3454 C.3     1  UNL1        0.1402
      6 O          -1.2583   -0.1816   -1.8820 O.3     1  UNL1       -0.3282
      7 C          -1.5283    0.8852   -1.0303 C.3     1  UNL1        0.1741
      8 C          -2.1411    1.9217   -1.9911 C.3     1  UNL1       -0.0136
      9 C          -2.5679    0.5995    0.0019 C.3     1  UNL1        0.1214
     10 O          -2.0973    0.6595    1.2942 O.3     1  UNL1       -0.3735
     11 C          -2.8701    1.5373    2.0871 C.3     1  UNL1        0.0371
     12 N          -0.2708    1.3603   -0.4756 N.ar    1  UNL1       -0.3070
     13 C          -0.0021    2.6343   -0.0814 C.ar    1  UNL1        0.0527
     14 C          -0.7553    3.7820   -0.0391 C.ar    1  UNL1       -0.0375
     15 C          -0.2275    4.9692    0.4252 C.ar    1  UNL1       -0.0598
     16 C           1.0833    5.0507    0.8678 C.ar    1  UNL1       -0.0611
     17 C           1.8574    3.8946    0.8311 C.ar    1  UNL1       -0.0520
     18 C           1.3066    2.7130    0.3606 C.ar    1  UNL1        0.0081
     19 C           1.8666    1.4518    0.2409 C.ar    1  UNL1        0.0151
     20 C           3.1178    0.9063    0.5213 C.ar    1  UNL1       -0.0078
     21 C           3.4004   -0.4327    0.3004 C.ar    1  UNL1        0.0518
     22 C           2.4006   -1.2278   -0.2104 C.ar    1  UNL1        0.0221
     23 C           2.3179   -2.5521   -0.5317 C.ar    1  UNL1        0.0085
     24 C           3.2013   -3.5843   -0.4786 C.ar    1  UNL1       -0.0520
     25 C           2.7701   -4.8487   -0.8976 C.ar    1  UNL1       -0.0611
     26 C           1.4830   -5.0390   -1.3516 C.ar    1  UNL1       -0.0598
     27 C           0.5964   -3.9820   -1.4002 C.ar    1  UNL1       -0.0375
     28 C           1.0068   -2.7405   -0.9930 C.ar    1  UNL1        0.0524
     29 N           0.3297   -1.6000   -0.9562 N.ar    1  UNL1       -0.3115
     30 C           1.1543   -0.6655   -0.4859 C.ar    1  UNL1        0.0774
     31 C           0.8857    0.6688   -0.2637 C.ar    1  UNL1        0.0772
     32 C           4.7634   -0.6306    0.6976 C.2     1  UNL1        0.2453
     33 O           5.4445   -1.6642    0.6777 O.2     1  UNL1       -0.2702
     34 N           5.3366    0.6037    1.1724 N.am    1  UNL1       -0.3072
     35 C           4.3011    1.6008    1.0694 C.3     1  UNL1        0.0385
     36 H          -5.4879   -2.6051    1.1071 H       1  UNL1        0.0388
     37 H          -4.4640   -2.7121   -0.4183 H       1  UNL1        0.0388
     38 H          -3.7523   -3.2170    1.1790 H       1  UNL1        0.0388
     39 H          -3.5413   -1.1204    1.7782 H       1  UNL1        0.1220
     40 H          -3.6500   -0.8641   -1.1976 H       1  UNL1        0.0489
     41 H          -1.4012   -1.6451    0.7474 H       1  UNL1        0.0325
     42 H          -2.3634   -2.7874   -0.2517 H       1  UNL1        0.0325
     43 H          -1.2683   -2.1549   -2.1362 H       1  UNL1        0.0839
     44 H          -1.3939    2.6457   -2.3526 H       1  UNL1        0.0277
     45 H          -3.0795    2.3472   -1.6030 H       1  UNL1        0.0277
     46 H          -2.4836    1.4088   -2.9522 H       1  UNL1        0.0277
     47 H          -3.4591    1.2839   -0.0646 H       1  UNL1        0.0660
     48 H          -3.9233    1.2214    2.1387 H       1  UNL1        0.0524
     49 H          -2.8161    2.5386    1.5778 H       1  UNL1        0.0524
     50 H          -2.3948    1.6709    3.0642 H       1  UNL1        0.0524
     51 H          -1.7643    3.7759   -0.3511 H       1  UNL1        0.0638
     52 H          -0.8084    5.8809    0.4639 H       1  UNL1        0.0618
     53 H           1.4845    5.9907    1.2298 H       1  UNL1        0.0618
     54 H           2.8833    3.9628    1.1788 H       1  UNL1        0.0624
     55 H           4.1958   -3.4773   -0.1371 H       1  UNL1        0.0624
     56 H           3.4878   -5.6583   -0.8480 H       1  UNL1        0.0618
     57 H           1.1486   -6.0172   -1.6760 H       1  UNL1        0.0618
     58 H          -0.4300   -4.1107   -1.7571 H       1  UNL1        0.0638
     59 H           6.3065    0.7503    1.5217 H       1  UNL1        0.1493
     60 H           4.6365    2.4324    0.4053 H       1  UNL1        0.0512
     61 H           4.1261    1.9985    2.0952 H       1  UNL1        0.0512
@<TRIPOS>BOND
     1     1     2    1
     2     2     3    1
     3     3     4    1
     4     4     5    1
     5     5     6    1
     6     6     7    1
     7     7     8    1
     8     7     9    1
     9     9    10    1
    10    10    11    1
    11     7    12    1
    12    12    13   ar
    13    13    14   ar
    14    14    15   ar
    15    15    16   ar
    16    16    17   ar
    17    17    18   ar
    18    18    19   ar
    19    19    20   ar
    20    20    21   ar
    21    21    22   ar
    22    22    23   ar
    23    23    24   ar
    24    24    25   ar
    25    25    26   ar
    26    26    27   ar
    27    27    28   ar
    28    28    29   ar
    29    29    30   ar
    30    30    31   ar
    31    21    32    1
    32    32    33    2
    33    32    34   am
    34    34    35    1
    35     9     3    1
    36    31    12   ar
    37    29     5    1
    38    18    13   ar
    39    31    19   ar
    40    35    20    1
    41    30    22   ar
    42    28    23   ar
    43     1    36    1
    44     1    37    1
    45     1    38    1
    46     2    39    1
    47     3    40    1
    48     4    41    1
    49     4    42    1
    50     5    43    1
    51     8    44    1
    52     8    45    1
    53     8    46    1
    54     9    47    1
    55    11    48    1
    56    11    49    1
    57    11    50    1
    58    14    51    1
    59    15    52    1
    60    16    53    1
    61    17    54    1
    62    24    55    1
    63    25    56    1
    64    26    57    1
    65    27    58    1
    66    34    59    1
    67    35    60    1
    68    35    61    1
