@<TRIPOS>MOLECULE
*****
 57 57 0 0 0
SMALL
GASTEIGER

@<TRIPOS>ATOM
      1 C           2.9209    2.5263   -0.2894 C.3     1  UNL1        0.0734
      2 O           2.2537    3.6007    0.3498 O.3     1  UNL1       -0.3878
      3 C           4.3809    2.6125   -0.0461 C.3     1  UNL1       -0.0232
      4 C           5.2359    1.5623   -0.6525 C.3     1  UNL1       -0.0504
      5 C           4.9658    0.1574   -0.2445 C.3     1  UNL1       -0.0532
      6 C           5.9849   -0.7137   -0.9985 C.3     1  UNL1       -0.0559
      7 C           5.6898   -2.1384   -0.5667 C.3     1  UNL1       -0.0653
      8 C           2.3627    1.3059    0.4000 C.2     1  UNL1       -0.0592
      9 C           1.2288    0.8373   -0.0649 C.2     1  UNL1       -0.0750
     10 C           0.4121   -0.3091    0.3507 C.3     1  UNL1        0.0412
     11 C           0.9606   -0.8897    1.6030 C.2     1  UNL1        0.1429
     12 O           1.7857   -1.7675    1.8020 O.2     1  UNL1       -0.2967
     13 C           0.3213   -0.2061    2.7744 C.3     1  UNL1        0.0328
     14 C          -0.7186    0.6949    2.1282 C.3     1  UNL1        0.0659
     15 O          -1.8098    0.9442    2.9169 O.3     1  UNL1       -0.3911
     16 C          -0.9983    0.1183    0.7824 C.3     1  UNL1        0.0018
     17 C          -1.9132   -1.0593    0.7563 C.3     1  UNL1       -0.0286
     18 C          -3.3011   -0.7986    1.1458 C.2     1  UNL1       -0.0876
     19 C          -4.3994   -0.9864    0.3907 C.2     1  UNL1       -0.0879
     20 C          -4.4670   -1.4909   -0.9853 C.3     1  UNL1       -0.0343
     21 C          -5.0980   -0.4511   -1.8671 C.3     1  UNL1       -0.0395
     22 C          -6.4989   -0.0891   -1.4392 C.3     1  UNL1        0.0451
     23 C          -7.4159   -1.2289   -1.4500 C.2     1  UNL1        0.3047
     24 O          -7.2018   -2.5696   -1.7917 O.3     1  UNL1       -0.4806
     25 O          -8.5888   -0.8961   -1.0802 O.2     1  UNL1       -0.2510
     26 H           2.6137    2.5396   -1.3303 H       1  UNL1        0.0637
     27 H           1.8361    4.1956   -0.3057 H       1  UNL1        0.2102
     28 H           4.7384    3.5954   -0.4737 H       1  UNL1        0.0293
     29 H           4.5927    2.7119    1.0429 H       1  UNL1        0.0293
     30 H           5.2898    1.6816   -1.7727 H       1  UNL1        0.0266
     31 H           6.2899    1.7855   -0.3290 H       1  UNL1        0.0266
     32 H           5.1430    0.0410    0.8218 H       1  UNL1        0.0265
     33 H           3.9834   -0.2415   -0.5713 H       1  UNL1        0.0265
     34 H           5.8052   -0.6847   -2.0929 H       1  UNL1        0.0263
     35 H           7.0166   -0.4212   -0.8084 H       1  UNL1        0.0263
     36 H           5.9770   -2.8866   -1.3145 H       1  UNL1        0.0230
     37 H           4.6038   -2.2741   -0.3563 H       1  UNL1        0.0230
     38 H           6.2259   -2.3367    0.3851 H       1  UNL1        0.0230
     39 H           2.7438    0.7389    1.2291 H       1  UNL1        0.0595
     40 H           0.6723    1.2451   -0.8849 H       1  UNL1        0.0577
     41 H           0.3196   -1.0945   -0.4375 H       1  UNL1        0.0424
     42 H           1.0817    0.4095    3.3021 H       1  UNL1        0.0367
     43 H          -0.1259   -0.9530    3.4487 H       1  UNL1        0.0367
     44 H          -0.2306    1.6964    1.9453 H       1  UNL1        0.0600
     45 H          -1.9625    1.8865    3.1458 H       1  UNL1        0.2098
     46 H          -1.3026    0.9123    0.0745 H       1  UNL1        0.0338
     47 H          -1.8081   -1.5632   -0.2157 H       1  UNL1        0.0311
     48 H          -1.5200   -1.8095    1.5038 H       1  UNL1        0.0311
     49 H          -3.5274   -0.4156    2.1312 H       1  UNL1        0.0569
     50 H          -5.3904   -0.7729    0.7457 H       1  UNL1        0.0569
     51 H          -4.9854   -2.4814   -1.0592 H       1  UNL1        0.0307
     52 H          -3.4519   -1.6840   -1.4280 H       1  UNL1        0.0307
     53 H          -5.0948   -0.8652   -2.9123 H       1  UNL1        0.0273
     54 H          -4.4429    0.4336   -1.8820 H       1  UNL1        0.0273
     55 H          -6.9014    0.6564   -2.1837 H       1  UNL1        0.0378
     56 H          -6.4389    0.4614   -0.4828 H       1  UNL1        0.0378
     57 H          -7.8420   -3.2724   -1.4384 H       1  UNL1        0.2951
@<TRIPOS>BOND
     1     1     2    1
     2     1     3    1
     3     3     4    1
     4     4     5    1
     5     5     6    1
     6     6     7    1
     7     1     8    1
     8     8     9    2
     9     9    10    1
    10    10    11    1
    11    11    12    2
    12    11    13    1
    13    13    14    1
    14    14    15    1
    15    14    16    1
    16    16    17    1
    17    17    18    1
    18    18    19    2
    19    19    20    1
    20    20    21    1
    21    21    22    1
    22    22    23    1
    23    23    24    1
    24    23    25    2
    25    16    10    1
    26     1    26    1
    27     2    27    1
    28     3    28    1
    29     3    29    1
    30     4    30    1
    31     4    31    1
    32     5    32    1
    33     5    33    1
    34     6    34    1
    35     6    35    1
    36     7    36    1
    37     7    37    1
    38     7    38    1
    39     8    39    1
    40     9    40    1
    41    10    41    1
    42    13    42    1
    43    13    43    1
    44    14    44    1
    45    15    45    1
    46    16    46    1
    47    17    47    1
    48    17    48    1
    49    18    49    1
    50    19    50    1
    51    20    51    1
    52    20    52    1
    53    21    53    1
    54    21    54    1
    55    22    55    1
    56    22    56    1
    57    24    57    1
