
     RDKit          3D

 27 29  0  0  0  0  0  0  0  0999 V2000
    2.2859    1.4768    2.7331 O   0  0  0  0  0  0  0  0  0  0  0  0
    2.4212    0.8417    1.6657 C   0  0  0  0  0  0  0  0  0  0  0  0
    3.7560    0.5490    1.2125 N   0  0  0  0  0  0  0  0  0  0  0  0
    3.8818    0.2611   -0.2011 C   0  0  0  0  0  0  0  0  0  0  0  0
    2.8104   -0.6200   -0.7177 C   0  0  0  0  0  0  0  0  0  0  0  0
    1.4435   -0.2845   -0.2587 C   0  0  0  0  0  0  0  0  0  0  0  0
    0.2121   -0.5473   -0.7748 N   0  0  0  0  0  0  0  0  0  0  0  0
   -0.7540   -0.0497    0.0093 C   0  0  0  0  0  0  0  0  0  0  0  0
   -2.1883   -0.1331   -0.2154 C   0  0  0  0  0  0  0  0  0  0  0  0
   -2.6917   -0.7745   -1.3280 C   0  0  0  0  0  0  0  0  0  0  0  0
   -4.0586   -0.8316   -1.5043 C   0  0  0  0  0  0  0  0  0  0  0  0
   -4.9132   -0.2724   -0.6100 N   0  0  0  0  0  0  0  0  0  0  0  0
   -4.4458    0.3590    0.4837 C   0  0  0  0  0  0  0  0  0  0  0  0
   -3.0774    0.4212    0.6688 C   0  0  0  0  0  0  0  0  0  0  0  0
   -0.1127    0.5485    1.0569 C   0  0  0  0  0  0  0  0  0  0  0  0
    1.2675    0.4120    0.9061 C   0  0  0  0  0  0  0  0  0  0  0  0
    4.5962    0.5315    1.8024 H   0  0  0  0  0  0  0  0  0  0  0  0
    3.8088    1.2484   -0.7407 H   0  0  0  0  0  0  0  0  0  0  0  0
    4.8566   -0.1561   -0.4451 H   0  0  0  0  0  0  0  0  0  0  0  0
    2.7840   -0.4737   -1.8401 H   0  0  0  0  0  0  0  0  0  0  0  0
    2.9755   -1.6941   -0.4852 H   0  0  0  0  0  0  0  0  0  0  0  0
    0.0872   -1.0694   -1.6641 H   0  0  0  0  0  0  0  0  0  0  0  0
   -2.0375   -1.2396   -2.0751 H   0  0  0  0  0  0  0  0  0  0  0  0
   -4.4953   -1.3242   -2.3618 H   0  0  0  0  0  0  0  0  0  0  0  0
   -5.1176    0.8099    1.2057 H   0  0  0  0  0  0  0  0  0  0  0  0
   -2.7463    0.9483    1.5783 H   0  0  0  0  0  0  0  0  0  0  0  0
   -0.5481    1.0624    1.8999 H   0  0  0  0  0  0  0  0  0  0  0  0
  1  2  2  0
  2  3  1  0
  3  4  1  0
  4  5  1  0
  5  6  1  0
  6  7  1  0
  7  8  1  0
  8  9  1  0
  9 10  2  0
 10 11  1  0
 11 12  2  0
 12 13  1  0
 13 14  2  0
  8 15  2  0
 15 16  1  0
 16  2  1  0
 16  6  2  0
 14  9  1  0
  3 17  1  0
  4 18  1  0
  4 19  1  0
  5 20  1  0
  5 21  1  0
  7 22  1  0
 10 23  1  0
 11 24  1  0
 13 25  1  0
 14 26  1  0
 15 27  1  0
M  END
$$$$
