@<TRIPOS>MOLECULE
*****
 27 29 0 0 0
SMALL
GASTEIGER

@<TRIPOS>ATOM
      1 O           2.2859    1.4768    2.7331 O.2     1  UNL1       -0.2701
      2 C           2.4212    0.8417    1.6657 C.2     1  UNL1        0.2458
      3 N           3.7560    0.5490    1.2125 N.am    1  UNL1       -0.3109
      4 C           3.8818    0.2611   -0.2011 C.3     1  UNL1        0.0172
      5 C           2.8104   -0.6200   -0.7177 C.3     1  UNL1        0.0038
      6 C           1.4435   -0.2845   -0.2587 C.ar    1  UNL1        0.0301
      7 N           0.2121   -0.5473   -0.7748 N.ar    1  UNL1       -0.3573
      8 C          -0.7540   -0.0497    0.0093 C.ar    1  UNL1        0.0475
      9 C          -2.1883   -0.1331   -0.2154 C.ar    1  UNL1        0.0012
     10 C          -2.6917   -0.7745   -1.3280 C.ar    1  UNL1       -0.0345
     11 C          -4.0586   -0.8316   -1.5043 C.ar    1  UNL1        0.0282
     12 N          -4.9132   -0.2724   -0.6100 N.ar    1  UNL1       -0.2632
     13 C          -4.4458    0.3590    0.4837 C.ar    1  UNL1        0.0282
     14 C          -3.0774    0.4212    0.6688 C.ar    1  UNL1       -0.0345
     15 C          -0.1127    0.5485    1.0569 C.ar    1  UNL1       -0.0240
     16 C           1.2675    0.4120    0.9061 C.ar    1  UNL1        0.0578
     17 H           4.5962    0.5315    1.8024 H       1  UNL1        0.1490
     18 H           3.8088    1.2484   -0.7407 H       1  UNL1        0.0466
     19 H           4.8566   -0.1561   -0.4451 H       1  UNL1        0.0466
     20 H           2.7840   -0.4737   -1.8401 H       1  UNL1        0.0343
     21 H           2.9755   -1.6941   -0.4852 H       1  UNL1        0.0343
     22 H           0.0872   -1.0694   -1.6641 H       1  UNL1        0.1656
     23 H          -2.0375   -1.2396   -2.0751 H       1  UNL1        0.0639
     24 H          -4.4953   -1.3242   -2.3618 H       1  UNL1        0.0830
     25 H          -5.1176    0.8099    1.2057 H       1  UNL1        0.0830
     26 H          -2.7463    0.9483    1.5783 H       1  UNL1        0.0639
     27 H          -0.5481    1.0624    1.8999 H       1  UNL1        0.0646
@<TRIPOS>BOND
     1     1     2    2
     2     2     3   am
     3     3     4    1
     4     4     5    1
     5     5     6    1
     6     6     7   ar
     7     7     8   ar
     8     8     9    1
     9     9    10   ar
    10    10    11   ar
    11    11    12   ar
    12    12    13   ar
    13    13    14   ar
    14     8    15   ar
    15    15    16   ar
    16    16     2    1
    17    16     6   ar
    18    14     9   ar
    19     3    17    1
    20     4    18    1
    21     4    19    1
    22     5    20    1
    23     5    21    1
    24     7    22    1
    25    10    23    1
    26    11    24    1
    27    13    25    1
    28    14    26    1
    29    15    27    1
