
     RDKit          3D

 64 68  0  0  0  0  0  0  0  0999 V2000
    5.7273   -2.4654    2.3558 C   0  0  0  0  0  0  0  0  0  0  0  0
    5.1382   -2.6861    1.0997 O   0  0  0  0  0  0  0  0  0  0  0  0
    5.7867   -2.2762   -0.0514 C   0  0  0  0  0  0  0  0  0  0  0  0
    7.0338   -1.6541    0.1083 C   0  0  0  0  0  0  0  0  0  0  0  0
    7.7417   -1.2305   -0.9878 C   0  0  0  0  0  0  0  0  0  0  0  0
    7.2196   -1.4185   -2.2735 C   0  0  0  0  0  0  0  0  0  0  0  0
    6.0024   -2.0268   -2.3838 C   0  0  0  0  0  0  0  0  0  0  0  0
    5.2449   -2.4738   -1.2919 C   0  0  0  0  0  0  0  0  0  0  0  0
    3.9155   -3.0521   -1.4811 C   0  0  0  0  0  0  0  0  0  0  0  0
    2.8059   -2.1641   -1.5837 N   0  0  0  0  0  0  0  0  0  0  0  0
    2.3120   -1.2021   -0.7037 C   0  0  0  0  0  0  0  0  0  0  0  0
    2.9234   -1.0606    0.3848 O   0  0  0  0  0  0  0  0  0  0  0  0
    1.1592   -0.3338   -0.8970 C   0  0  0  0  0  0  0  0  0  0  0  0
    0.7099    0.4537    0.1743 C   0  0  0  0  0  0  0  0  0  0  0  0
   -0.3757    1.2909    0.0937 C   0  0  0  0  0  0  0  0  0  0  0  0
   -0.7609    2.1362    1.2816 C   0  0  0  0  0  0  0  0  0  0  0  0
    0.3032    3.0511    1.5745 N   0  0  0  0  0  0  0  0  0  0  0  0
    0.1569    4.4609    1.5351 C   0  0  0  0  0  0  0  0  0  0  0  0
    1.1346    5.2500    1.7345 O   0  0  0  0  0  0  0  0  0  0  0  0
   -1.1128    5.0353    1.2660 N   0  0  0  0  0  0  0  0  0  0  0  0
   -2.2020    4.1122    1.0341 C   0  0  0  0  0  0  0  0  0  0  0  0
   -3.5611    4.6991    0.7603 C   0  0  0  0  0  0  0  0  0  0  0  0
   -2.0675    2.8018    1.0450 C   0  0  0  0  0  0  0  0  0  0  0  0
   -3.2592    1.9326    0.8575 C   0  0  0  0  0  0  0  0  0  0  0  0
   -4.3638    2.4561    0.6795 O   0  0  0  0  0  0  0  0  0  0  0  0
   -3.2020    0.5260    0.8733 N   0  0  0  0  0  0  0  0  0  0  0  0
   -4.3231   -0.3208    0.6878 C   0  0  0  0  0  0  0  0  0  0  0  0
   -5.0464   -0.7202    1.7873 C   0  0  0  0  0  0  0  0  0  0  0  0
   -6.1583   -1.5551    1.6641 C   0  0  0  0  0  0  0  0  0  0  0  0
   -6.5203   -1.9759    0.4024 C   0  0  0  0  0  0  0  0  0  0  0  0
   -7.5337   -2.7741   -0.0020 N   0  0  0  0  0  0  0  0  0  0  0  0
   -7.4800   -2.8981   -1.3390 N   0  0  0  0  0  0  0  0  0  0  0  0
   -6.4380   -2.1842   -1.7957 C   0  0  0  0  0  0  0  0  0  0  0  0
   -5.8328   -1.6051   -0.7152 C   0  0  0  0  0  0  0  0  0  0  0  0
   -4.7270   -0.7690   -0.5459 C   0  0  0  0  0  0  0  0  0  0  0  0
   -1.1000    1.4111   -1.0592 C   0  0  0  0  0  0  0  0  0  0  0  0
   -0.6844    0.6510   -2.1297 C   0  0  0  0  0  0  0  0  0  0  0  0
    0.4269   -0.2048   -2.0447 C   0  0  0  0  0  0  0  0  0  0  0  0
    0.7796   -0.9101   -3.1419 F   0  0  0  0  0  0  0  0  0  0  0  0
    5.9164   -1.3758    2.4673 H   0  0  0  0  0  0  0  0  0  0  0  0
    5.0549   -2.8029    3.1879 H   0  0  0  0  0  0  0  0  0  0  0  0
    6.6709   -3.0636    2.3740 H   0  0  0  0  0  0  0  0  0  0  0  0
    7.4454   -1.5049    1.1109 H   0  0  0  0  0  0  0  0  0  0  0  0
    8.7043   -0.7484   -0.8964 H   0  0  0  0  0  0  0  0  0  0  0  0
    7.7980   -1.0770   -3.1185 H   0  0  0  0  0  0  0  0  0  0  0  0
    5.5713   -2.1875   -3.3537 H   0  0  0  0  0  0  0  0  0  0  0  0
    3.7539   -3.8215   -0.6606 H   0  0  0  0  0  0  0  0  0  0  0  0
    3.9342   -3.7131   -2.4039 H   0  0  0  0  0  0  0  0  0  0  0  0
    2.2398   -2.2535   -2.5023 H   0  0  0  0  0  0  0  0  0  0  0  0
    1.2706    0.3767    1.1085 H   0  0  0  0  0  0  0  0  0  0  0  0
   -0.9312    1.4028    2.1189 H   0  0  0  0  0  0  0  0  0  0  0  0
    1.2364    2.6641    1.8314 H   0  0  0  0  0  0  0  0  0  0  0  0
   -1.2746    6.0525    1.2325 H   0  0  0  0  0  0  0  0  0  0  0  0
   -3.9445    4.4326   -0.2434 H   0  0  0  0  0  0  0  0  0  0  0  0
   -4.2827    4.5030    1.5653 H   0  0  0  0  0  0  0  0  0  0  0  0
   -3.3889    5.8204    0.6684 H   0  0  0  0  0  0  0  0  0  0  0  0
   -2.2947    0.0521    1.0482 H   0  0  0  0  0  0  0  0  0  0  0  0
   -4.7951   -0.4121    2.7924 H   0  0  0  0  0  0  0  0  0  0  0  0
   -6.6962   -1.8445    2.5471 H   0  0  0  0  0  0  0  0  0  0  0  0
   -8.2266   -3.2059    0.6535 H   0  0  0  0  0  0  0  0  0  0  0  0
   -6.1496   -2.0971   -2.8295 H   0  0  0  0  0  0  0  0  0  0  0  0
   -4.1924   -0.4820   -1.4195 H   0  0  0  0  0  0  0  0  0  0  0  0
   -1.9596    2.0522   -1.1900 H   0  0  0  0  0  0  0  0  0  0  0  0
   -1.2328    0.7182   -3.0606 H   0  0  0  0  0  0  0  0  0  0  0  0
  1  2  1  0
  2  3  1  0
  3  4  2  0
  4  5  1  0
  5  6  2  0
  6  7  1  0
  7  8  2  0
  8  9  1  0
  9 10  1  0
 10 11  1  0
 11 12  2  0
 11 13  1  0
 13 14  2  0
 14 15  1  0
 15 16  1  0
 16 17  1  0
 17 18  1  0
 18 19  2  0
 18 20  1  0
 20 21  1  0
 21 22  1  0
 21 23  2  0
 23 24  1  0
 24 25  2  0
 24 26  1  0
 26 27  1  0
 27 28  2  0
 28 29  1  0
 29 30  2  0
 30 31  1  0
 31 32  1  0
 32 33  2  0
 33 34  1  0
 34 35  2  0
 15 36  2  0
 36 37  1  0
 37 38  2  0
 38 39  1  0
  8  3  1  0
 38 13  1  0
 23 16  1  0
 35 27  1  0
 34 30  1  0
  1 40  1  0
  1 41  1  0
  1 42  1  0
  4 43  1  0
  5 44  1  0
  6 45  1  0
  7 46  1  0
  9 47  1  0
  9 48  1  0
 10 49  1  0
 14 50  1  0
 16 51  1  0
 17 52  1  0
 20 53  1  0
 22 54  1  0
 22 55  1  0
 22 56  1  0
 26 57  1  0
 28 58  1  0
 29 59  1  0
 31 60  1  0
 33 61  1  0
 35 62  1  0
 36 63  1  0
 37 64  1  0
M  END
$$$$
