@<TRIPOS>MOLECULE
*****
 64 68 0 0 0
SMALL
GASTEIGER

@<TRIPOS>ATOM
      1 C           5.7273   -2.4654    2.3558 C.3     1  UNL1        0.0788
      2 O           5.1382   -2.6861    1.0997 O.3     1  UNL1       -0.4948
      3 C           5.7867   -2.2762   -0.0514 C.ar    1  UNL1        0.1247
      4 C           7.0338   -1.6541    0.1083 C.ar    1  UNL1       -0.0196
      5 C           7.7417   -1.2305   -0.9878 C.ar    1  UNL1       -0.0583
      6 C           7.2196   -1.4185   -2.2735 C.ar    1  UNL1       -0.0612
      7 C           6.0024   -2.0268   -2.3838 C.ar    1  UNL1       -0.0536
      8 C           5.2449   -2.4738   -1.2919 C.ar    1  UNL1        0.0113
      9 C           3.9155   -3.0521   -1.4811 C.3     1  UNL1        0.0406
     10 N           2.8059   -2.1641   -1.5837 N.am    1  UNL1       -0.3070
     11 C           2.3120   -1.2021   -0.7037 C.2     1  UNL1        0.2471
     12 O           2.9234   -1.0606    0.3848 O.2     1  UNL1       -0.2701
     13 C           1.1592   -0.3338   -0.8970 C.ar    1  UNL1        0.0721
     14 C           0.7099    0.4537    0.1743 C.ar    1  UNL1       -0.0416
     15 C          -0.3757    1.2909    0.0937 C.ar    1  UNL1       -0.0217
     16 C          -0.7609    2.1362    1.2816 C.3     1  UNL1        0.0815
     17 N           0.3032    3.0511    1.5745 N.am    1  UNL1       -0.2881
     18 C           0.1569    4.4609    1.5351 C.2     1  UNL1        0.3043
     19 O           1.1346    5.2500    1.7345 O.2     1  UNL1       -0.2525
     20 N          -1.1128    5.0353    1.2660 N.am    1  UNL1       -0.2729
     21 C          -2.2020    4.1122    1.0341 C.2     1  UNL1        0.0191
     22 C          -3.5611    4.6991    0.7603 C.3     1  UNL1       -0.0259
     23 C          -2.0675    2.8018    1.0450 C.2     1  UNL1        0.0559
     24 C          -3.2592    1.9326    0.8575 C.2     1  UNL1        0.2478
     25 O          -4.3638    2.4561    0.6795 O.2     1  UNL1       -0.2701
     26 N          -3.2020    0.5260    0.8733 N.am    1  UNL1       -0.2816
     27 C          -4.3231   -0.3208    0.6878 C.ar    1  UNL1        0.0344
     28 C          -5.0464   -0.7202    1.7873 C.ar    1  UNL1       -0.0384
     29 C          -6.1583   -1.5551    1.6641 C.ar    1  UNL1       -0.0345
     30 C          -6.5203   -1.9759    0.4024 C.ar    1  UNL1        0.0658
     31 N          -7.5337   -2.7741   -0.0020 N.ar    1  UNL1       -0.2770
     32 N          -7.4800   -2.8981   -1.3390 N.ar    1  UNL1       -0.1812
     33 C          -6.4380   -2.1842   -1.7957 C.ar    1  UNL1        0.0569
     34 C          -5.8328   -1.6051   -0.7152 C.ar    1  UNL1        0.0212
     35 C          -4.7270   -0.7690   -0.5459 C.ar    1  UNL1       -0.0298
     36 C          -1.1000    1.4111   -1.0592 C.ar    1  UNL1       -0.0537
     37 C          -0.6844    0.6510   -2.1297 C.ar    1  UNL1       -0.0254
     38 C           0.4269   -0.2048   -2.0447 C.ar    1  UNL1        0.1355
     39 F           0.7796   -0.9101   -3.1419 F       1  UNL1       -0.2047
     40 H           5.9164   -1.3758    2.4673 H       1  UNL1        0.0660
     41 H           5.0549   -2.8029    3.1879 H       1  UNL1        0.0660
     42 H           6.6709   -3.0636    2.3740 H       1  UNL1        0.0660
     43 H           7.4454   -1.5049    1.1109 H       1  UNL1        0.0654
     44 H           8.7043   -0.7484   -0.8964 H       1  UNL1        0.0619
     45 H           7.7980   -1.0770   -3.1185 H       1  UNL1        0.0618
     46 H           5.5713   -2.1875   -3.3537 H       1  UNL1        0.0622
     47 H           3.7539   -3.8215   -0.6606 H       1  UNL1        0.0513
     48 H           3.9342   -3.7131   -2.4039 H       1  UNL1        0.0513
     49 H           2.2398   -2.2535   -2.5023 H       1  UNL1        0.1493
     50 H           1.2706    0.3767    1.1085 H       1  UNL1        0.0629
     51 H          -0.9312    1.4028    2.1189 H       1  UNL1        0.0601
     52 H           1.2364    2.6641    1.8314 H       1  UNL1        0.1512
     53 H          -1.2746    6.0525    1.2325 H       1  UNL1        0.1561
     54 H          -3.9445    4.4326   -0.2434 H       1  UNL1        0.0290
     55 H          -4.2827    4.5030    1.5653 H       1  UNL1        0.0290
     56 H          -3.3889    5.8204    0.6684 H       1  UNL1        0.0290
     57 H          -2.2947    0.0521    1.0482 H       1  UNL1        0.1551
     58 H          -4.7951   -0.4121    2.7924 H       1  UNL1        0.0637
     59 H          -6.6962   -1.8445    2.5471 H       1  UNL1        0.0639
     60 H          -8.2266   -3.2059    0.6535 H       1  UNL1        0.1889
     61 H          -6.1496   -2.0971   -2.8295 H       1  UNL1        0.0854
     62 H          -4.1924   -0.4820   -1.4195 H       1  UNL1        0.0643
     63 H          -1.9596    2.0522   -1.1900 H       1  UNL1        0.0622
     64 H          -1.2328    0.7182   -3.0606 H       1  UNL1        0.0646
@<TRIPOS>BOND
     1     1     2    1
     2     2     3    1
     3     3     4   ar
     4     4     5   ar
     5     5     6   ar
     6     6     7   ar
     7     7     8   ar
     8     8     9    1
     9     9    10    1
    10    10    11   am
    11    11    12    2
    12    11    13    1
    13    13    14   ar
    14    14    15   ar
    15    15    16    1
    16    16    17    1
    17    17    18   am
    18    18    19    2
    19    18    20   am
    20    20    21    1
    21    21    22    1
    22    21    23    2
    23    23    24    1
    24    24    25    2
    25    24    26   am
    26    26    27    1
    27    27    28   ar
    28    28    29   ar
    29    29    30   ar
    30    30    31   ar
    31    31    32   ar
    32    32    33   ar
    33    33    34   ar
    34    34    35   ar
    35    15    36   ar
    36    36    37   ar
    37    37    38   ar
    38    38    39    1
    39     8     3   ar
    40    38    13   ar
    41    23    16    1
    42    35    27   ar
    43    34    30   ar
    44     1    40    1
    45     1    41    1
    46     1    42    1
    47     4    43    1
    48     5    44    1
    49     6    45    1
    50     7    46    1
    51     9    47    1
    52     9    48    1
    53    10    49    1
    54    14    50    1
    55    16    51    1
    56    17    52    1
    57    20    53    1
    58    22    54    1
    59    22    55    1
    60    22    56    1
    61    26    57    1
    62    28    58    1
    63    29    59    1
    64    31    60    1
    65    33    61    1
    66    35    62    1
    67    36    63    1
    68    37    64    1
