@<TRIPOS>MOLECULE
*****
 50 53 0 0 0
SMALL
GASTEIGER

@<TRIPOS>ATOM
      1 C          -4.0102    1.4812   -0.2349 C.3     1  UNL1        0.0935
      2 O          -5.2997    2.0012   -0.4899 O.3     1  UNL1       -0.3880
      3 C          -3.1116    2.7344   -0.2907 C.3     1  UNL1        0.0716
      4 O          -3.5124    3.6342    0.6678 O.3     1  UNL1       -0.3924
      5 C          -3.6165    0.5205   -1.3280 C.3     1  UNL1        0.0373
      6 N          -2.3316   -0.0853   -1.1607 N.pl3   1  UNL1       -0.3413
      7 C          -1.9508   -1.0439   -0.1827 C.ar    1  UNL1        0.0278
      8 C          -2.8655   -1.5324    0.7234 C.ar    1  UNL1       -0.0408
      9 C          -2.5496   -2.4671    1.7010 C.ar    1  UNL1       -0.0594
     10 C          -1.2395   -2.9182    1.7493 C.ar    1  UNL1       -0.0537
     11 C          -0.2969   -2.4527    0.8594 C.ar    1  UNL1       -0.0104
     12 C          -0.6567   -1.5079   -0.1126 C.ar    1  UNL1       -0.0330
     13 C           1.1053   -2.8509    0.7610 C.2     1  UNL1        0.0570
     14 C           2.1192   -2.0445    0.5431 C.2     1  UNL1        0.0589
     15 C           3.3528   -2.8141    0.5093 C.2     1  UNL1        0.2519
     16 O           4.5908   -2.6302    0.3493 O.2     1  UNL1       -0.2697
     17 N           3.0020   -4.1726    0.7275 N.am    1  UNL1       -0.2483
     18 C           1.5681   -4.2497    0.8959 C.2     1  UNL1        0.2518
     19 O           0.8065   -5.2373    1.1112 O.2     1  UNL1       -0.2697
     20 C           2.2019   -0.6043    0.3872 C.ar    1  UNL1        0.0131
     21 C           1.5871    0.3108    1.2241 C.ar    1  UNL1        0.0133
     22 N           1.8694    1.5690    0.7917 N.ar    1  UNL1       -0.3491
     23 C           1.3917    2.7837    1.4441 C.3     1  UNL1        0.0119
     24 C           2.6502    1.5176   -0.3064 C.ar    1  UNL1        0.0496
     25 C           3.1797    2.5220   -1.0928 C.ar    1  UNL1       -0.0349
     26 C           3.9542    2.1898   -2.1867 C.ar    1  UNL1       -0.0245
     27 C           4.1502    0.8287   -2.4246 C.ar    1  UNL1        0.1241
     28 F           4.8937    0.4479   -3.4764 F       1  UNL1       -0.2055
     29 C           3.6147   -0.1593   -1.6310 C.ar    1  UNL1       -0.0167
     30 C           2.8445    0.1838   -0.5409 C.ar    1  UNL1        0.0104
     31 H          -3.9960    1.0777    0.7754 H       1  UNL1        0.0632
     32 H          -6.0205    1.4066   -0.1627 H       1  UNL1        0.2099
     33 H          -3.2486    3.2241   -1.2981 H       1  UNL1        0.0583
     34 H          -2.0880    2.3757   -0.1384 H       1  UNL1        0.0583
     35 H          -4.1107    4.3179    0.3213 H       1  UNL1        0.2095
     36 H          -4.3666   -0.3031   -1.2950 H       1  UNL1        0.0487
     37 H          -3.7002    0.9965   -2.3173 H       1  UNL1        0.0487
     38 H          -1.5783    0.2178   -1.8476 H       1  UNL1        0.1462
     39 H          -3.8986   -1.2517    0.7514 H       1  UNL1        0.0636
     40 H          -3.2475   -2.8617    2.4177 H       1  UNL1        0.0618
     41 H          -0.8863   -3.6453    2.4725 H       1  UNL1        0.0624
     42 H           0.0578   -1.1142   -0.8330 H       1  UNL1        0.0642
     43 H           3.5041   -5.0915    0.7946 H       1  UNL1        0.1581
     44 H           0.9775    0.0851    2.0865 H       1  UNL1        0.0815
     45 H           1.3427    2.6285    2.5486 H       1  UNL1        0.0456
     46 H           2.1554    3.5998    1.3178 H       1  UNL1        0.0456
     47 H           0.4288    3.1277    1.0484 H       1  UNL1        0.0456
     48 H           3.0239    3.5751   -0.9053 H       1  UNL1        0.0639
     49 H           4.4247    2.8989   -2.8779 H       1  UNL1        0.0647
     50 H           3.7853   -1.2182   -1.8460 H       1  UNL1        0.0653
@<TRIPOS>BOND
     1     1     2    1
     2     1     3    1
     3     3     4    1
     4     1     5    1
     5     5     6    1
     6     6     7    1
     7     7     8   ar
     8     8     9   ar
     9     9    10   ar
    10    10    11   ar
    11    11    12   ar
    12    11    13    1
    13    13    14    2
    14    14    15    1
    15    15    16    2
    16    15    17   am
    17    17    18   am
    18    18    19    2
    19    14    20    1
    20    20    21   ar
    21    21    22   ar
    22    22    23    1
    23    22    24   ar
    24    24    25   ar
    25    25    26   ar
    26    26    27   ar
    27    27    28    1
    28    27    29   ar
    29    29    30   ar
    30    12     7   ar
    31    18    13    1
    32    30    20   ar
    33    30    24   ar
    34     1    31    1
    35     2    32    1
    36     3    33    1
    37     3    34    1
    38     4    35    1
    39     5    36    1
    40     5    37    1
    41     6    38    1
    42     8    39    1
    43     9    40    1
    44    10    41    1
    45    12    42    1
    46    17    43    1
    47    21    44    1
    48    23    45    1
    49    23    46    1
    50    23    47    1
    51    25    48    1
    52    26    49    1
    53    29    50    1
