
     RDKit          3D

 50 53  0  0  0  0  0  0  0  0999 V2000
   -4.0102    1.4812   -0.2349 C   0  0  2  0  0  0  0  0  0  0  0  0
   -5.2997    2.0012   -0.4899 O   0  0  0  0  0  0  0  0  0  0  0  0
   -3.1116    2.7344   -0.2907 C   0  0  0  0  0  0  0  0  0  0  0  0
   -3.5124    3.6342    0.6678 O   0  0  0  0  0  0  0  0  0  0  0  0
   -3.6165    0.5205   -1.3280 C   0  0  0  0  0  0  0  0  0  0  0  0
   -2.3316   -0.0853   -1.1607 N   0  0  0  0  0  0  0  0  0  0  0  0
   -1.9508   -1.0439   -0.1827 C   0  0  0  0  0  0  0  0  0  0  0  0
   -2.8655   -1.5324    0.7234 C   0  0  0  0  0  0  0  0  0  0  0  0
   -2.5496   -2.4671    1.7010 C   0  0  0  0  0  0  0  0  0  0  0  0
   -1.2395   -2.9182    1.7493 C   0  0  0  0  0  0  0  0  0  0  0  0
   -0.2969   -2.4527    0.8594 C   0  0  0  0  0  0  0  0  0  0  0  0
   -0.6567   -1.5079   -0.1126 C   0  0  0  0  0  0  0  0  0  0  0  0
    1.1053   -2.8509    0.7610 C   0  0  0  0  0  0  0  0  0  0  0  0
    2.1192   -2.0445    0.5431 C   0  0  0  0  0  0  0  0  0  0  0  0
    3.3528   -2.8141    0.5093 C   0  0  0  0  0  0  0  0  0  0  0  0
    4.5908   -2.6302    0.3493 O   0  0  0  0  0  0  0  0  0  0  0  0
    3.0020   -4.1726    0.7275 N   0  0  0  0  0  0  0  0  0  0  0  0
    1.5681   -4.2497    0.8959 C   0  0  0  0  0  0  0  0  0  0  0  0
    0.8065   -5.2373    1.1112 O   0  0  0  0  0  0  0  0  0  0  0  0
    2.2019   -0.6043    0.3872 C   0  0  0  0  0  0  0  0  0  0  0  0
    1.5871    0.3108    1.2241 C   0  0  0  0  0  0  0  0  0  0  0  0
    1.8694    1.5690    0.7917 N   0  0  0  0  0  0  0  0  0  0  0  0
    1.3917    2.7837    1.4441 C   0  0  0  0  0  0  0  0  0  0  0  0
    2.6502    1.5176   -0.3064 C   0  0  0  0  0  0  0  0  0  0  0  0
    3.1797    2.5220   -1.0928 C   0  0  0  0  0  0  0  0  0  0  0  0
    3.9542    2.1898   -2.1867 C   0  0  0  0  0  0  0  0  0  0  0  0
    4.1502    0.8287   -2.4246 C   0  0  0  0  0  0  0  0  0  0  0  0
    4.8937    0.4479   -3.4764 F   0  0  0  0  0  0  0  0  0  0  0  0
    3.6147   -0.1593   -1.6310 C   0  0  0  0  0  0  0  0  0  0  0  0
    2.8445    0.1838   -0.5409 C   0  0  0  0  0  0  0  0  0  0  0  0
   -3.9960    1.0777    0.7754 H   0  0  0  0  0  0  0  0  0  0  0  0
   -6.0205    1.4066   -0.1627 H   0  0  0  0  0  0  0  0  0  0  0  0
   -3.2486    3.2241   -1.2981 H   0  0  0  0  0  0  0  0  0  0  0  0
   -2.0880    2.3757   -0.1384 H   0  0  0  0  0  0  0  0  0  0  0  0
   -4.1107    4.3179    0.3213 H   0  0  0  0  0  0  0  0  0  0  0  0
   -4.3666   -0.3031   -1.2950 H   0  0  0  0  0  0  0  0  0  0  0  0
   -3.7002    0.9965   -2.3173 H   0  0  0  0  0  0  0  0  0  0  0  0
   -1.5783    0.2178   -1.8476 H   0  0  0  0  0  0  0  0  0  0  0  0
   -3.8986   -1.2517    0.7514 H   0  0  0  0  0  0  0  0  0  0  0  0
   -3.2475   -2.8617    2.4177 H   0  0  0  0  0  0  0  0  0  0  0  0
   -0.8863   -3.6453    2.4725 H   0  0  0  0  0  0  0  0  0  0  0  0
    0.0578   -1.1142   -0.8330 H   0  0  0  0  0  0  0  0  0  0  0  0
    3.5041   -5.0915    0.7946 H   0  0  0  0  0  0  0  0  0  0  0  0
    0.9775    0.0851    2.0865 H   0  0  0  0  0  0  0  0  0  0  0  0
    1.3427    2.6285    2.5486 H   0  0  0  0  0  0  0  0  0  0  0  0
    2.1554    3.5998    1.3178 H   0  0  0  0  0  0  0  0  0  0  0  0
    0.4288    3.1277    1.0484 H   0  0  0  0  0  0  0  0  0  0  0  0
    3.0239    3.5751   -0.9053 H   0  0  0  0  0  0  0  0  0  0  0  0
    4.4247    2.8989   -2.8779 H   0  0  0  0  0  0  0  0  0  0  0  0
    3.7853   -1.2182   -1.8460 H   0  0  0  0  0  0  0  0  0  0  0  0
  1  2  1  0
  1  3  1  0
  3  4  1  0
  1  5  1  0
  5  6  1  0
  6  7  1  0
  7  8  2  0
  8  9  1  0
  9 10  2  0
 10 11  1  0
 11 12  2  0
 11 13  1  0
 13 14  2  0
 14 15  1  0
 15 16  2  0
 15 17  1  0
 17 18  1  0
 18 19  2  0
 14 20  1  0
 20 21  2  0
 21 22  1  0
 22 23  1  0
 22 24  1  0
 24 25  2  0
 25 26  1  0
 26 27  2  0
 27 28  1  0
 27 29  1  0
 29 30  2  0
 12  7  1  0
 18 13  1  0
 30 20  1  0
 30 24  1  0
  1 31  1  1
  2 32  1  0
  3 33  1  0
  3 34  1  0
  4 35  1  0
  5 36  1  0
  5 37  1  0
  6 38  1  0
  8 39  1  0
  9 40  1  0
 10 41  1  0
 12 42  1  0
 17 43  1  0
 21 44  1  0
 23 45  1  0
 23 46  1  0
 23 47  1  0
 25 48  1  0
 26 49  1  0
 29 50  1  0
M  END
$$$$
