@<TRIPOS>MOLECULE
*****
 49 53 0 0 0
SMALL
GASTEIGER

@<TRIPOS>ATOM
      1 C           6.8607    0.9200   -0.6813 C.3     1  UNL1       -0.0222
      2 C           6.0217    0.0349    0.1663 C.ar    1  UNL1        0.0435
      3 C           6.5822   -0.5112    1.2916 C.ar    1  UNL1       -0.0224
      4 C           5.8087   -1.3342    2.0835 C.ar    1  UNL1        0.0317
      5 N           4.5378   -1.5504    1.6949 N.ar    1  UNL1       -0.2358
      6 C           4.0161   -0.9936    0.5755 C.ar    1  UNL1        0.1604
      7 C           2.7668   -1.0568   -0.0287 C.ar    1  UNL1        0.0349
      8 C           2.7805   -0.2843   -1.1697 C.ar    1  UNL1        0.0839
      9 N           4.0230    0.2287   -1.2385 N.ar    1  UNL1       -0.1681
     10 N           4.7497   -0.1874   -0.2136 N.ar    1  UNL1       -0.2183
     11 C           1.4347   -0.3330   -1.8473 C.3     1  UNL1        0.0440
     12 N           0.5753   -0.8752   -0.8341 N.3     1  UNL1       -0.2871
     13 C          -0.1559    0.0797   -0.0808 C.3     1  UNL1        0.0360
     14 C          -1.0806    0.9497   -0.8587 C.3     1  UNL1        0.0641
     15 O          -2.1845    0.2441   -1.3621 O.3     1  UNL1       -0.3688
     16 C          -3.0327   -0.2041   -0.3718 C.3     1  UNL1        0.1015
     17 C          -4.3522    0.4569   -0.3942 C.ar    1  UNL1        0.0205
     18 C          -4.4650    1.7868   -0.7196 C.ar    1  UNL1       -0.0180
     19 C          -5.7047    2.4262   -0.7454 C.ar    1  UNL1        0.1239
     20 F          -5.7398    3.7384   -1.0749 F       1  UNL1       -0.2055
     21 C          -6.8373    1.7135   -0.4395 C.ar    1  UNL1       -0.0237
     22 C          -6.7516    0.3834   -0.1110 C.ar    1  UNL1       -0.0234
     23 C          -5.5043   -0.2284   -0.0931 C.ar    1  UNL1        0.1292
     24 F          -5.4838   -1.5442    0.2389 F       1  UNL1       -0.2051
     25 C          -2.3893   -0.0999    1.0152 C.3     1  UNL1        0.0371
     26 N          -3.1836   -0.9394    1.8876 N.3     1  UNL1       -0.3248
     27 C          -1.0091   -0.6913    0.9284 C.3     1  UNL1       -0.0172
     28 C           1.4168   -1.6327    0.0729 C.3     1  UNL1        0.0301
     29 H           7.2545    0.3147   -1.5248 H       1  UNL1        0.0293
     30 H           7.7294    1.3325   -0.1364 H       1  UNL1        0.0293
     31 H           6.2427    1.7399   -1.1305 H       1  UNL1        0.0293
     32 H           7.6260   -0.3165    1.5852 H       1  UNL1        0.0650
     33 H           6.2469   -1.7683    2.9739 H       1  UNL1        0.0831
     34 H           1.1524    0.6446   -2.2307 H       1  UNL1        0.0492
     35 H           1.5636   -1.0140   -2.7137 H       1  UNL1        0.0492
     36 H           0.4985    0.7398    0.5349 H       1  UNL1        0.0486
     37 H          -1.4320    1.7623   -0.1555 H       1  UNL1        0.0576
     38 H          -0.6339    1.4750   -1.7090 H       1  UNL1        0.0576
     39 H          -3.1467   -1.3160   -0.5387 H       1  UNL1        0.0663
     40 H          -3.6111    2.3659   -0.9609 H       1  UNL1        0.0651
     41 H          -7.7985    2.2361   -0.4663 H       1  UNL1        0.0647
     42 H          -7.6426   -0.1492    0.1224 H       1  UNL1        0.0647
     43 H          -2.4161    0.9123    1.4152 H       1  UNL1        0.0488
     44 H          -2.9580   -0.7945    2.8952 H       1  UNL1        0.1186
     45 H          -3.1803   -1.9363    1.6093 H       1  UNL1        0.1186
     46 H          -0.5668   -0.6594    1.9453 H       1  UNL1        0.0297
     47 H          -1.1238   -1.7549    0.6197 H       1  UNL1        0.0297
     48 H           1.0476   -1.6346    1.0997 H       1  UNL1        0.0478
     49 H           1.4483   -2.6758   -0.3312 H       1  UNL1        0.0478
@<TRIPOS>BOND
     1     1     2    1
     2     2     3   ar
     3     3     4   ar
     4     4     5   ar
     5     5     6   ar
     6     6     7   ar
     7     7     8   ar
     8     8     9   ar
     9     9    10   ar
    10     8    11    1
    11    11    12    1
    12    12    13    1
    13    13    14    1
    14    14    15    1
    15    15    16    1
    16    16    17    1
    17    17    18   ar
    18    18    19   ar
    19    19    20    1
    20    19    21   ar
    21    21    22   ar
    22    22    23   ar
    23    23    24    1
    24    16    25    1
    25    25    26    1
    26    25    27    1
    27    12    28    1
    28    10     2   ar
    29    27    13    1
    30    10     6   ar
    31    23    17   ar
    32    28     7    1
    33     1    29    1
    34     1    30    1
    35     1    31    1
    36     3    32    1
    37     4    33    1
    38    11    34    1
    39    11    35    1
    40    13    36    1
    41    14    37    1
    42    14    38    1
    43    16    39    1
    44    18    40    1
    45    21    41    1
    46    22    42    1
    47    25    43    1
    48    26    44    1
    49    26    45    1
    50    27    46    1
    51    27    47    1
    52    28    48    1
    53    28    49    1
