@<TRIPOS>MOLECULE
*****
 72 75 0 0 0
SMALL
GASTEIGER

@<TRIPOS>ATOM
      1 C          -0.3844   -4.3805    2.4223 C.3     1  UNL1       -0.0416
      2 C          -0.4017   -2.8870    2.6470 C.3     1  UNL1        0.0453
      3 O           0.1468   -2.1877    1.5893 O.3     1  UNL1       -0.3737
      4 C           0.1365   -0.8094    1.7846 C.3     1  UNL1        0.0908
      5 C           1.6177   -0.4081    1.8854 C.3     1  UNL1        0.0273
      6 N           2.0351   -0.2988    0.5278 N.3     1  UNL1       -0.2951
      7 C           2.5458   -1.4992   -0.0460 C.3     1  UNL1        0.0108
      8 C           2.9529   -1.2544   -1.4750 C.3     1  UNL1       -0.0344
      9 C           3.9321   -0.0912   -1.5686 C.3     1  UNL1       -0.0184
     10 C           5.1335   -0.3717   -0.7233 C.3     1  UNL1        0.0910
     11 O           5.7045   -1.5677   -1.1989 O.3     1  UNL1       -0.3840
     12 C           6.1488    0.6744   -0.8498 C.ar    1  UNL1       -0.0161
     13 C           5.9215    1.7470   -1.6803 C.ar    1  UNL1       -0.0559
     14 C           6.8558    2.7715   -1.8371 C.ar    1  UNL1       -0.0614
     15 C           8.0513    2.7280   -1.1477 C.ar    1  UNL1       -0.0617
     16 C           8.2790    1.6454   -0.3104 C.ar    1  UNL1       -0.0614
     17 C           7.3379    0.6354   -0.1669 C.ar    1  UNL1       -0.0559
     18 C           4.7191   -0.6410    0.7094 C.3     1  UNL1       -0.0184
     19 C           3.8226   -1.8685    0.6993 C.3     1  UNL1       -0.0344
     20 C           0.9282    0.3002   -0.1321 C.3     1  UNL1        0.0202
     21 C          -0.3381   -0.1215    0.5867 C.3     1  UNL1        0.0632
     22 N          -1.1476    1.0332    0.7202 N.am    1  UNL1       -0.3074
     23 C          -2.3975    1.2673    0.1299 C.2     1  UNL1        0.2305
     24 O          -2.8866    0.3931   -0.5974 O.2     1  UNL1       -0.2741
     25 C          -3.1402    2.5237    0.3531 C.3     1  UNL1        0.0884
     26 N          -4.3882    2.4588   -0.3814 N.am    1  UNL1       -0.3028
     27 C          -5.3199    1.4544   -0.0852 C.2     1  UNL1        0.2445
     28 O          -5.0574    0.6078    0.8332 O.2     1  UNL1       -0.2702
     29 C          -6.5726    1.3733   -0.8123 C.ar    1  UNL1        0.0372
     30 C          -6.9643    2.2185   -1.8154 C.ar    1  UNL1       -0.0496
     31 C          -8.1867    2.0757   -2.4668 C.ar    1  UNL1       -0.0605
     32 C          -9.0364    1.0711   -2.1125 C.ar    1  UNL1       -0.0501
     33 C          -8.6900    0.2004   -1.1157 C.ar    1  UNL1        0.0555
     34 C          -9.6262   -0.8954   -0.7350 C.3     1  UNL1        0.4174
     35 F          -8.9223   -2.0130   -0.3118 F       1  UNL1       -0.1659
     36 F         -10.3778   -1.2322   -1.8456 F       1  UNL1       -0.1659
     37 F         -10.4654   -0.4802    0.2694 F       1  UNL1       -0.1659
     38 C          -7.4835    0.3551   -0.4849 C.ar    1  UNL1       -0.0380
     39 H           0.4657   -4.8819    2.8948 H       1  UNL1        0.0252
     40 H          -1.3063   -4.8574    2.8635 H       1  UNL1        0.0252
     41 H          -0.4521   -4.6235    1.3225 H       1  UNL1        0.0252
     42 H           0.2114   -2.6777    3.5504 H       1  UNL1        0.0557
     43 H          -1.4363   -2.6035    2.8808 H       1  UNL1        0.0557
     44 H          -0.3056   -0.5654    2.7386 H       1  UNL1        0.0628
     45 H           2.1853   -1.1090    2.4993 H       1  UNL1        0.0453
     46 H           1.6259    0.6118    2.3413 H       1  UNL1        0.0453
     47 H           1.8557   -2.3575   -0.0269 H       1  UNL1        0.0462
     48 H           2.1302   -1.1878   -2.1825 H       1  UNL1        0.0281
     49 H           3.5542   -2.1603   -1.7832 H       1  UNL1        0.0281
     50 H           4.2297   -0.0323   -2.6398 H       1  UNL1        0.0297
     51 H           3.4589    0.8607   -1.2195 H       1  UNL1        0.0297
     52 H           6.4113   -1.8819   -0.5801 H       1  UNL1        0.2106
     53 H           5.0021    1.8120   -2.2314 H       1  UNL1        0.0621
     54 H           6.6716    3.6140   -2.4923 H       1  UNL1        0.0618
     55 H           8.8101    3.5020   -1.2366 H       1  UNL1        0.0618
     56 H           9.2142    1.5910    0.2421 H       1  UNL1        0.0618
     57 H           7.5371   -0.1905    0.4860 H       1  UNL1        0.0621
     58 H           5.5828   -0.8861    1.3423 H       1  UNL1        0.0297
     59 H           4.1267    0.2239    1.0847 H       1  UNL1        0.0297
     60 H           3.6421   -2.2835    1.6865 H       1  UNL1        0.0281
     61 H           4.3374   -2.6278    0.0735 H       1  UNL1        0.0281
     62 H           1.0621    1.4099   -0.0533 H       1  UNL1        0.0446
     63 H           0.8731    0.0939   -1.2178 H       1  UNL1        0.0446
     64 H          -0.8596   -0.8422   -0.0813 H       1  UNL1        0.0537
     65 H          -0.7559    1.8015    1.3381 H       1  UNL1        0.1492
     66 H          -2.5595    3.3872   -0.0856 H       1  UNL1        0.0558
     67 H          -3.3128    2.6992    1.4388 H       1  UNL1        0.0558
     68 H          -4.5898    3.1486   -1.1185 H       1  UNL1        0.1495
     69 H          -6.3019    3.0192   -2.1069 H       1  UNL1        0.0625
     70 H          -8.4034    2.7966   -3.2474 H       1  UNL1        0.0618
     71 H          -9.9840    1.0047   -2.6568 H       1  UNL1        0.0623
     72 H          -7.2023   -0.3347    0.3093 H       1  UNL1        0.0631
@<TRIPOS>BOND
     1     1     2    1
     2     2     3    1
     3     3     4    1
     4     4     5    1
     5     5     6    1
     6     6     7    1
     7     7     8    1
     8     8     9    1
     9     9    10    1
    10    10    11    1
    11    10    12    1
    12    12    13   ar
    13    13    14   ar
    14    14    15   ar
    15    15    16   ar
    16    16    17   ar
    17    10    18    1
    18    18    19    1
    19     6    20    1
    20    20    21    1
    21    21    22    1
    22    22    23   am
    23    23    24    2
    24    23    25    1
    25    25    26    1
    26    26    27   am
    27    27    28    2
    28    27    29    1
    29    29    30   ar
    30    30    31   ar
    31    31    32   ar
    32    32    33   ar
    33    33    34    1
    34    34    35    1
    35    34    36    1
    36    34    37    1
    37    33    38   ar
    38    21     4    1
    39    38    29   ar
    40    19     7    1
    41    17    12   ar
    42     1    39    1
    43     1    40    1
    44     1    41    1
    45     2    42    1
    46     2    43    1
    47     4    44    1
    48     5    45    1
    49     5    46    1
    50     7    47    1
    51     8    48    1
    52     8    49    1
    53     9    50    1
    54     9    51    1
    55    11    52    1
    56    13    53    1
    57    14    54    1
    58    15    55    1
    59    16    56    1
    60    17    57    1
    61    18    58    1
    62    18    59    1
    63    19    60    1
    64    19    61    1
    65    20    62    1
    66    20    63    1
    67    21    64    1
    68    22    65    1
    69    25    66    1
    70    25    67    1
    71    26    68    1
    72    30    69    1
    73    31    70    1
    74    32    71    1
    75    38    72    1
