
     RDKit          3D

 38 40  0  0  0  0  0  0  0  0999 V2000
   -5.5406    0.2493    0.2339 C   0  0  1  0  0  0  0  0  0  0  0  0
   -5.8819   -0.9620    0.8952 O   0  0  0  0  0  0  0  0  0  0  0  0
   -6.1765    1.3374    1.0502 C   0  0  0  0  0  0  0  0  0  0  0  0
   -5.9158    2.5555    0.4481 O   0  0  0  0  0  0  0  0  0  0  0  0
   -4.0591    0.3240    0.2129 C   0  0  0  0  0  0  0  0  0  0  0  0
   -3.2156    1.3562    0.5199 C   0  0  0  0  0  0  0  0  0  0  0  0
   -1.8510    1.2567    0.4451 C   0  0  0  0  0  0  0  0  0  0  0  0
   -1.2287    0.0949    0.0505 C   0  0  0  0  0  0  0  0  0  0  0  0
    0.1870    0.0903    0.0055 N   0  0  0  0  0  0  0  0  0  0  0  0
    1.0678   -0.9342   -0.3515 C   0  0  0  0  0  0  0  0  0  0  0  0
    0.6074   -2.0480   -0.6961 O   0  0  0  0  0  0  0  0  0  0  0  0
    2.5154   -0.7919   -0.3500 C   0  0  0  0  0  0  0  0  0  0  0  0
    3.2056    0.3713    0.0035 C   0  0  0  0  0  0  0  0  0  0  0  0
    4.5656    0.1755   -0.1012 C   0  0  0  0  0  0  0  0  0  0  0  0
    5.7295    0.8819    0.0906 C   0  0  0  0  0  0  0  0  0  0  0  0
    6.9392    0.2472   -0.1508 C   0  0  0  0  0  0  0  0  0  0  0  0
    8.4231    1.1434    0.0924 Cl  0  0  0  0  0  0  0  0  0  0  0  0
    7.0427   -1.0602   -0.5751 C   0  0  0  0  0  0  0  0  0  0  0  0
    5.8802   -1.7758   -0.7699 C   0  0  0  0  0  0  0  0  0  0  0  0
    4.6680   -1.1392   -0.5278 C   0  0  0  0  0  0  0  0  0  0  0  0
    3.4498   -1.6768   -0.6636 N   0  0  0  0  0  0  0  0  0  0  0  0
   -2.0711   -0.9462   -0.2594 C   0  0  0  0  0  0  0  0  0  0  0  0
   -3.4463   -0.8681   -0.1912 C   0  0  0  0  0  0  0  0  0  0  0  0
   -5.9548    0.1780   -0.7702 H   0  0  0  0  0  0  0  0  0  0  0  0
   -5.1810   -1.1184    1.5907 H   0  0  0  0  0  0  0  0  0  0  0  0
   -7.2788    1.2388    1.0876 H   0  0  0  0  0  0  0  0  0  0  0  0
   -5.8503    1.3114    2.1140 H   0  0  0  0  0  0  0  0  0  0  0  0
   -6.2508    2.4906   -0.4855 H   0  0  0  0  0  0  0  0  0  0  0  0
   -3.6862    2.2677    0.8319 H   0  0  0  0  0  0  0  0  0  0  0  0
   -1.2903    2.1484    0.7155 H   0  0  0  0  0  0  0  0  0  0  0  0
    0.7036    0.9685    0.2725 H   0  0  0  0  0  0  0  0  0  0  0  0
    2.7857    1.3301    0.3252 H   0  0  0  0  0  0  0  0  0  0  0  0
    5.6300    1.8980    0.4210 H   0  0  0  0  0  0  0  0  0  0  0  0
    8.0120   -1.4926   -0.7440 H   0  0  0  0  0  0  0  0  0  0  0  0
    5.9396   -2.8025   -1.1024 H   0  0  0  0  0  0  0  0  0  0  0  0
    3.1931   -2.6611   -0.9728 H   0  0  0  0  0  0  0  0  0  0  0  0
   -1.6408   -1.8727   -0.5720 H   0  0  0  0  0  0  0  0  0  0  0  0
   -4.0257   -1.7656   -0.4630 H   0  0  0  0  0  0  0  0  0  0  0  0
  1  2  1  0
  1  3  1  0
  3  4  1  0
  1  5  1  0
  5  6  2  0
  6  7  1  0
  7  8  2  0
  8  9  1  0
  9 10  1  0
 10 11  2  0
 10 12  1  0
 12 13  2  0
 13 14  1  0
 14 15  2  0
 15 16  1  0
 16 17  1  0
 16 18  2  0
 18 19  1  0
 19 20  2  0
 20 21  1  0
  8 22  1  0
 22 23  2  0
 23  5  1  0
 21 12  1  0
 20 14  1  0
  1 24  1  6
  2 25  1  0
  3 26  1  0
  3 27  1  0
  4 28  1  0
  6 29  1  0
  7 30  1  0
  9 31  1  0
 13 32  1  0
 15 33  1  0
 18 34  1  0
 19 35  1  0
 21 36  1  0
 22 37  1  0
 23 38  1  0
M  END
$$$$
