@<TRIPOS>MOLECULE
*****
 70 75 0 0 0
SMALL
GASTEIGER

@<TRIPOS>ATOM
      1 C           1.1382    0.4698   -1.1886 C.3     1  UNL1       -0.0351
      2 C           0.7876   -0.3441    0.0128 C.3     1  UNL1        0.0935
      3 C           2.0526   -0.8947    0.5999 C.ar    1  UNL1        0.0158
      4 C           3.2686   -0.7125   -0.0791 C.ar    1  UNL1       -0.0463
      5 C           4.4317   -1.3253    0.3396 C.ar    1  UNL1       -0.0217
      6 C           5.6699   -1.2644   -0.4208 C.2     1  UNL1       -0.0172
      7 C           6.1924   -0.2316   -1.0115 C.2     1  UNL1        0.1492
      8 F           5.5363    0.9546   -0.9192 F       1  UNL1       -0.2032
      9 C           7.3843   -0.3251   -1.8688 C.ar    1  UNL1        0.0990
     10 C           8.0444   -1.5048   -2.1406 C.ar    1  UNL1       -0.0322
     11 C           9.0916   -1.5535   -3.0796 C.ar    1  UNL1       -0.0408
     12 C           9.4667   -0.4233   -3.7336 C.ar    1  UNL1        0.0699
     13 C          10.5055   -0.4604   -4.8263 C.1     1  UNL1        0.1007
     14 N          11.2219   -0.4883   -5.6064 N.1     1  UNL1       -0.1908
     15 C           8.8112    0.7532   -3.4534 C.ar    1  UNL1        0.0457
     16 N           7.8034    0.7801   -2.5441 N.ar    1  UNL1       -0.2514
     17 C           4.3738   -2.1224    1.4541 C.ar    1  UNL1       -0.0518
     18 C           3.1793   -2.3020    2.1299 C.ar    1  UNL1       -0.0255
     19 C           1.9934   -1.6970    1.7223 C.ar    1  UNL1        0.1289
     20 F           0.8440   -1.9077    2.4208 F       1  UNL1       -0.2051
     21 N           0.0453   -1.5399   -0.4275 N.2     1  UNL1       -0.2521
     22 C          -1.1488   -1.4838   -0.8740 C.2     1  UNL1        0.1485
     23 N          -1.8750   -2.5818   -1.3048 N.pl3   1  UNL1       -0.3380
     24 S          -1.8814    0.1737   -0.8657 S.3     1  UNL1       -0.0746
     25 C          -1.2731    0.9029    0.7018 C.3     1  UNL1        0.1054
     26 C          -1.7976    2.2069    1.1278 C.2     1  UNL1        0.2324
     27 O          -1.1064    3.2336    0.9811 O.2     1  UNL1       -0.2741
     28 N          -3.1079    2.3115    1.7155 N.am    1  UNL1       -0.2997
     29 C          -3.6755    3.5552    2.1391 C.3     1  UNL1        0.0147
     30 C          -4.8965    3.8742    1.3241 C.3     1  UNL1       -0.0366
     31 C          -5.3506    2.5903    0.6418 C.3     1  UNL1       -0.0434
     32 C          -5.3425    1.4482    1.6079 C.3     1  UNL1       -0.0000
     33 C          -6.0850    0.3085    0.9863 C.ar    1  UNL1       -0.0428
     34 C          -5.9887    0.0605   -0.3640 C.ar    1  UNL1       -0.0583
     35 C          -6.6731   -0.9902   -0.9885 C.ar    1  UNL1       -0.0615
     36 C          -7.4528   -1.7661   -0.1779 C.ar    1  UNL1       -0.0617
     37 C          -7.5905   -1.5727    1.1738 C.ar    1  UNL1       -0.0615
     38 C          -6.8906   -0.5132    1.7638 C.ar    1  UNL1       -0.0583
     39 C          -3.8926    1.0833    1.8970 C.3     1  UNL1        0.0215
     40 C          -1.1101   -0.1584    1.7832 C.3     1  UNL1       -0.0220
     41 C           0.0515    0.4331    1.0761 C.3     1  UNL1        0.0134
     42 H           1.8754    1.2733   -0.9394 H       1  UNL1        0.0256
     43 H           0.3212    0.9510   -1.7129 H       1  UNL1        0.0256
     44 H           1.5907   -0.2462   -1.9364 H       1  UNL1        0.0256
     45 H           3.3399   -0.0985   -0.9417 H       1  UNL1        0.0628
     46 H           6.2709   -2.2037   -0.5255 H       1  UNL1        0.0653
     47 H           7.7636   -2.4035   -1.6356 H       1  UNL1        0.0640
     48 H           9.5951   -2.4855   -3.2862 H       1  UNL1        0.0631
     49 H           9.1424    1.6470   -3.9934 H       1  UNL1        0.0843
     50 H           5.2952   -2.6023    1.7823 H       1  UNL1        0.0624
     51 H           3.1048   -2.9188    3.0110 H       1  UNL1        0.0646
     52 H          -1.9864   -2.7511   -2.3518 H       1  UNL1        0.1442
     53 H          -2.3217   -3.2596   -0.6591 H       1  UNL1        0.1442
     54 H          -2.9607    4.4129    2.0183 H       1  UNL1        0.0464
     55 H          -4.0102    3.5274    3.2165 H       1  UNL1        0.0464
     56 H          -5.7206    4.2772    1.9836 H       1  UNL1        0.0281
     57 H          -4.6807    4.6549    0.5791 H       1  UNL1        0.0281
     58 H          -4.6130    2.3522   -0.1569 H       1  UNL1        0.0272
     59 H          -6.3417    2.7734    0.2217 H       1  UNL1        0.0272
     60 H          -5.7705    1.6982    2.6094 H       1  UNL1        0.0364
     61 H          -5.3776    0.6617   -0.9997 H       1  UNL1        0.0620
     62 H          -6.6180   -1.1942   -2.0422 H       1  UNL1        0.0618
     63 H          -8.0259   -2.6080   -0.6006 H       1  UNL1        0.0618
     64 H          -8.2212   -2.2266    1.7511 H       1  UNL1        0.0618
     65 H          -6.9705   -0.3328    2.8102 H       1  UNL1        0.0620
     66 H          -3.5533    0.3912    1.0834 H       1  UNL1        0.0470
     67 H          -3.7610    0.6669    2.9141 H       1  UNL1        0.0470
     68 H          -1.3599    0.2030    2.7931 H       1  UNL1        0.0287
     69 H          -1.4844   -1.1604    1.5528 H       1  UNL1        0.0287
     70 H           0.7232    1.0399    1.7307 H       1  UNL1        0.0346
@<TRIPOS>BOND
     1     2     1    1
     2     2     3    1
     3     3     4   ar
     4     4     5   ar
     5     5     6    1
     6     6     7    2
     7     7     8    1
     8     7     9    1
     9     9    10   ar
    10    10    11   ar
    11    11    12   ar
    12    12    13    1
    13    13    14    3
    14    12    15   ar
    15    15    16   ar
    16     5    17   ar
    17    17    18   ar
    18    18    19   ar
    19    19    20    1
    20     2    21    1
    21    21    22    2
    22    22    23    1
    23    22    24    1
    24    24    25    1
    25    25    26    1
    26    26    27    2
    27    26    28   am
    28    28    29    1
    29    29    30    1
    30    30    31    1
    31    31    32    1
    32    32    33    1
    33    33    34   ar
    34    34    35   ar
    35    35    36   ar
    36    36    37   ar
    37    37    38   ar
    38    32    39    1
    39    25    40    1
    40    40    41    1
    41    41     2    1
    42    19     3   ar
    43    41    25    1
    44    16     9   ar
    45    39    28    1
    46    38    33   ar
    47     1    42    1
    48     1    43    1
    49     1    44    1
    50     4    45    1
    51     6    46    1
    52    10    47    1
    53    11    48    1
    54    15    49    1
    55    17    50    1
    56    18    51    1
    57    23    52    1
    58    23    53    1
    59    29    54    1
    60    29    55    1
    61    30    56    1
    62    30    57    1
    63    31    58    1
    64    31    59    1
    65    32    60    1
    66    34    61    1
    67    35    62    1
    68    36    63    1
    69    37    64    1
    70    38    65    1
    71    39    66    1
    72    39    67    1
    73    40    68    1
    74    40    69    1
    75    41    70    1
