
     RDKit          3D

 70 75  0  0  0  0  0  0  0  0999 V2000
    1.1382    0.4698   -1.1886 C   0  0  0  0  0  0  0  0  0  0  0  0
    0.7876   -0.3441    0.0128 C   0  0  2  0  0  0  0  0  0  0  0  0
    2.0526   -0.8947    0.5999 C   0  0  0  0  0  0  0  0  0  0  0  0
    3.2686   -0.7125   -0.0791 C   0  0  0  0  0  0  0  0  0  0  0  0
    4.4317   -1.3253    0.3396 C   0  0  0  0  0  0  0  0  0  0  0  0
    5.6699   -1.2644   -0.4208 C   0  0  0  0  0  0  0  0  0  0  0  0
    6.1924   -0.2316   -1.0115 C   0  0  0  0  0  0  0  0  0  0  0  0
    5.5363    0.9546   -0.9192 F   0  0  0  0  0  0  0  0  0  0  0  0
    7.3843   -0.3251   -1.8688 C   0  0  0  0  0  0  0  0  0  0  0  0
    8.0444   -1.5048   -2.1406 C   0  0  0  0  0  0  0  0  0  0  0  0
    9.0916   -1.5535   -3.0796 C   0  0  0  0  0  0  0  0  0  0  0  0
    9.4667   -0.4233   -3.7336 C   0  0  0  0  0  0  0  0  0  0  0  0
   10.5055   -0.4604   -4.8263 C   0  0  0  0  0  0  0  0  0  0  0  0
   11.2219   -0.4883   -5.6064 N   0  0  0  0  0  0  0  0  0  0  0  0
    8.8112    0.7532   -3.4534 C   0  0  0  0  0  0  0  0  0  0  0  0
    7.8034    0.7801   -2.5441 N   0  0  0  0  0  0  0  0  0  0  0  0
    4.3738   -2.1224    1.4541 C   0  0  0  0  0  0  0  0  0  0  0  0
    3.1793   -2.3020    2.1299 C   0  0  0  0  0  0  0  0  0  0  0  0
    1.9934   -1.6970    1.7223 C   0  0  0  0  0  0  0  0  0  0  0  0
    0.8440   -1.9077    2.4208 F   0  0  0  0  0  0  0  0  0  0  0  0
    0.0453   -1.5399   -0.4275 N   0  0  0  0  0  0  0  0  0  0  0  0
   -1.1488   -1.4838   -0.8740 C   0  0  0  0  0  0  0  0  0  0  0  0
   -1.8750   -2.5818   -1.3048 N   0  0  0  0  0  0  0  0  0  0  0  0
   -1.8814    0.1737   -0.8657 S   0  0  0  0  0  0  0  0  0  0  0  0
   -1.2731    0.9029    0.7018 C   0  0  1  0  0  0  0  0  0  0  0  0
   -1.7976    2.2069    1.1278 C   0  0  0  0  0  0  0  0  0  0  0  0
   -1.1064    3.2336    0.9811 O   0  0  0  0  0  0  0  0  0  0  0  0
   -3.1079    2.3115    1.7155 N   0  0  0  0  0  0  0  0  0  0  0  0
   -3.6755    3.5552    2.1391 C   0  0  0  0  0  0  0  0  0  0  0  0
   -4.8965    3.8742    1.3241 C   0  0  0  0  0  0  0  0  0  0  0  0
   -5.3506    2.5903    0.6418 C   0  0  0  0  0  0  0  0  0  0  0  0
   -5.3425    1.4482    1.6079 C   0  0  0  0  0  0  0  0  0  0  0  0
   -6.0850    0.3085    0.9863 C   0  0  0  0  0  0  0  0  0  0  0  0
   -5.9887    0.0605   -0.3640 C   0  0  0  0  0  0  0  0  0  0  0  0
   -6.6731   -0.9902   -0.9885 C   0  0  0  0  0  0  0  0  0  0  0  0
   -7.4528   -1.7661   -0.1779 C   0  0  0  0  0  0  0  0  0  0  0  0
   -7.5905   -1.5727    1.1738 C   0  0  0  0  0  0  0  0  0  0  0  0
   -6.8906   -0.5132    1.7638 C   0  0  0  0  0  0  0  0  0  0  0  0
   -3.8926    1.0833    1.8970 C   0  0  0  0  0  0  0  0  0  0  0  0
   -1.1101   -0.1584    1.7832 C   0  0  0  0  0  0  0  0  0  0  0  0
    0.0515    0.4331    1.0761 C   0  0  1  0  0  0  0  0  0  0  0  0
    1.8754    1.2733   -0.9394 H   0  0  0  0  0  0  0  0  0  0  0  0
    0.3212    0.9510   -1.7129 H   0  0  0  0  0  0  0  0  0  0  0  0
    1.5907   -0.2462   -1.9364 H   0  0  0  0  0  0  0  0  0  0  0  0
    3.3399   -0.0985   -0.9417 H   0  0  0  0  0  0  0  0  0  0  0  0
    6.2709   -2.2037   -0.5255 H   0  0  0  0  0  0  0  0  0  0  0  0
    7.7636   -2.4035   -1.6356 H   0  0  0  0  0  0  0  0  0  0  0  0
    9.5951   -2.4855   -3.2862 H   0  0  0  0  0  0  0  0  0  0  0  0
    9.1424    1.6470   -3.9934 H   0  0  0  0  0  0  0  0  0  0  0  0
    5.2952   -2.6023    1.7823 H   0  0  0  0  0  0  0  0  0  0  0  0
    3.1048   -2.9188    3.0110 H   0  0  0  0  0  0  0  0  0  0  0  0
   -1.9864   -2.7511   -2.3518 H   0  0  0  0  0  0  0  0  0  0  0  0
   -2.3217   -3.2596   -0.6591 H   0  0  0  0  0  0  0  0  0  0  0  0
   -2.9607    4.4129    2.0183 H   0  0  0  0  0  0  0  0  0  0  0  0
   -4.0102    3.5274    3.2165 H   0  0  0  0  0  0  0  0  0  0  0  0
   -5.7206    4.2772    1.9836 H   0  0  0  0  0  0  0  0  0  0  0  0
   -4.6807    4.6549    0.5791 H   0  0  0  0  0  0  0  0  0  0  0  0
   -4.6130    2.3522   -0.1569 H   0  0  0  0  0  0  0  0  0  0  0  0
   -6.3417    2.7734    0.2217 H   0  0  0  0  0  0  0  0  0  0  0  0
   -5.7705    1.6982    2.6094 H   0  0  0  0  0  0  0  0  0  0  0  0
   -5.3776    0.6617   -0.9997 H   0  0  0  0  0  0  0  0  0  0  0  0
   -6.6180   -1.1942   -2.0422 H   0  0  0  0  0  0  0  0  0  0  0  0
   -8.0259   -2.6080   -0.6006 H   0  0  0  0  0  0  0  0  0  0  0  0
   -8.2212   -2.2266    1.7511 H   0  0  0  0  0  0  0  0  0  0  0  0
   -6.9705   -0.3328    2.8102 H   0  0  0  0  0  0  0  0  0  0  0  0
   -3.5533    0.3912    1.0834 H   0  0  0  0  0  0  0  0  0  0  0  0
   -3.7610    0.6669    2.9141 H   0  0  0  0  0  0  0  0  0  0  0  0
   -1.3599    0.2030    2.7931 H   0  0  0  0  0  0  0  0  0  0  0  0
   -1.4844   -1.1604    1.5528 H   0  0  0  0  0  0  0  0  0  0  0  0
    0.7232    1.0399    1.7307 H   0  0  0  0  0  0  0  0  0  0  0  0
  2  1  1  6
  2  3  1  0
  3  4  2  0
  4  5  1  0
  5  6  1  0
  6  7  2  0
  7  8  1  0
  7  9  1  0
  9 10  2  0
 10 11  1  0
 11 12  2  0
 12 13  1  0
 13 14  3  0
 12 15  1  0
 15 16  2  0
  5 17  2  0
 17 18  1  0
 18 19  2  0
 19 20  1  0
  2 21  1  0
 21 22  2  0
 22 23  1  0
 22 24  1  0
 24 25  1  0
 25 26  1  1
 26 27  2  0
 26 28  1  0
 28 29  1  0
 29 30  1  0
 30 31  1  0
 31 32  1  0
 32 33  1  0
 33 34  2  0
 34 35  1  0
 35 36  2  0
 36 37  1  0
 37 38  2  0
 32 39  1  0
 25 40  1  0
 40 41  1  0
 41  2  1  0
 19  3  1  0
 41 25  1  0
 16  9  1  0
 39 28  1  0
 38 33  1  0
  1 42  1  0
  1 43  1  0
  1 44  1  0
  4 45  1  0
  6 46  1  0
 10 47  1  0
 11 48  1  0
 15 49  1  0
 17 50  1  0
 18 51  1  0
 23 52  1  0
 23 53  1  0
 29 54  1  0
 29 55  1  0
 30 56  1  0
 30 57  1  0
 31 58  1  0
 31 59  1  0
 32 60  1  0
 34 61  1  0
 35 62  1  0
 36 63  1  0
 37 64  1  0
 38 65  1  0
 39 66  1  0
 39 67  1  0
 40 68  1  0
 40 69  1  0
 41 70  1  1
M  END
$$$$
