@<TRIPOS>MOLECULE
*****
 74 81 0 0 0
SMALL
GASTEIGER

@<TRIPOS>ATOM
      1 N          -3.3023   -0.2997   -2.9807 N.pl3   1  UNL1       -0.3414
      2 C          -2.1252   -1.0248   -2.7222 C.ar    1  UNL1        0.1424
      3 N          -1.7356   -1.8712   -3.7138 N.ar    1  UNL1       -0.2371
      4 C          -0.6496   -2.6002   -3.5469 C.ar    1  UNL1        0.0463
      5 C           0.0825   -2.4893   -2.3493 C.ar    1  UNL1        0.0297
      6 N          -0.3147   -1.6375   -1.3694 N.ar    1  UNL1       -0.2982
      7 C          -1.4135   -0.9133   -1.5586 C.ar    1  UNL1        0.1136
      8 C          -1.6486   -0.1565   -0.3852 C.ar    1  UNL1        0.1029
      9 C          -2.8978    0.6154   -0.2534 C.ar    1  UNL1        0.0399
     10 C          -2.8462    1.9861   -0.5463 C.ar    1  UNL1       -0.0490
     11 C          -3.9752    2.7591   -0.4055 C.ar    1  UNL1       -0.0518
     12 C          -5.1821    2.2181    0.0196 C.ar    1  UNL1        0.0033
     13 C          -6.2981    3.0142    0.0600 C.ar    1  UNL1       -0.0505
     14 C          -7.5352    2.4347    0.4015 C.ar    1  UNL1       -0.0351
     15 C          -7.5746    1.0897    0.6810 C.ar    1  UNL1        0.0718
     16 C          -8.8752    0.4825    0.9418 C.ar    1  UNL1        0.0004
     17 C          -8.9596   -0.8829    1.1440 C.ar    1  UNL1       -0.0526
     18 C         -10.1473   -1.5577    1.3662 C.ar    1  UNL1       -0.0611
     19 C         -11.3347   -0.8306    1.3914 C.ar    1  UNL1       -0.0617
     20 C         -11.2448    0.5202    1.1916 C.ar    1  UNL1       -0.0611
     21 C         -10.0510    1.1907    0.9675 C.ar    1  UNL1       -0.0526
     22 N          -6.4391    0.3738    0.6277 N.ar    1  UNL1       -0.2438
     23 C          -5.2263    0.8656    0.3081 C.ar    1  UNL1        0.1074
     24 C          -4.0850    0.1016    0.1686 C.ar    1  UNL1        0.1584
     25 F          -4.1518   -1.2221    0.4523 F       1  UNL1       -0.2026
     26 N          -0.6547   -0.4913    0.4154 N.ar    1  UNL1       -0.2309
     27 C           0.1907   -1.3803   -0.1236 C.ar    1  UNL1        0.1180
     28 C           1.4588   -1.9668    0.3801 C.3     1  UNL1        0.0177
     29 C           2.4729   -1.9379   -0.7290 C.3     1  UNL1       -0.0427
     30 C           3.7825   -1.3065   -0.4079 C.3     1  UNL1       -0.0413
     31 C           3.7006   -0.0386    0.3877 C.3     1  UNL1        0.0360
     32 C           5.1292    0.2010    0.8344 C.2     1  UNL1        0.2224
     33 O           5.4935    0.2053    1.9963 O.2     1  UNL1       -0.2751
     34 N           6.0302    0.4202   -0.2511 N.am    1  UNL1       -0.2558
     35 C           7.4351    0.5820   -0.0944 C.ar    1  UNL1        0.2003
     36 N           8.2717    0.9147   -1.0896 N.ar    1  UNL1       -0.2143
     37 C           9.5391    0.9673   -0.6584 C.ar    1  UNL1        0.0907
     38 C          10.7457    1.2528   -1.2518 C.ar    1  UNL1       -0.0342
     39 C          11.9299    1.2326   -0.5390 C.ar    1  UNL1       -0.0596
     40 C          11.8913    0.9173    0.8001 C.ar    1  UNL1       -0.0597
     41 C          10.6895    0.6270    1.4015 C.ar    1  UNL1       -0.0362
     42 C           9.4821    0.6429    0.6938 C.ar    1  UNL1        0.0674
     43 N           8.2029    0.4186    0.9970 N.ar    1  UNL1       -0.3258
     44 C           2.6998   -0.0535    1.4552 C.3     1  UNL1       -0.0413
     45 C           1.9048   -1.3108    1.6377 C.3     1  UNL1       -0.0427
     46 H          -3.2669    0.6977   -3.2350 H       1  UNL1        0.1438
     47 H          -4.2238   -0.7904   -2.9204 H       1  UNL1        0.1438
     48 H          -0.2896   -3.3018   -4.3089 H       1  UNL1        0.0845
     49 H           0.9230   -3.1491   -2.2949 H       1  UNL1        0.0829
     50 H          -1.8939    2.4024   -0.8674 H       1  UNL1        0.0625
     51 H          -3.9357    3.8325   -0.6183 H       1  UNL1        0.0624
     52 H          -6.2571    4.0798   -0.1573 H       1  UNL1        0.0625
     53 H          -8.3673    3.1174    0.4148 H       1  UNL1        0.0639
     54 H          -8.0538   -1.4724    1.1219 H       1  UNL1        0.0624
     55 H         -10.2103   -2.6321    1.5233 H       1  UNL1        0.0618
     56 H         -12.2947   -1.2875    1.5648 H       1  UNL1        0.0618
     57 H         -12.1618    1.1205    1.2041 H       1  UNL1        0.0618
     58 H         -10.0243    2.2498    0.8113 H       1  UNL1        0.0624
     59 H           1.2464   -3.0746    0.5927 H       1  UNL1        0.0379
     60 H           2.7234   -2.9964   -1.0009 H       1  UNL1        0.0272
     61 H           2.0782   -1.3908   -1.6048 H       1  UNL1        0.0272
     62 H           4.2649   -1.0190   -1.3872 H       1  UNL1        0.0273
     63 H           4.4750   -2.0387    0.0753 H       1  UNL1        0.0273
     64 H           3.5078    0.8463   -0.2927 H       1  UNL1        0.0394
     65 H           5.6548    0.4259   -1.2318 H       1  UNL1        0.1577
     66 H          10.7566    1.5090   -2.3185 H       1  UNL1        0.0639
     67 H          12.8744    1.4606   -0.9904 H       1  UNL1        0.0618
     68 H          12.8333    0.9031    1.3534 H       1  UNL1        0.0618
     69 H          10.6845    0.3733    2.4560 H       1  UNL1        0.0639
     70 H           7.8754    0.1559    1.9587 H       1  UNL1        0.1686
     71 H           3.1533    0.2221    2.4477 H       1  UNL1        0.0273
     72 H           1.9208    0.7518    1.2406 H       1  UNL1        0.0273
     73 H           2.5041   -2.0193    2.2890 H       1  UNL1        0.0272
     74 H           1.0385   -1.0379    2.3101 H       1  UNL1        0.0272
@<TRIPOS>BOND
     1     1     2    1
     2     2     3   ar
     3     3     4   ar
     4     4     5   ar
     5     5     6   ar
     6     6     7   ar
     7     7     8   ar
     8     8     9    1
     9     9    10   ar
    10    10    11   ar
    11    11    12   ar
    12    12    13   ar
    13    13    14   ar
    14    14    15   ar
    15    15    16    1
    16    16    17   ar
    17    17    18   ar
    18    18    19   ar
    19    19    20   ar
    20    20    21   ar
    21    15    22   ar
    22    22    23   ar
    23    23    24   ar
    24    24    25    1
    25     8    26   ar
    26    26    27   ar
    27    27    28    1
    28    28    29    1
    29    29    30    1
    30    30    31    1
    31    31    32    1
    32    32    33    2
    33    32    34   am
    34    34    35    1
    35    35    36   ar
    36    36    37   ar
    37    37    38   ar
    38    38    39   ar
    39    39    40   ar
    40    40    41   ar
    41    41    42   ar
    42    42    43   ar
    43    31    44    1
    44    44    45    1
    45     7     2   ar
    46    24     9   ar
    47    45    28    1
    48    27     6   ar
    49    43    35   ar
    50    23    12   ar
    51    42    37   ar
    52    21    16   ar
    53     1    46    1
    54     1    47    1
    55     4    48    1
    56     5    49    1
    57    10    50    1
    58    11    51    1
    59    13    52    1
    60    14    53    1
    61    17    54    1
    62    18    55    1
    63    19    56    1
    64    20    57    1
    65    21    58    1
    66    28    59    1
    67    29    60    1
    68    29    61    1
    69    30    62    1
    70    30    63    1
    71    31    64    1
    72    34    65    1
    73    38    66    1
    74    39    67    1
    75    40    68    1
    76    41    69    1
    77    43    70    1
    78    44    71    1
    79    44    72    1
    80    45    73    1
    81    45    74    1
