@<TRIPOS>MOLECULE
*****
 55 57 0 0 0
SMALL
GASTEIGER

@<TRIPOS>ATOM
      1 C          -3.3972   -0.6513    2.7074 C.3     1  UNL1       -0.0558
      2 C          -3.7713   -0.6934    1.2520 C.3     1  UNL1       -0.0096
      3 C          -4.5109   -1.9910    1.0193 C.3     1  UNL1       -0.0558
      4 C          -4.6021    0.5094    0.9260 C.3     1  UNL1       -0.0431
      5 C          -4.7266    0.7630   -0.5547 C.3     1  UNL1       -0.0431
      6 C          -3.4008    1.0639   -1.2075 C.3     1  UNL1       -0.0095
      7 C          -2.9077    2.4578   -0.8602 C.3     1  UNL1       -0.0558
      8 C          -3.6066    1.0110   -2.7071 C.3     1  UNL1       -0.0558
      9 C          -2.3768    0.0978   -0.7586 C.ar    1  UNL1       -0.0377
     10 C          -2.5743   -0.6874    0.3639 C.ar    1  UNL1       -0.0380
     11 C          -1.5661   -1.5636    0.7125 C.ar    1  UNL1       -0.0574
     12 C          -0.3772   -1.6808   -0.0163 C.ar    1  UNL1       -0.0554
     13 C          -0.1866   -0.8984   -1.1302 C.ar    1  UNL1       -0.0100
     14 C          -1.1935   -0.0287   -1.4717 C.ar    1  UNL1       -0.0517
     15 C           1.0482   -0.9949   -1.9186 C.3     1  UNL1        0.1561
     16 O           1.3797   -2.3428   -2.1250 O.3     1  UNL1       -0.3779
     17 C           2.1219   -0.2740   -1.1858 C.2     1  UNL1        0.2504
     18 O           1.9837    0.9633   -0.9136 O.2     1  UNL1       -0.2722
     19 N           3.3022   -0.9076   -0.7732 N.am    1  UNL1       -0.2808
     20 C           4.4044   -0.3562   -0.0729 C.ar    1  UNL1        0.0691
     21 C           4.6262   -0.2700    1.2863 C.ar    1  UNL1        0.1453
     22 F           3.6271   -0.7978    2.0339 F       1  UNL1       -0.2035
     23 C           5.7617    0.3026    1.7855 C.ar    1  UNL1       -0.0106
     24 C           6.7130    0.8080    0.9331 C.ar    1  UNL1        0.0617
     25 C           6.5525    0.7533   -0.4308 C.ar    1  UNL1       -0.0458
     26 C           5.3891    0.1661   -0.9134 C.ar    1  UNL1       -0.0369
     27 C           7.9179    1.4158    1.4501 C.2     1  UNL1        0.3369
     28 O           8.2302    1.5489    2.7888 O.3     1  UNL1       -0.4771
     29 O           8.8220    1.8951    0.6948 O.2     1  UNL1       -0.2451
     30 H          -2.5415    0.0065    2.9351 H       1  UNL1        0.0238
     31 H          -4.2642   -0.2615    3.2987 H       1  UNL1        0.0238
     32 H          -3.2105   -1.6749    3.1227 H       1  UNL1        0.0238
     33 H          -4.9818   -2.0728    0.0288 H       1  UNL1        0.0238
     34 H          -3.7777   -2.8172    1.1619 H       1  UNL1        0.0238
     35 H          -5.2887   -2.1415    1.7946 H       1  UNL1        0.0238
     36 H          -4.1226    1.3951    1.3934 H       1  UNL1        0.0274
     37 H          -5.6392    0.3779    1.3052 H       1  UNL1        0.0274
     38 H          -5.1444   -0.1333   -1.0385 H       1  UNL1        0.0274
     39 H          -5.4391    1.5813   -0.6866 H       1  UNL1        0.0274
     40 H          -3.5280    3.2479   -1.3137 H       1  UNL1        0.0238
     41 H          -2.8097    2.5770    0.2395 H       1  UNL1        0.0238
     42 H          -1.8850    2.5410   -1.2783 H       1  UNL1        0.0238
     43 H          -4.6309    1.4158   -2.9113 H       1  UNL1        0.0238
     44 H          -2.8837    1.6478   -3.2559 H       1  UNL1        0.0238
     45 H          -3.6126   -0.0453   -2.9983 H       1  UNL1        0.0238
     46 H          -1.6508   -2.2079    1.5767 H       1  UNL1        0.0621
     47 H           0.3779   -2.3858    0.3054 H       1  UNL1        0.0621
     48 H          -1.0367    0.5819   -2.3470 H       1  UNL1        0.0624
     49 H           0.9306   -0.5323   -2.9268 H       1  UNL1        0.0741
     50 H           1.6407   -2.7352   -1.2581 H       1  UNL1        0.2109
     51 H           3.4839   -1.9136   -0.9600 H       1  UNL1        0.1550
     52 H           5.8844    0.3435    2.8691 H       1  UNL1        0.0655
     53 H           7.3040    1.1524   -1.0963 H       1  UNL1        0.0626
     54 H           5.3139    0.1498   -2.0105 H       1  UNL1        0.0637
     55 H           8.8296    2.2855    3.1364 H       1  UNL1        0.2954
@<TRIPOS>BOND
     1     1     2    1
     2     2     3    1
     3     2     4    1
     4     4     5    1
     5     5     6    1
     6     6     7    1
     7     6     8    1
     8     6     9    1
     9     9    10   ar
    10    10    11   ar
    11    11    12   ar
    12    12    13   ar
    13    13    14   ar
    14    13    15    1
    15    15    16    1
    16    15    17    1
    17    17    18    2
    18    17    19   am
    19    19    20    1
    20    20    21   ar
    21    21    22    1
    22    21    23   ar
    23    23    24   ar
    24    24    25   ar
    25    25    26   ar
    26    24    27    1
    27    27    28    1
    28    27    29    2
    29    10     2    1
    30    26    20   ar
    31    14     9   ar
    32     1    30    1
    33     1    31    1
    34     1    32    1
    35     3    33    1
    36     3    34    1
    37     3    35    1
    38     4    36    1
    39     4    37    1
    40     5    38    1
    41     5    39    1
    42     7    40    1
    43     7    41    1
    44     7    42    1
    45     8    43    1
    46     8    44    1
    47     8    45    1
    48    11    46    1
    49    12    47    1
    50    14    48    1
    51    15    49    1
    52    16    50    1
    53    19    51    1
    54    23    52    1
    55    25    53    1
    56    26    54    1
    57    28    55    1
