@<TRIPOS>MOLECULE
*****
 35 37 0 0 0
SMALL
GASTEIGER

@<TRIPOS>ATOM
      1 O           1.9844   -1.6758    3.1123 O.2     1  UNL1       -0.2578
      2 C           1.1234   -1.2295    2.3675 C.ar    1  UNL1        0.3113
      3 S          -0.3943   -0.3925    2.8639 S.2     1  UNL1        0.0597
      4 N          -1.0121   -0.1005    1.3196 N.ar    1  UNL1       -0.2273
      5 C          -2.2166    0.5414    0.9105 C.ar    1  UNL1        0.0588
      6 C          -2.5488    1.8236    1.2404 C.ar    1  UNL1       -0.0371
      7 C          -3.7447    2.3564    0.7924 C.ar    1  UNL1       -0.0593
      8 C          -4.6198    1.6058    0.0074 C.ar    1  UNL1       -0.0500
      9 C          -4.2840    0.3128   -0.3249 C.ar    1  UNL1        0.0568
     10 C          -5.2256   -0.4741   -1.1612 C.3     1  UNL1        0.4175
     11 F          -4.4646   -1.2892   -2.0091 F       1  UNL1       -0.1659
     12 F          -5.9433   -1.3348   -0.3332 F       1  UNL1       -0.1659
     13 F          -6.0278    0.3062   -1.9347 F       1  UNL1       -0.1659
     14 C          -3.0862   -0.1918    0.1356 C.ar    1  UNL1       -0.0255
     15 C          -0.0403   -0.6511    0.4754 C.ar    1  UNL1        0.3435
     16 O          -0.2505   -0.5733   -0.8228 O.2     1  UNL1       -0.2453
     17 N           0.9896   -1.1939    1.0437 N.ar    1  UNL1       -0.2489
     18 C           2.0619   -1.7924    0.2016 C.3     1  UNL1        0.0565
     19 C           3.1123   -0.8356   -0.1364 C.ar    1  UNL1       -0.0273
     20 C           3.0876   -0.0283   -1.2499 C.ar    1  UNL1       -0.0542
     21 C           4.1371    0.8326   -1.4597 C.ar    1  UNL1       -0.0261
     22 C           5.2042    0.9103   -0.5950 C.ar    1  UNL1        0.1234
     23 F           6.2305    1.7626   -0.8144 F       1  UNL1       -0.2055
     24 C           5.2535    0.1151    0.5243 C.ar    1  UNL1       -0.0261
     25 C           4.1918   -0.7391    0.7140 C.ar    1  UNL1       -0.0542
     26 H          -1.8926    2.4068    1.8372 H       1  UNL1        0.0638
     27 H          -4.0631    3.3575    1.0174 H       1  UNL1        0.0618
     28 H          -5.5615    2.0214   -0.3470 H       1  UNL1        0.0623
     29 H          -2.8558   -1.2151   -0.1470 H       1  UNL1        0.0644
     30 H           2.4882   -2.6162    0.7889 H       1  UNL1        0.0544
     31 H           1.6499   -2.1946   -0.7445 H       1  UNL1        0.0544
     32 H           2.2389   -0.0974   -1.9277 H       1  UNL1        0.0622
     33 H           4.1175    1.4755   -2.3465 H       1  UNL1        0.0646
     34 H           6.0940    0.1582    1.2298 H       1  UNL1        0.0646
     35 H           4.2666   -1.3610    1.6210 H       1  UNL1        0.0622
@<TRIPOS>BOND
     1     1     2    2
     2     2     3   ar
     3     3     4   ar
     4     4     5    1
     5     5     6   ar
     6     6     7   ar
     7     7     8   ar
     8     8     9   ar
     9     9    10    1
    10    10    11    1
    11    10    12    1
    12    10    13    1
    13     9    14   ar
    14     4    15   ar
    15    15    16    2
    16    15    17   ar
    17    17    18    1
    18    18    19    1
    19    19    20   ar
    20    20    21   ar
    21    21    22   ar
    22    22    23    1
    23    22    24   ar
    24    24    25   ar
    25    17     2   ar
    26    25    19   ar
    27    14     5   ar
    28     6    26    1
    29     7    27    1
    30     8    28    1
    31    14    29    1
    32    18    30    1
    33    18    31    1
    34    20    32    1
    35    21    33    1
    36    24    34    1
    37    25    35    1
