@<TRIPOS>MOLECULE
*****
 44 46 0 0 0
SMALL
GASTEIGER

@<TRIPOS>ATOM
      1 N           2.0392    4.5421   -3.7157 N.am    1  UNL1       -0.3131
      2 C           2.2967    3.4962   -2.7912 C.2     1  UNL1        0.3017
      3 O           3.4786    3.2484   -2.4523 O.2     1  UNL1       -0.2527
      4 N           1.2218    2.7134   -2.2349 N.am    1  UNL1       -0.2633
      5 C           1.5299    1.6747   -1.3112 C.ar    1  UNL1        0.0856
      6 S           3.2160    1.2732   -0.7866 S.2     1  UNL1       -0.0727
      7 C           2.6830   -0.0878    0.3235 C.ar    1  UNL1        0.0219
      8 C           3.6152   -0.8723    1.0960 C.ar    1  UNL1       -0.0112
      9 C           4.9598   -0.5975    1.0042 C.ar    1  UNL1       -0.0535
     10 C           5.8776   -1.3444    1.7429 C.ar    1  UNL1       -0.0612
     11 C           5.4330   -2.3579    2.5645 C.ar    1  UNL1       -0.0617
     12 C           4.0847   -2.6194    2.6446 C.ar    1  UNL1       -0.0612
     13 C           3.1696   -1.8689    1.9031 C.ar    1  UNL1       -0.0535
     14 C           1.3636   -0.0918    0.1858 C.ar    1  UNL1       -0.0329
     15 C           0.7181    0.7741   -0.6258 C.ar    1  UNL1        0.0658
     16 C          -0.7657    0.7873   -0.7959 C.2     1  UNL1        0.2467
     17 O          -1.2483    1.6298   -1.5700 O.2     1  UNL1       -0.2701
     18 N          -1.6208   -0.1020   -0.1247 N.am    1  UNL1       -0.3072
     19 C          -3.0826   -0.0695   -0.3089 C.3     1  UNL1        0.0359
     20 C          -3.4723   -1.3669   -0.9247 C.3     1  UNL1       -0.0322
     21 C          -4.8550   -1.8344   -0.6115 C.3     1  UNL1       -0.0387
     22 C          -5.6140   -0.8781    0.2822 C.3     1  UNL1       -0.0040
     23 N          -4.7617   -0.6068    1.4092 N.3     1  UNL1       -0.3142
     24 C          -3.7051    0.2558    0.9888 C.3     1  UNL1        0.0144
     25 H           1.1333    5.0756   -3.6332 H       1  UNL1        0.1465
     26 H           2.7273    4.7932   -4.4738 H       1  UNL1        0.1465
     27 H           0.2856    2.9766   -2.5608 H       1  UNL1        0.1569
     28 H           5.3319    0.1970    0.3626 H       1  UNL1        0.0624
     29 H           6.9429   -1.1659    1.7037 H       1  UNL1        0.0618
     30 H           6.1142   -2.9587    3.1526 H       1  UNL1        0.0618
     31 H           3.7504   -3.4146    3.2908 H       1  UNL1        0.0618
     32 H           2.1214   -2.0605    1.9552 H       1  UNL1        0.0624
     33 H           0.7738   -0.8600    0.7815 H       1  UNL1        0.0637
     34 H          -1.2102   -0.8116    0.5278 H       1  UNL1        0.1493
     35 H          -3.2712    0.7492   -1.0311 H       1  UNL1        0.0511
     36 H          -3.4017   -1.2696   -2.0414 H       1  UNL1        0.0284
     37 H          -2.7584   -2.1750   -0.6607 H       1  UNL1        0.0284
     38 H          -5.4793   -1.9955   -1.5193 H       1  UNL1        0.0278
     39 H          -4.8500   -2.8183   -0.0810 H       1  UNL1        0.0278
     40 H          -5.9266    0.0210   -0.2730 H       1  UNL1        0.0424
     41 H          -6.5170   -1.3902    0.6604 H       1  UNL1        0.0424
     42 H          -5.2600   -0.1763    2.2120 H       1  UNL1        0.1220
     43 H          -2.9492    0.2788    1.8286 H       1  UNL1        0.0442
     44 H          -4.1185    1.3074    0.9832 H       1  UNL1        0.0442
@<TRIPOS>BOND
     1     1     2   am
     2     2     3    2
     3     2     4   am
     4     4     5    1
     5     5     6   ar
     6     6     7   ar
     7     7     8    1
     8     8     9   ar
     9     9    10   ar
    10    10    11   ar
    11    11    12   ar
    12    12    13   ar
    13     7    14   ar
    14    14    15   ar
    15    15    16    1
    16    16    17    2
    17    16    18   am
    18    18    19    1
    19    19    20    1
    20    20    21    1
    21    21    22    1
    22    22    23    1
    23    23    24    1
    24    15     5   ar
    25    24    19    1
    26    13     8   ar
    27     1    25    1
    28     1    26    1
    29     4    27    1
    30     9    28    1
    31    10    29    1
    32    11    30    1
    33    12    31    1
    34    13    32    1
    35    14    33    1
    36    18    34    1
    37    19    35    1
    38    20    36    1
    39    20    37    1
    40    21    38    1
    41    21    39    1
    42    22    40    1
    43    22    41    1
    44    23    42    1
    45    24    43    1
    46    24    44    1
