
     RDKit          3D

 43 45  0  0  0  0  0  0  0  0999 V2000
    0.4402   -1.7336    0.5712 C   0  0  1  0  0  0  0  0  0  0  0  0
    1.7194   -1.2835   -0.0944 C   0  0  0  0  0  0  0  0  0  0  0  0
    2.7001   -1.0498    0.8422 O   0  0  0  0  0  0  0  0  0  0  0  0
    4.1480   -0.5429    0.1164 P   0  0  0  0  0  0  0  0  0  0  0  0
    5.4178   -0.6349    1.2264 O   0  0  0  0  0  0  0  0  0  0  0  0
    4.4571   -1.4195   -1.0895 O   0  0  0  0  0  0  0  0  0  0  0  0
    4.0510    1.0541   -0.4255 O   0  0  0  0  0  0  0  0  0  0  0  0
    4.9074    2.0779    0.6290 P   0  0  0  0  0  0  0  0  0  0  0  0
    5.0568    3.6061   -0.0914 O   0  0  0  0  0  0  0  0  0  0  0  0
    6.4370    1.4558    0.9709 O   0  0  0  0  0  0  0  0  0  0  0  0
    4.0875    2.2186    1.9034 O   0  0  0  0  0  0  0  0  0  0  0  0
   -0.0844   -0.8262    1.4601 O   0  0  0  0  0  0  0  0  0  0  0  0
   -1.4509   -0.8117    1.3363 C   0  0  1  0  0  0  0  0  0  0  0  0
   -1.8163    0.4178    0.6394 N   0  0  0  0  0  0  0  0  0  0  0  0
   -1.0519    1.4717    0.2781 C   0  0  0  0  0  0  0  0  0  0  0  0
   -1.8547    2.3684   -0.3476 N   0  0  0  0  0  0  0  0  0  0  0  0
   -3.0972    1.8442   -0.3568 C   0  0  0  0  0  0  0  0  0  0  0  0
   -4.2810    2.3351   -0.8624 C   0  0  0  0  0  0  0  0  0  0  0  0
   -4.4037    3.5892   -1.5185 N   0  0  0  0  0  0  0  0  0  0  0  0
   -5.4420    1.6369   -0.7664 N   0  0  0  0  0  0  0  0  0  0  0  0
   -5.4176    0.4340   -0.1576 C   0  0  0  0  0  0  0  0  0  0  0  0
   -4.2683   -0.0233    0.3236 N   0  0  0  0  0  0  0  0  0  0  0  0
   -3.0890    0.6065    0.2660 C   0  0  0  0  0  0  0  0  0  0  0  0
   -1.8364   -2.0000    0.4793 C   0  0  2  0  0  0  0  0  0  0  0  0
   -1.8542   -3.1763    1.2070 O   0  0  0  0  0  0  0  0  0  0  0  0
   -0.6359   -2.0350   -0.4500 C   0  0  2  0  0  0  0  0  0  0  0  0
   -0.4569   -3.3335   -1.0578 N   0  0  0  0  0  0  0  0  0  0  0  0
    0.6461   -2.6782    1.1269 H   0  0  0  0  0  0  0  0  0  0  0  0
    1.5816   -0.3973   -0.7124 H   0  0  0  0  0  0  0  0  0  0  0  0
    2.0492   -2.1158   -0.7471 H   0  0  0  0  0  0  0  0  0  0  0  0
    5.5751   -1.5436    1.5756 H   0  0  0  0  0  0  0  0  0  0  0  0
    5.1446    4.2898    0.6373 H   0  0  0  0  0  0  0  0  0  0  0  0
    6.8464    0.9984    0.2189 H   0  0  0  0  0  0  0  0  0  0  0  0
   -1.9747   -0.8574    2.3275 H   0  0  0  0  0  0  0  0  0  0  0  0
    0.0082    1.5508    0.4707 H   0  0  0  0  0  0  0  0  0  0  0  0
   -4.0848    4.2261   -2.2758 H   0  0  0  0  0  0  0  0  0  0  0  0
   -5.1373    4.2265   -1.1052 H   0  0  0  0  0  0  0  0  0  0  0  0
   -6.3550   -0.1123   -0.0889 H   0  0  0  0  0  0  0  0  0  0  0  0
   -2.7820   -1.8458   -0.0629 H   0  0  0  0  0  0  0  0  0  0  0  0
   -2.0577   -3.0670    2.1608 H   0  0  0  0  0  0  0  0  0  0  0  0
   -0.6525   -1.2227   -1.1940 H   0  0  0  0  0  0  0  0  0  0  0  0
   -1.3884   -3.7617   -1.2022 H   0  0  0  0  0  0  0  0  0  0  0  0
    0.1990   -3.9361   -0.5161 H   0  0  0  0  0  0  0  0  0  0  0  0
  1  2  1  0
  2  3  1  0
  3  4  1  0
  4  5  1  0
  4  6  2  0
  4  7  1  0
  7  8  1  0
  8  9  1  0
  8 10  1  0
  8 11  2  0
  1 12  1  0
 12 13  1  0
 13 14  1  0
 14 15  1  0
 15 16  2  0
 16 17  1  0
 17 18  2  0
 18 19  1  0
 18 20  1  0
 20 21  2  0
 21 22  1  0
 22 23  2  0
 13 24  1  0
 24 25  1  0
 24 26  1  0
 26 27  1  0
 26  1  1  0
 23 14  1  0
 23 17  1  0
  1 28  1  1
  2 29  1  0
  2 30  1  0
  5 31  1  0
  9 32  1  0
 10 33  1  0
 13 34  1  1
 15 35  1  0
 19 36  1  0
 19 37  1  0
 21 38  1  0
 24 39  1  6
 25 40  1  0
 26 41  1  6
 27 42  1  0
 27 43  1  0
M  END
$$$$
