@<TRIPOS>MOLECULE
*****
 49 53 0 0 0
SMALL
GASTEIGER

@<TRIPOS>ATOM
      1 C           0.3588    0.4829   -3.3146 C.3     1  UNL1       -0.0632
      2 C           0.3532    1.6104   -2.3153 C.3     1  UNL1       -0.0303
      3 C           0.5619    1.0717   -0.9185 C.3     1  UNL1        0.0803
      4 N           1.8300    0.3926   -0.8659 N.pl3   1  UNL1       -0.3175
      5 C           2.2350   -0.1962    0.3594 C.ar    1  UNL1        0.1482
      6 N           1.4830   -0.1375    1.4465 N.ar    1  UNL1       -0.2187
      7 C           1.8922   -0.7012    2.5833 C.ar    1  UNL1        0.1205
      8 N           3.0623   -1.3347    2.6540 N.ar    1  UNL1       -0.2144
      9 C           3.8724   -1.4301    1.5875 C.ar    1  UNL1        0.1825
     10 N           5.0781   -1.9851    1.3426 N.ar    1  UNL1       -0.2164
     11 C           5.4299   -1.7724    0.0535 C.ar    1  UNL1        0.0963
     12 N           4.4282   -1.0731   -0.5173 N.ar    1  UNL1       -0.3404
     13 C           3.4681   -0.8546    0.4040 C.ar    1  UNL1        0.1253
     14 C          -0.5063    0.1177   -0.5312 C.ar    1  UNL1        0.1378
     15 N          -0.5040   -1.1485   -1.0440 N.ar    1  UNL1       -0.2311
     16 C          -1.4449   -2.0571   -0.7321 C.ar    1  UNL1        0.0810
     17 C          -1.4311   -3.3401   -1.2600 C.ar    1  UNL1       -0.0353
     18 C          -2.4095   -4.2501   -0.9216 C.ar    1  UNL1       -0.0570
     19 C          -3.4106   -3.8722   -0.0469 C.ar    1  UNL1       -0.0256
     20 C          -3.4079   -2.5884    0.4694 C.ar    1  UNL1        0.1378
     21 F          -4.3934   -2.2261    1.3265 F       1  UNL1       -0.2046
     22 C          -2.4371   -1.6670    0.1411 C.ar    1  UNL1        0.1003
     23 C          -2.4121   -0.3825    0.6416 C.ar    1  UNL1        0.2691
     24 O          -3.3122   -0.0184    1.4379 O.2     1  UNL1       -0.2665
     25 N          -1.4645    0.5192    0.3221 N.ar    1  UNL1       -0.2628
     26 C          -1.4839    1.8379    0.8684 C.ar    1  UNL1        0.0512
     27 C          -1.9681    2.9175    0.1737 C.ar    1  UNL1       -0.0377
     28 C          -1.9754    4.1869    0.7275 C.ar    1  UNL1       -0.0598
     29 C          -1.4869    4.3779    2.0051 C.ar    1  UNL1       -0.0616
     30 C          -1.0001    3.3016    2.7077 C.ar    1  UNL1       -0.0598
     31 C          -1.0020    2.0564    2.1424 C.ar    1  UNL1       -0.0377
     32 H           0.8700   -0.4226   -2.9530 H       1  UNL1        0.0230
     33 H           0.9168    0.8298   -4.2206 H       1  UNL1        0.0230
     34 H          -0.6897    0.2151   -3.5939 H       1  UNL1        0.0230
     35 H           1.1576    2.3365   -2.5220 H       1  UNL1        0.0285
     36 H          -0.6278    2.1312   -2.4032 H       1  UNL1        0.0285
     37 H           0.5415    1.9131   -0.1886 H       1  UNL1        0.0579
     38 H           2.4248    0.3437   -1.7176 H       1  UNL1        0.1482
     39 H           1.2504   -0.6352    3.4592 H       1  UNL1        0.1048
     40 H           6.3539   -2.1192   -0.3896 H       1  UNL1        0.1027
     41 H           4.4120   -0.7563   -1.5193 H       1  UNL1        0.1669
     42 H          -0.6367   -3.6317   -1.9508 H       1  UNL1        0.0639
     43 H          -2.3896   -5.2425   -1.3366 H       1  UNL1        0.0619
     44 H          -4.1615   -4.6107    0.1966 H       1  UNL1        0.0646
     45 H          -2.3523    2.7799   -0.8256 H       1  UNL1        0.0638
     46 H          -2.3696    5.0221    0.1421 H       1  UNL1        0.0618
     47 H          -1.4764    5.3532    2.4699 H       1  UNL1        0.0618
     48 H          -0.6135    3.4355    3.7111 H       1  UNL1        0.0618
     49 H          -0.6131    1.2210    2.7149 H       1  UNL1        0.0638
@<TRIPOS>BOND
     1     1     2    1
     2     2     3    1
     3     3     4    1
     4     4     5    1
     5     5     6   ar
     6     6     7   ar
     7     7     8   ar
     8     8     9   ar
     9     9    10   ar
    10    10    11   ar
    11    11    12   ar
    12    12    13   ar
    13     3    14    1
    14    14    15   ar
    15    15    16   ar
    16    16    17   ar
    17    17    18   ar
    18    18    19   ar
    19    19    20   ar
    20    20    21    1
    21    20    22   ar
    22    22    23   ar
    23    23    24    2
    24    23    25   ar
    25    25    26    1
    26    26    27   ar
    27    27    28   ar
    28    28    29   ar
    29    29    30   ar
    30    30    31   ar
    31    13     5   ar
    32    25    14   ar
    33    31    26   ar
    34    13     9   ar
    35    22    16   ar
    36     1    32    1
    37     1    33    1
    38     1    34    1
    39     2    35    1
    40     2    36    1
    41     3    37    1
    42     4    38    1
    43     7    39    1
    44    11    40    1
    45    12    41    1
    46    17    42    1
    47    18    43    1
    48    19    44    1
    49    27    45    1
    50    28    46    1
    51    29    47    1
    52    30    48    1
    53    31    49    1
