
     RDKit          3D

 49 53  0  0  0  0  0  0  0  0999 V2000
    0.3588    0.4829   -3.3146 C   0  0  0  0  0  0  0  0  0  0  0  0
    0.3532    1.6104   -2.3153 C   0  0  0  0  0  0  0  0  0  0  0  0
    0.5619    1.0717   -0.9185 C   0  0  2  0  0  0  0  0  0  0  0  0
    1.8300    0.3926   -0.8659 N   0  0  0  0  0  0  0  0  0  0  0  0
    2.2350   -0.1962    0.3594 C   0  0  0  0  0  0  0  0  0  0  0  0
    1.4830   -0.1375    1.4465 N   0  0  0  0  0  0  0  0  0  0  0  0
    1.8922   -0.7012    2.5833 C   0  0  0  0  0  0  0  0  0  0  0  0
    3.0623   -1.3347    2.6540 N   0  0  0  0  0  0  0  0  0  0  0  0
    3.8724   -1.4301    1.5875 C   0  0  0  0  0  0  0  0  0  0  0  0
    5.0781   -1.9851    1.3426 N   0  0  0  0  0  0  0  0  0  0  0  0
    5.4299   -1.7724    0.0535 C   0  0  0  0  0  0  0  0  0  0  0  0
    4.4282   -1.0731   -0.5173 N   0  0  0  0  0  0  0  0  0  0  0  0
    3.4681   -0.8546    0.4040 C   0  0  0  0  0  0  0  0  0  0  0  0
   -0.5063    0.1177   -0.5312 C   0  0  0  0  0  0  0  0  0  0  0  0
   -0.5040   -1.1485   -1.0440 N   0  0  0  0  0  0  0  0  0  0  0  0
   -1.4449   -2.0571   -0.7321 C   0  0  0  0  0  0  0  0  0  0  0  0
   -1.4311   -3.3401   -1.2600 C   0  0  0  0  0  0  0  0  0  0  0  0
   -2.4095   -4.2501   -0.9216 C   0  0  0  0  0  0  0  0  0  0  0  0
   -3.4106   -3.8722   -0.0469 C   0  0  0  0  0  0  0  0  0  0  0  0
   -3.4079   -2.5884    0.4694 C   0  0  0  0  0  0  0  0  0  0  0  0
   -4.3934   -2.2261    1.3265 F   0  0  0  0  0  0  0  0  0  0  0  0
   -2.4371   -1.6670    0.1411 C   0  0  0  0  0  0  0  0  0  0  0  0
   -2.4121   -0.3825    0.6416 C   0  0  0  0  0  0  0  0  0  0  0  0
   -3.3122   -0.0184    1.4379 O   0  0  0  0  0  0  0  0  0  0  0  0
   -1.4645    0.5192    0.3221 N   0  0  0  0  0  0  0  0  0  0  0  0
   -1.4839    1.8379    0.8684 C   0  0  0  0  0  0  0  0  0  0  0  0
   -1.9681    2.9175    0.1737 C   0  0  0  0  0  0  0  0  0  0  0  0
   -1.9754    4.1869    0.7275 C   0  0  0  0  0  0  0  0  0  0  0  0
   -1.4869    4.3779    2.0051 C   0  0  0  0  0  0  0  0  0  0  0  0
   -1.0001    3.3016    2.7077 C   0  0  0  0  0  0  0  0  0  0  0  0
   -1.0020    2.0564    2.1424 C   0  0  0  0  0  0  0  0  0  0  0  0
    0.8700   -0.4226   -2.9530 H   0  0  0  0  0  0  0  0  0  0  0  0
    0.9168    0.8298   -4.2206 H   0  0  0  0  0  0  0  0  0  0  0  0
   -0.6897    0.2151   -3.5939 H   0  0  0  0  0  0  0  0  0  0  0  0
    1.1576    2.3365   -2.5220 H   0  0  0  0  0  0  0  0  0  0  0  0
   -0.6278    2.1312   -2.4032 H   0  0  0  0  0  0  0  0  0  0  0  0
    0.5415    1.9131   -0.1886 H   0  0  0  0  0  0  0  0  0  0  0  0
    2.4248    0.3437   -1.7176 H   0  0  0  0  0  0  0  0  0  0  0  0
    1.2504   -0.6352    3.4592 H   0  0  0  0  0  0  0  0  0  0  0  0
    6.3539   -2.1192   -0.3896 H   0  0  0  0  0  0  0  0  0  0  0  0
    4.4120   -0.7563   -1.5193 H   0  0  0  0  0  0  0  0  0  0  0  0
   -0.6367   -3.6317   -1.9508 H   0  0  0  0  0  0  0  0  0  0  0  0
   -2.3896   -5.2425   -1.3366 H   0  0  0  0  0  0  0  0  0  0  0  0
   -4.1615   -4.6107    0.1966 H   0  0  0  0  0  0  0  0  0  0  0  0
   -2.3523    2.7799   -0.8256 H   0  0  0  0  0  0  0  0  0  0  0  0
   -2.3696    5.0221    0.1421 H   0  0  0  0  0  0  0  0  0  0  0  0
   -1.4764    5.3532    2.4699 H   0  0  0  0  0  0  0  0  0  0  0  0
   -0.6135    3.4355    3.7111 H   0  0  0  0  0  0  0  0  0  0  0  0
   -0.6131    1.2210    2.7149 H   0  0  0  0  0  0  0  0  0  0  0  0
  1  2  1  0
  2  3  1  0
  3  4  1  0
  4  5  1  0
  5  6  2  0
  6  7  1  0
  7  8  2  0
  8  9  1  0
  9 10  1  0
 10 11  2  0
 11 12  1  0
 12 13  1  0
  3 14  1  0
 14 15  2  0
 15 16  1  0
 16 17  2  0
 17 18  1  0
 18 19  2  0
 19 20  1  0
 20 21  1  0
 20 22  2  0
 22 23  1  0
 23 24  2  0
 23 25  1  0
 25 26  1  0
 26 27  2  0
 27 28  1  0
 28 29  2  0
 29 30  1  0
 30 31  2  0
 13  5  1  0
 25 14  1  0
 31 26  1  0
 13  9  2  0
 22 16  1  0
  1 32  1  0
  1 33  1  0
  1 34  1  0
  2 35  1  0
  2 36  1  0
  3 37  1  1
  4 38  1  0
  7 39  1  0
 11 40  1  0
 12 41  1  0
 17 42  1  0
 18 43  1  0
 19 44  1  0
 27 45  1  0
 28 46  1  0
 29 47  1  0
 30 48  1  0
 31 49  1  0
M  END
$$$$
