@<TRIPOS>MOLECULE
*****
 61 62 0 0 0
SMALL
GASTEIGER

@<TRIPOS>ATOM
      1 C           3.6492    0.0971    0.2566 C.3     1  UNL1        0.0000
      2 C           4.1883    0.9057    1.4076 C.3     1  UNL1        0.0000
      3 C           5.4538    1.6469    1.0643 C.3     1  UNL1        0.0000
      4 C           5.2234    2.6070   -0.0730 C.3     1  UNL1        0.0000
      5 N           6.4640    3.3141   -0.3878 N.3     1  UNL1        0.0000
      6 N           2.4360   -0.5801    0.6715 N.am    1  UNL1        0.0000
      7 C           1.1707   -0.4798    0.0132 C.2     1  UNL1        0.0000
      8 O           1.1712    0.2775   -1.0127 O.2     1  UNL1        0.0000
      9 C           0.1586   -1.3217    0.7362 C.3     1  UNL1        0.0000
     10 C           0.5137   -2.7784    0.5742 C.3     1  UNL1        0.0000
     11 C          -0.0175   -3.0689   -0.8247 C.3     1  UNL1        0.0000
     12 C          -1.4238   -2.4753   -0.6566 C.3     1  UNL1        0.0000
     13 N          -1.1263   -1.2319    0.0748 N.am    1  UNL1        0.0000
     14 C          -1.7634   -0.0002    0.2804 C.2     1  UNL1        0.0000
     15 O          -1.4364    1.0442    0.9325 O.2     1  UNL1        0.0000
     16 C          -2.8687    0.9075    0.0806 C.3     1  UNL1        0.0000
     17 C          -4.2142    0.4731    0.5499 C.3     1  UNL1        0.0000
     18 C          -4.7397   -0.7636   -0.0615 C.ar    1  UNL1        0.0000
     19 C          -4.5879   -2.0476    0.4153 C.ar    1  UNL1        0.0000
     20 C          -5.0856   -3.1813   -0.1718 C.ar    1  UNL1        0.0000
     21 C          -5.8052   -2.9975   -1.3537 C.ar    1  UNL1        0.0000
     22 C          -5.9881   -1.7300   -1.8772 C.ar    1  UNL1        0.0000
     23 C          -5.4637   -0.6138   -1.2443 C.ar    1  UNL1        0.0000
     24 N          -2.6166    2.2127    0.7309 N.am    1  UNL1        0.0000
     25 C          -2.5095    3.3917   -0.0703 C.2     1  UNL1        0.0000
     26 C          -2.2579    4.7537    0.4719 C.3     1  UNL1        0.0000
     27 O          -2.6214    3.3766   -1.3309 O.2     1  UNL1        0.0000
     28 B           4.7083   -1.0636   -0.0555 B       1  UNL1        0.0000
     29 O           5.4328   -1.1066   -1.3326 O.3     1  UNL1        0.0000
     30 O           5.0571   -1.9596    1.0373 O.3     1  UNL1        0.0000
     31 H           3.4369    0.7009   -0.6287 H       1  UNL1        0.0000
     32 H           4.4160    0.2700    2.2797 H       1  UNL1        0.0000
     33 H           3.4466    1.6751    1.7290 H       1  UNL1        0.0000
     34 H           6.2719    0.9441    0.8024 H       1  UNL1        0.0000
     35 H           5.7229    2.2443    1.9616 H       1  UNL1        0.0000
     36 H           4.4658    3.3699    0.2279 H       1  UNL1        0.0000
     37 H           4.8543    2.1231   -0.9854 H       1  UNL1        0.0000
     38 H           7.1506    3.1566    0.3658 H       1  UNL1        0.0000
     39 H           6.8264    3.0848   -1.3308 H       1  UNL1        0.0000
     40 H           2.6881   -1.1379    1.5296 H       1  UNL1        0.0000
     41 H           0.1186   -1.0232    1.8087 H       1  UNL1        0.0000
     42 H           1.6257   -2.9276    0.5872 H       1  UNL1        0.0000
     43 H          -0.0029   -3.3994    1.3308 H       1  UNL1        0.0000
     44 H           0.5853   -2.4711   -1.5205 H       1  UNL1        0.0000
     45 H          -0.0548   -4.1314   -1.0449 H       1  UNL1        0.0000
     46 H          -1.8662   -2.3046   -1.6369 H       1  UNL1        0.0000
     47 H          -1.9607   -3.1924   -0.0082 H       1  UNL1        0.0000
     48 H          -2.9346    1.1698   -1.0182 H       1  UNL1        0.0000
     49 H          -4.9361    1.3290    0.3900 H       1  UNL1        0.0000
     50 H          -4.2299    0.3511    1.6682 H       1  UNL1        0.0000
     51 H          -4.0293   -2.1546    1.3266 H       1  UNL1        0.0000
     52 H          -4.9049   -4.1545    0.2943 H       1  UNL1        0.0000
     53 H          -6.1893   -3.9156   -1.7991 H       1  UNL1        0.0000
     54 H          -6.5640   -1.7367   -2.7944 H       1  UNL1        0.0000
     55 H          -5.6808    0.3150   -1.7599 H       1  UNL1        0.0000
     56 H          -2.4987    2.4302    1.7259 H       1  UNL1        0.0000
     57 H          -1.3873    5.1650   -0.0950 H       1  UNL1        0.0000
     58 H          -2.0095    4.6894    1.5531 H       1  UNL1        0.0000
     59 H          -3.1724    5.3575    0.3251 H       1  UNL1        0.0000
     60 H           4.9240   -0.5516   -1.9674 H       1  UNL1        0.0000
     61 H           4.7872   -2.8832    0.8039 H       1  UNL1        0.0000
@<TRIPOS>BOND
     1     1     2    1
     2     2     3    1
     3     3     4    1
     4     4     5    1
     5     1     6    1
     6     6     7   am
     7     7     8    2
     8     7     9    1
     9     9    10    1
    10    10    11    1
    11    11    12    1
    12    12    13    1
    13    13    14   am
    14    14    15    2
    15    14    16    1
    16    16    17    1
    17    17    18    1
    18    18    19   ar
    19    19    20   ar
    20    20    21   ar
    21    21    22   ar
    22    22    23   ar
    23    16    24    1
    24    24    25   am
    25    25    26    1
    26    25    27    2
    27     1    28    1
    28    28    29    1
    29    28    30    1
    30    13     9    1
    31    23    18   ar
    32     1    31    1
    33     2    32    1
    34     2    33    1
    35     3    34    1
    36     3    35    1
    37     4    36    1
    38     4    37    1
    39     5    38    1
    40     5    39    1
    41     6    40    1
    42     9    41    1
    43    10    42    1
    44    10    43    1
    45    11    44    1
    46    11    45    1
    47    12    46    1
    48    12    47    1
    49    16    48    1
    50    17    49    1
    51    17    50    1
    52    19    51    1
    53    20    52    1
    54    21    53    1
    55    22    54    1
    56    23    55    1
    57    24    56    1
    58    26    57    1
    59    26    58    1
    60    26    59    1
    61    29    60    1
    62    30    61    1
