@<TRIPOS>MOLECULE
*****
 54 55 0 0 0
SMALL
GASTEIGER

@<TRIPOS>ATOM
      1 C           5.4433    3.0053   -0.1739 C.3     1  UNL1       -0.0653
      2 C           5.6109    2.0963   -1.3775 C.3     1  UNL1       -0.0559
      3 C           4.3854    1.2106   -1.5211 C.3     1  UNL1       -0.0532
      4 C           4.2287    0.3712   -0.2768 C.3     1  UNL1       -0.0500
      5 C           3.0031   -0.5121   -0.4250 C.3     1  UNL1       -0.0186
      6 C           2.8406   -1.3645    0.8268 C.3     1  UNL1        0.0899
      7 O           1.7554   -2.1881    0.7774 O.3     1  UNL1       -0.4852
      8 C           0.4321   -1.9771    0.6557 C.ar    1  UNL1        0.2038
      9 C          -0.1274   -1.9194   -0.6168 C.ar    1  UNL1        0.1654
     10 O           0.6826   -2.0789   -1.7282 O.3     1  UNL1       -0.4913
     11 C           0.0698   -2.0158   -3.0003 C.3     1  UNL1        0.0790
     12 C          -1.4875   -1.7032   -0.7486 C.ar    1  UNL1       -0.0126
     13 C          -2.3139   -1.5417    0.3511 C.ar    1  UNL1       -0.0358
     14 C          -3.7327   -1.3255    0.1156 C.3     1  UNL1        0.0025
     15 C          -4.1745    0.0600   -0.0654 C.ar    1  UNL1        0.0146
     16 C          -4.3866    0.4688   -1.3883 C.ar    1  UNL1        0.0379
     17 N          -4.7779    1.7234   -1.6295 N.ar    1  UNL1       -0.2227
     18 C          -4.9862    2.6409   -0.6601 C.ar    1  UNL1        0.2142
     19 N          -5.4021    3.9617   -0.9597 N.pl3   1  UNL1       -0.3274
     20 N          -4.7732    2.2142    0.5967 N.ar    1  UNL1       -0.1999
     21 C          -4.3844    0.9861    0.9182 C.ar    1  UNL1        0.1247
     22 N          -4.1747    0.5707    2.2691 N.pl3   1  UNL1       -0.3428
     23 C          -1.7709   -1.5974    1.6052 C.ar    1  UNL1       -0.0126
     24 C          -0.3945   -1.8157    1.7524 C.ar    1  UNL1        0.1654
     25 O           0.2223   -1.8832    2.9907 O.3     1  UNL1       -0.4913
     26 C          -0.5774   -1.7238    4.1478 C.3     1  UNL1        0.0790
     27 H           4.3697    3.2660   -0.1170 H       1  UNL1        0.0230
     28 H           5.6607    2.3746    0.7323 H       1  UNL1        0.0230
     29 H           6.1058    3.8907   -0.2055 H       1  UNL1        0.0230
     30 H           6.4817    1.4201   -1.2000 H       1  UNL1        0.0263
     31 H           5.8184    2.6717   -2.2973 H       1  UNL1        0.0263
     32 H           3.4866    1.8457   -1.6821 H       1  UNL1        0.0265
     33 H           4.4801    0.5671   -2.4104 H       1  UNL1        0.0265
     34 H           5.1088   -0.2999   -0.1786 H       1  UNL1        0.0266
     35 H           4.1771    0.9943    0.6232 H       1  UNL1        0.0266
     36 H           2.1285    0.0931   -0.6622 H       1  UNL1        0.0298
     37 H           3.2520   -1.2575   -1.2377 H       1  UNL1        0.0298
     38 H           3.7671   -1.9995    0.8686 H       1  UNL1        0.0696
     39 H           2.9148   -0.6716    1.6819 H       1  UNL1        0.0696
     40 H           0.8001   -2.1165   -3.8303 H       1  UNL1        0.0660
     41 H          -0.6732   -2.8640   -3.0077 H       1  UNL1        0.0660
     42 H          -0.5280   -1.0908   -3.1063 H       1  UNL1        0.0660
     43 H          -1.9146   -1.6585   -1.7398 H       1  UNL1        0.0658
     44 H          -4.3399   -1.7612    0.9492 H       1  UNL1        0.0363
     45 H          -4.0390   -1.9190   -0.7763 H       1  UNL1        0.0363
     46 H          -4.2436   -0.1991   -2.2253 H       1  UNL1        0.0834
     47 H          -6.2513    4.1175   -1.5216 H       1  UNL1        0.1452
     48 H          -4.8575    4.7591   -0.6172 H       1  UNL1        0.1452
     49 H          -4.5163   -0.3277    2.6426 H       1  UNL1        0.1437
     50 H          -3.6531    1.2081    2.9013 H       1  UNL1        0.1437
     51 H          -2.3400   -1.4862    2.5158 H       1  UNL1        0.0658
     52 H          -1.1840   -0.8098    4.1304 H       1  UNL1        0.0660
     53 H          -1.2637   -2.6095    4.1879 H       1  UNL1        0.0660
     54 H           0.0425   -1.7999    5.0790 H       1  UNL1        0.0660
@<TRIPOS>BOND
     1     1     2    1
     2     2     3    1
     3     3     4    1
     4     4     5    1
     5     5     6    1
     6     6     7    1
     7     7     8    1
     8     8     9   ar
     9     9    10    1
    10    10    11    1
    11     9    12   ar
    12    12    13   ar
    13    13    14    1
    14    14    15    1
    15    15    16   ar
    16    16    17   ar
    17    17    18   ar
    18    18    19    1
    19    18    20   ar
    20    20    21   ar
    21    21    22    1
    22    13    23   ar
    23    23    24   ar
    24    24    25    1
    25    25    26    1
    26    24     8   ar
    27    21    15   ar
    28     1    27    1
    29     1    28    1
    30     1    29    1
    31     2    30    1
    32     2    31    1
    33     3    32    1
    34     3    33    1
    35     4    34    1
    36     4    35    1
    37     5    36    1
    38     5    37    1
    39     6    38    1
    40     6    39    1
    41    11    40    1
    42    11    41    1
    43    11    42    1
    44    12    43    1
    45    14    44    1
    46    14    45    1
    47    16    46    1
    48    19    47    1
    49    19    48    1
    50    22    49    1
    51    22    50    1
    52    23    51    1
    53    26    52    1
    54    26    53    1
    55    26    54    1
