@<TRIPOS>MOLECULE
*****
 66 69 0 0 0
SMALL
GASTEIGER

@<TRIPOS>ATOM
      1 C           9.7813   -0.4301    0.6475 C.3     1  UNL1        0.0789
      2 O           9.1444   -1.7234    0.5951 O.3     1  UNL1       -0.4934
      3 C           8.4474   -2.1144    1.7180 C.ar    1  UNL1        0.1441
      4 C           9.1120   -2.7772    2.7299 C.ar    1  UNL1        0.0558
      5 I          11.1678   -3.2190    2.6164 I       1  UNL1       -0.0400
      6 C           8.4179   -3.1660    3.8527 C.ar    1  UNL1       -0.0416
      7 C           7.0834   -2.9205    4.0094 C.ar    1  UNL1       -0.0175
      8 C           6.4106   -2.2559    2.9962 C.ar    1  UNL1        0.1397
      9 O           5.1834   -1.9020    2.8801 O.2     1  UNL1       -0.4498
     10 C           4.9589   -1.2743    1.7187 C.ar    1  UNL1        0.1938
     11 C           3.6468   -0.7847    1.3720 C.2     1  UNL1        0.2839
     12 O           2.6421   -1.0702    2.1236 O.2     1  UNL1       -0.2665
     13 N           3.3070    0.0090    0.2590 N.am    1  UNL1       -0.2790
     14 C           1.9714    0.4465   -0.0070 C.ar    1  UNL1        0.0338
     15 C           1.4770    1.6336    0.4868 C.ar    1  UNL1       -0.0399
     16 C           0.1715    2.0359    0.2114 C.ar    1  UNL1       -0.0523
     17 C          -0.6470    1.2526   -0.5600 C.ar    1  UNL1       -0.0178
     18 C          -2.0137    1.6753   -0.8478 C.ar    1  UNL1       -0.0178
     19 C          -2.6358    1.3313   -2.0331 C.ar    1  UNL1       -0.0522
     20 C          -3.9345    1.7267   -2.3200 C.ar    1  UNL1       -0.0348
     21 C          -4.6528    2.4872   -1.4143 C.ar    1  UNL1        0.1053
     22 S          -6.2850    3.0015   -1.7442 S.O2    1  UNL1        0.0591
     23 O          -6.4342    3.1745   -3.2365 O.2     1  UNL1       -0.1530
     24 O          -6.5819    4.3385   -1.1297 O.2     1  UNL1       -0.1530
     25 N          -7.4163    1.8744   -1.1455 N.3     1  UNL1       -0.1759
     26 C          -7.2928    0.5610   -1.7526 C.3     1  UNL1        0.1276
     27 C          -8.5047    0.2652   -2.5902 C.2     1  UNL1        0.3238
     28 O          -8.5548   -0.8274   -3.1918 O.2     1  UNL1       -0.2492
     29 O          -9.5502    1.1616   -2.7087 O.3     1  UNL1       -0.4795
     30 C          -7.0710   -0.5308   -0.7370 C.3     1  UNL1       -0.0194
     31 C          -6.9493   -1.8445   -1.4749 C.3     1  UNL1       -0.0607
     32 C          -5.8485   -0.2431    0.0851 C.3     1  UNL1       -0.0607
     33 C          -4.0164    2.8288   -0.2220 C.ar    1  UNL1       -0.0348
     34 C          -2.7258    2.4379    0.0673 C.ar    1  UNL1       -0.0522
     35 C          -0.1653    0.0437   -1.0714 C.ar    1  UNL1       -0.0523
     36 C           1.1409   -0.3282   -0.7781 C.ar    1  UNL1       -0.0399
     37 C           6.1448   -1.2376    1.0612 C.ar    1  UNL1        0.0112
     38 C           6.3730   -0.6774   -0.2727 C.3     1  UNL1       -0.0353
     39 C           7.1085   -1.8553    1.8464 C.ar    1  UNL1        0.0664
     40 H           9.7409   -0.0467   -0.3968 H       1  UNL1        0.0660
     41 H           9.1265    0.2373    1.2445 H       1  UNL1        0.0660
     42 H          10.8084   -0.5031    1.0315 H       1  UNL1        0.0660
     43 H           8.9513   -3.6895    4.6483 H       1  UNL1        0.0630
     44 H           6.5169   -3.2111    4.8733 H       1  UNL1        0.0655
     45 H           4.0230    0.3060   -0.3949 H       1  UNL1        0.1552
     46 H           2.1477    2.2298    1.0926 H       1  UNL1        0.0636
     47 H          -0.2005    2.9670    0.6048 H       1  UNL1        0.0624
     48 H          -2.0625    0.7367   -2.7318 H       1  UNL1        0.0624
     49 H          -4.3616    1.4241   -3.2658 H       1  UNL1        0.0637
     50 H          -8.3816    2.2101   -1.2876 H       1  UNL1        0.1489
     51 H          -6.4502    0.5662   -2.4645 H       1  UNL1        0.0595
     52 H         -10.4259    0.9414   -3.1672 H       1  UNL1        0.2951
     53 H          -7.9800   -0.6470   -0.0846 H       1  UNL1        0.0316
     54 H          -6.1987   -2.5161   -0.9674 H       1  UNL1        0.0233
     55 H          -6.5180   -1.7144   -2.5051 H       1  UNL1        0.0233
     56 H          -7.8936   -2.3778   -1.5870 H       1  UNL1        0.0233
     57 H          -5.8425   -1.0372    0.8935 H       1  UNL1        0.0233
     58 H          -5.8941    0.7620    0.5442 H       1  UNL1        0.0233
     59 H          -4.9588   -0.3003   -0.5409 H       1  UNL1        0.0233
     60 H          -4.5258    3.4204    0.5229 H       1  UNL1        0.0637
     61 H          -2.2256    2.7015    0.9950 H       1  UNL1        0.0624
     62 H          -0.8019   -0.5878   -1.6842 H       1  UNL1        0.0624
     63 H           1.5463   -1.2647   -1.1616 H       1  UNL1        0.0636
     64 H           6.3916    0.4245   -0.3305 H       1  UNL1        0.0279
     65 H           7.3782   -0.9883   -0.6921 H       1  UNL1        0.0279
     66 H           5.6805   -1.1461   -1.0452 H       1  UNL1        0.0279
@<TRIPOS>BOND
     1     1     2    1
     2     2     3    1
     3     3     4   ar
     4     4     5    1
     5     4     6   ar
     6     6     7   ar
     7     7     8   ar
     8     8     9   ar
     9     9    10   ar
    10    10    11    1
    11    11    12    2
    12    11    13   am
    13    13    14    1
    14    14    15   ar
    15    15    16   ar
    16    16    17   ar
    17    17    18    1
    18    18    19   ar
    19    19    20   ar
    20    20    21   ar
    21    21    22    1
    22    22    23    2
    23    22    24    2
    24    22    25    1
    25    25    26    1
    26    26    27    1
    27    27    28    2
    28    27    29    1
    29    26    30    1
    30    30    31    1
    31    30    32    1
    32    21    33   ar
    33    33    34   ar
    34    17    35   ar
    35    35    36   ar
    36    10    37   ar
    37    37    38    1
    38    37    39   ar
    39    39     3   ar
    40    39     8   ar
    41    36    14   ar
    42    34    18   ar
    43     1    40    1
    44     1    41    1
    45     1    42    1
    46     6    43    1
    47     7    44    1
    48    13    45    1
    49    15    46    1
    50    16    47    1
    51    19    48    1
    52    20    49    1
    53    25    50    1
    54    26    51    1
    55    29    52    1
    56    30    53    1
    57    31    54    1
    58    31    55    1
    59    31    56    1
    60    32    57    1
    61    32    58    1
    62    32    59    1
    63    33    60    1
    64    34    61    1
    65    35    62    1
    66    36    63    1
    67    38    64    1
    68    38    65    1
    69    38    66    1
