
     RDKit          3D

 39 40  0  0  0  0  0  0  0  0999 V2000
   -0.9642   -2.1293   -0.1962 C   0  0  2  0  0  0  0  0  0  0  0  0
   -0.0729   -3.2877    0.2014 C   0  0  0  0  0  0  0  0  0  0  0  0
   -0.9336   -1.9027   -1.5650 O   0  0  0  0  0  0  0  0  0  0  0  0
   -0.7103   -0.9383    0.6366 C   0  0  1  0  0  0  0  0  0  0  0  0
    0.6542   -0.3703    0.6092 C   0  0  0  0  0  0  0  0  0  0  0  0
    1.1999    0.1041   -0.6795 C   0  0  0  0  0  0  0  0  0  0  0  0
    2.5821    0.6152   -0.3803 C   0  0  0  0  0  0  0  0  0  0  0  0
    2.8931    1.9561   -0.2987 C   0  0  0  0  0  0  0  0  0  0  0  0
    4.1675    2.4054   -0.0225 C   0  0  0  0  0  0  0  0  0  0  0  0
    5.1518    1.4657    0.1759 C   0  0  0  0  0  0  0  0  0  0  0  0
    4.9006    0.1236    0.1070 C   0  0  0  0  0  0  0  0  0  0  0  0
    6.2266   -0.9892    0.3761 Cl  0  0  0  0  0  0  0  0  0  0  0  0
    3.6217   -0.2964   -0.1698 C   0  0  0  0  0  0  0  0  0  0  0  0
    3.3574   -2.0179   -0.2458 Cl  0  0  0  0  0  0  0  0  0  0  0  0
   -1.7231    0.0763    0.4139 N   0  0  0  0  0  0  0  0  0  0  0  0
   -1.6016    1.4142    0.3654 C   0  0  0  0  0  0  0  0  0  0  0  0
   -2.8160    1.9698    0.1328 N   0  0  0  0  0  0  0  0  0  0  0  0
   -3.7407    0.9884    0.0280 C   0  0  0  0  0  0  0  0  0  0  0  0
   -3.0439   -0.1868    0.2055 C   0  0  0  0  0  0  0  0  0  0  0  0
   -5.1714    1.1431   -0.2204 C   0  0  0  0  0  0  0  0  0  0  0  0
   -5.7048    2.4537   -0.3772 N   0  0  0  0  0  0  0  0  0  0  0  0
   -5.9445    0.1654   -0.3001 O   0  0  0  0  0  0  0  0  0  0  0  0
   -2.0103   -2.4601    0.0125 H   0  0  0  0  0  0  0  0  0  0  0  0
    0.4065   -3.7329   -0.6943 H   0  0  0  0  0  0  0  0  0  0  0  0
   -0.6468   -4.1277    0.6822 H   0  0  0  0  0  0  0  0  0  0  0  0
    0.6276   -2.9443    0.9642 H   0  0  0  0  0  0  0  0  0  0  0  0
   -0.3528   -2.5718   -1.9925 H   0  0  0  0  0  0  0  0  0  0  0  0
   -0.8795   -1.2672    1.7047 H   0  0  0  0  0  0  0  0  0  0  0  0
    1.3947   -1.0571    1.0670 H   0  0  0  0  0  0  0  0  0  0  0  0
    0.6485    0.5209    1.3003 H   0  0  0  0  0  0  0  0  0  0  0  0
    0.6843    0.9198   -1.1801 H   0  0  0  0  0  0  0  0  0  0  0  0
    1.3586   -0.7323   -1.4189 H   0  0  0  0  0  0  0  0  0  0  0  0
    2.0660    2.6331   -0.4665 H   0  0  0  0  0  0  0  0  0  0  0  0
    4.3027    3.4784    0.0188 H   0  0  0  0  0  0  0  0  0  0  0  0
    6.1406    1.8714    0.3908 H   0  0  0  0  0  0  0  0  0  0  0  0
   -0.6803    1.9675    0.4919 H   0  0  0  0  0  0  0  0  0  0  0  0
   -3.5684   -1.1530    0.1674 H   0  0  0  0  0  0  0  0  0  0  0  0
   -5.7813    3.1249    0.4221 H   0  0  0  0  0  0  0  0  0  0  0  0
   -6.0380    2.7682   -1.3333 H   0  0  0  0  0  0  0  0  0  0  0  0
  1  2  1  0
  1  3  1  0
  1  4  1  0
  4  5  1  0
  5  6  1  0
  6  7  1  0
  7  8  2  0
  8  9  1  0
  9 10  2  0
 10 11  1  0
 11 12  1  0
 11 13  2  0
 13 14  1  0
  4 15  1  0
 15 16  1  0
 16 17  2  0
 17 18  1  0
 18 19  2  0
 18 20  1  0
 20 21  1  0
 20 22  2  0
 13  7  1  0
 19 15  1  0
  1 23  1  1
  2 24  1  0
  2 25  1  0
  2 26  1  0
  3 27  1  0
  4 28  1  1
  5 29  1  0
  5 30  1  0
  6 31  1  0
  6 32  1  0
  8 33  1  0
  9 34  1  0
 10 35  1  0
 16 36  1  0
 19 37  1  0
 21 38  1  0
 21 39  1  0
M  END
$$$$
