@<TRIPOS>MOLECULE
*****
 39 40 0 0 0
SMALL
GASTEIGER

@<TRIPOS>ATOM
      1 C          -0.9642   -2.1293   -0.1962 C.3     1  UNL1        0.0731
      2 C          -0.0729   -3.2877    0.2014 C.3     1  UNL1       -0.0370
      3 O          -0.9336   -1.9027   -1.5650 O.3     1  UNL1       -0.3900
      4 C          -0.7103   -0.9383    0.6366 C.3     1  UNL1        0.0613
      5 C           0.6542   -0.3703    0.6092 C.3     1  UNL1       -0.0256
      6 C           1.1999    0.1041   -0.6795 C.3     1  UNL1       -0.0243
      7 C           2.5821    0.6152   -0.3803 C.ar    1  UNL1       -0.0276
      8 C           2.8931    1.9561   -0.2987 C.ar    1  UNL1       -0.0571
      9 C           4.1675    2.4054   -0.0225 C.ar    1  UNL1       -0.0600
     10 C           5.1518    1.4657    0.1759 C.ar    1  UNL1       -0.0420
     11 C           4.9006    0.1236    0.1070 C.ar    1  UNL1        0.0595
     12 CL          6.2266   -0.9892    0.3761 Cl      1  UNL1       -0.0820
     13 C           3.6217   -0.2964   -0.1698 C.ar    1  UNL1        0.0624
     14 CL          3.3574   -2.0179   -0.2458 Cl      1  UNL1       -0.0818
     15 N          -1.7231    0.0763    0.4139 N.ar    1  UNL1       -0.3305
     16 C          -1.6016    1.4142    0.3654 C.ar    1  UNL1        0.0971
     17 N          -2.8160    1.9698    0.1328 N.ar    1  UNL1       -0.2311
     18 C          -3.7407    0.9884    0.0280 C.ar    1  UNL1        0.1428
     19 C          -3.0439   -0.1868    0.2055 C.ar    1  UNL1        0.0368
     20 C          -5.1714    1.1431   -0.2204 C.2     1  UNL1        0.2613
     21 N          -5.7048    2.4537   -0.3772 N.am    1  UNL1       -0.3240
     22 O          -5.9445    0.1654   -0.3001 O.2     1  UNL1       -0.2687
     23 H          -2.0103   -2.4601    0.0125 H       1  UNL1        0.0611
     24 H           0.4065   -3.7329   -0.6943 H       1  UNL1        0.0255
     25 H          -0.6468   -4.1277    0.6822 H       1  UNL1        0.0255
     26 H           0.6276   -2.9443    0.9642 H       1  UNL1        0.0255
     27 H          -0.3528   -2.5718   -1.9925 H       1  UNL1        0.2099
     28 H          -0.8795   -1.2672    1.7047 H       1  UNL1        0.0553
     29 H           1.3947   -1.0571    1.0670 H       1  UNL1        0.0289
     30 H           0.6485    0.5209    1.3003 H       1  UNL1        0.0289
     31 H           0.6843    0.9198   -1.1801 H       1  UNL1        0.0314
     32 H           1.3586   -0.7323   -1.4189 H       1  UNL1        0.0314
     33 H           2.0660    2.6331   -0.4665 H       1  UNL1        0.0621
     34 H           4.3027    3.4784    0.0188 H       1  UNL1        0.0618
     35 H           6.1406    1.8714    0.3908 H       1  UNL1        0.0633
     36 H          -0.6803    1.9675    0.4919 H       1  UNL1        0.1029
     37 H          -3.5684   -1.1530    0.1674 H       1  UNL1        0.0833
     38 H          -5.7813    3.1249    0.4221 H       1  UNL1        0.1453
     39 H          -6.0380    2.7682   -1.3333 H       1  UNL1        0.1453
@<TRIPOS>BOND
     1     1     2    1
     2     1     3    1
     3     1     4    1
     4     4     5    1
     5     5     6    1
     6     6     7    1
     7     7     8   ar
     8     8     9   ar
     9     9    10   ar
    10    10    11   ar
    11    11    12    1
    12    11    13   ar
    13    13    14    1
    14     4    15    1
    15    15    16   ar
    16    16    17   ar
    17    17    18   ar
    18    18    19   ar
    19    18    20    1
    20    20    21   am
    21    20    22    2
    22    13     7   ar
    23    19    15   ar
    24     1    23    1
    25     2    24    1
    26     2    25    1
    27     2    26    1
    28     3    27    1
    29     4    28    1
    30     5    29    1
    31     5    30    1
    32     6    31    1
    33     6    32    1
    34     8    33    1
    35     9    34    1
    36    10    35    1
    37    16    36    1
    38    19    37    1
    39    21    38    1
    40    21    39    1
