@<TRIPOS>MOLECULE
*****
 41 42 0 0 0
SMALL
GASTEIGER

@<TRIPOS>ATOM
      1 C           1.3738    2.2005    1.0147 C.3     1  UNL1       -0.0242
      2 C           0.8642    0.8000    0.7587 C.3     1  UNL1        0.1726
      3 O           0.8458    0.0547    1.9255 O.3     1  UNL1       -0.3764
      4 C           1.8404    0.1181   -0.1712 C.3     1  UNL1        0.1265
      5 O           3.0915    0.1312    0.5057 O.3     1  UNL1       -0.4885
      6 C           4.2599   -0.3873    0.0198 C.ar    1  UNL1        0.1235
      7 C           5.3244   -0.2263    0.9113 C.ar    1  UNL1       -0.0184
      8 C           6.5988   -0.6745    0.6286 C.ar    1  UNL1       -0.0371
      9 C           6.7825   -1.2993   -0.5925 C.ar    1  UNL1        0.0763
     10 CL          8.3695   -1.8956   -1.0250 Cl      1  UNL1       -0.0806
     11 C           5.7559   -1.4866   -1.5199 C.ar    1  UNL1        0.1451
     12 F           5.9496   -2.0981   -2.7076 F       1  UNL1       -0.2038
     13 C           4.4962   -1.0103   -1.1701 C.ar    1  UNL1        0.0167
     14 C          -0.4997    0.8834    0.2237 C.2     1  UNL1        0.2520
     15 O          -0.5849    1.5467   -0.8445 O.2     1  UNL1       -0.2722
     16 N          -1.5944    0.2606    0.8789 N.am    1  UNL1       -0.2830
     17 C          -2.9706    0.2297    0.5199 C.ar    1  UNL1        0.0341
     18 C          -3.6050   -0.7071   -0.2751 C.ar    1  UNL1       -0.0276
     19 C          -4.9448   -0.6171   -0.5427 C.ar    1  UNL1        0.0739
     20 C          -5.6826    0.4207   -0.0158 C.ar    1  UNL1        0.0635
     21 C          -5.0744    1.3754    0.7849 C.ar    1  UNL1       -0.0421
     22 C          -3.7287    1.2779    1.0487 C.ar    1  UNL1       -0.0392
     23 C          -7.0845    0.5728   -0.2563 C.1     1  UNL1        0.0997
     24 N          -8.2323    0.6845   -0.4686 N.1     1  UNL1       -0.1909
     25 C          -5.6046   -1.6368   -1.4002 C.3     1  UNL1        0.4187
     26 F          -6.5829   -2.2180   -0.6148 F       1  UNL1       -0.1659
     27 F          -6.1549   -1.0314   -2.5068 F       1  UNL1       -0.1659
     28 F          -4.7048   -2.6198   -1.7440 F       1  UNL1       -0.1659
     29 H           1.7500    2.6068    0.0319 H       1  UNL1        0.0263
     30 H           0.5258    2.8017    1.3824 H       1  UNL1        0.0263
     31 H           2.1659    2.1239    1.7799 H       1  UNL1        0.0263
     32 H           0.6616   -0.8858    1.6460 H       1  UNL1        0.2109
     33 H           1.5701   -0.9502   -0.3066 H       1  UNL1        0.0731
     34 H           1.8805    0.5827   -1.1750 H       1  UNL1        0.0731
     35 H           5.2467    0.2600    1.8957 H       1  UNL1        0.0654
     36 H           7.4303   -0.5531    1.3159 H       1  UNL1        0.0634
     37 H           3.6421   -1.1038   -1.8104 H       1  UNL1        0.0683
     38 H          -1.4779   -0.2845    1.7704 H       1  UNL1        0.1549
     39 H          -2.9698   -1.4948   -0.6564 H       1  UNL1        0.0642
     40 H          -5.6428    2.2021    1.2092 H       1  UNL1        0.0631
     41 H          -3.2857    2.0472    1.6823 H       1  UNL1        0.0636
@<TRIPOS>BOND
     1     1     2    1
     2     2     3    1
     3     2     4    1
     4     4     5    1
     5     5     6    1
     6     6     7   ar
     7     7     8   ar
     8     8     9   ar
     9     9    10    1
    10     9    11   ar
    11    11    12    1
    12    11    13   ar
    13     2    14    1
    14    14    15    2
    15    14    16   am
    16    16    17    1
    17    17    18   ar
    18    18    19   ar
    19    19    20   ar
    20    20    21   ar
    21    21    22   ar
    22    20    23    1
    23    23    24    3
    24    19    25    1
    25    25    26    1
    26    25    27    1
    27    25    28    1
    28    13     6   ar
    29    22    17   ar
    30     1    29    1
    31     1    30    1
    32     1    31    1
    33     3    32    1
    34     4    33    1
    35     4    34    1
    36     7    35    1
    37     8    36    1
    38    13    37    1
    39    16    38    1
    40    18    39    1
    41    21    40    1
    42    22    41    1
