@<TRIPOS>MOLECULE
*****
 44 47 0 0 0
SMALL
GASTEIGER

@<TRIPOS>ATOM
      1 C          -7.1537   -1.5347    0.5298 C.3     1  UNL1       -0.0039
      2 C          -5.7679   -1.5901   -0.1024 C.ar    1  UNL1        0.1359
      3 N          -5.3818   -2.7364   -0.8328 N.ar    1  UNL1       -0.1939
      4 S          -3.6638   -2.2538   -1.3571 S.2     1  UNL1        0.0369
      5 C          -3.7194   -0.7195   -0.5826 C.ar    1  UNL1        0.1652
      6 C          -2.6812    0.3459   -0.5311 C.ar    1  UNL1        0.1910
      7 N          -2.9331    1.6532   -0.6797 N.ar    1  UNL1       -0.1269
      8 N          -1.8435    2.3247   -0.5816 N.ar    1  UNL1       -0.1320
      9 C          -0.8224    1.4360   -0.3590 C.ar    1  UNL1        0.1545
     10 N          -1.3781    0.2403   -0.3352 N.ar    1  UNL1       -0.3062
     11 C          -0.5996   -0.9598   -0.1307 C.3     1  UNL1        0.0423
     12 C           0.7481   -0.7301    0.4160 C.3     1  UNL1        0.0338
     13 N           1.3632    0.5074    0.0916 N.am    1  UNL1       -0.2856
     14 C           2.7990    0.5220    0.0344 C.2     1  UNL1        0.2472
     15 O           3.4826    1.5382   -0.2170 O.2     1  UNL1       -0.2700
     16 C           3.5882   -0.6971    0.2715 C.ar    1  UNL1        0.0371
     17 C           3.7412   -1.6148   -0.7420 C.ar    1  UNL1       -0.0469
     18 C           4.4688   -2.7584   -0.5040 C.ar    1  UNL1       -0.0257
     19 C           5.0468   -3.0055    0.7221 C.ar    1  UNL1        0.1234
     20 F           5.7555   -4.1757    0.8846 F       1  UNL1       -0.2055
     21 C           4.9034   -2.0947    1.7515 C.ar    1  UNL1       -0.0257
     22 C           4.1657   -0.9458    1.4930 C.ar    1  UNL1       -0.0469
     23 C           0.6332    1.6941   -0.1835 C.3     1  UNL1        0.0883
     24 C           0.8670    2.8070    0.7684 C.3     1  UNL1       -0.0039
     25 C           0.2836    4.1198    0.3404 C.3     1  UNL1        0.0463
     26 O           0.6300    5.0556    1.3252 O.3     1  UNL1       -0.3949
     27 N          -4.8946   -0.6693   -0.0384 N.ar    1  UNL1       -0.2199
     28 H          -7.8344   -2.1590   -0.0411 H       1  UNL1        0.0308
     29 H          -7.0475   -1.9234    1.5688 H       1  UNL1        0.0308
     30 H          -7.4412   -0.4717    0.6212 H       1  UNL1        0.0308
     31 H          -0.5682   -1.4979   -1.1045 H       1  UNL1        0.0508
     32 H          -1.1621   -1.6102    0.5643 H       1  UNL1        0.0508
     33 H           0.7736   -0.8187    1.5302 H       1  UNL1        0.0482
     34 H           1.4181   -1.5606    0.0507 H       1  UNL1        0.0482
     35 H           3.2817   -1.4387   -1.7344 H       1  UNL1        0.0626
     36 H           4.5727   -3.4738   -1.3365 H       1  UNL1        0.0646
     37 H           5.3621   -2.3193    2.6934 H       1  UNL1        0.0646
     38 H           4.0726   -0.2491    2.3347 H       1  UNL1        0.0626
     39 H           1.0043    2.0368   -1.2188 H       1  UNL1        0.0582
     40 H           1.9300    2.8926    1.1005 H       1  UNL1        0.0309
     41 H           0.3331    2.5910    1.7553 H       1  UNL1        0.0309
     42 H          -0.8213    4.0529    0.3977 H       1  UNL1        0.0558
     43 H           0.5562    4.4220   -0.6798 H       1  UNL1        0.0558
     44 H          -0.0673    5.7688    1.2800 H       1  UNL1        0.2094
@<TRIPOS>BOND
     1     1     2    1
     2     2     3   ar
     3     3     4   ar
     4     4     5   ar
     5     5     6    1
     6     6     7   ar
     7     7     8   ar
     8     8     9   ar
     9     9    10   ar
    10    10    11    1
    11    11    12    1
    12    12    13    1
    13    13    14   am
    14    14    15    2
    15    14    16    1
    16    16    17   ar
    17    17    18   ar
    18    18    19   ar
    19    19    20    1
    20    19    21   ar
    21    21    22   ar
    22    13    23    1
    23    23    24    1
    24    24    25    1
    25    25    26    1
    26     5    27   ar
    27    27     2   ar
    28    10     6   ar
    29    22    16   ar
    30    23     9    1
    31     1    28    1
    32     1    29    1
    33     1    30    1
    34    11    31    1
    35    11    32    1
    36    12    33    1
    37    12    34    1
    38    17    35    1
    39    18    36    1
    40    21    37    1
    41    22    38    1
    42    23    39    1
    43    24    40    1
    44    24    41    1
    45    25    42    1
    46    25    43    1
    47    26    44    1
