
     RDKit          3D

 44 47  0  0  0  0  0  0  0  0999 V2000
   -7.1537   -1.5347    0.5298 C   0  0  0  0  0  0  0  0  0  0  0  0
   -5.7679   -1.5901   -0.1024 C   0  0  0  0  0  0  0  0  0  0  0  0
   -5.3818   -2.7364   -0.8328 N   0  0  0  0  0  0  0  0  0  0  0  0
   -3.6638   -2.2538   -1.3571 S   0  0  0  0  0  0  0  0  0  0  0  0
   -3.7194   -0.7195   -0.5826 C   0  0  0  0  0  0  0  0  0  0  0  0
   -2.6812    0.3459   -0.5311 C   0  0  0  0  0  0  0  0  0  0  0  0
   -2.9331    1.6532   -0.6797 N   0  0  0  0  0  0  0  0  0  0  0  0
   -1.8435    2.3247   -0.5816 N   0  0  0  0  0  0  0  0  0  0  0  0
   -0.8224    1.4360   -0.3590 C   0  0  0  0  0  0  0  0  0  0  0  0
   -1.3781    0.2403   -0.3352 N   0  0  0  0  0  0  0  0  0  0  0  0
   -0.5996   -0.9598   -0.1307 C   0  0  0  0  0  0  0  0  0  0  0  0
    0.7481   -0.7301    0.4160 C   0  0  0  0  0  0  0  0  0  0  0  0
    1.3632    0.5074    0.0916 N   0  0  0  0  0  0  0  0  0  0  0  0
    2.7990    0.5220    0.0344 C   0  0  0  0  0  0  0  0  0  0  0  0
    3.4826    1.5382   -0.2170 O   0  0  0  0  0  0  0  0  0  0  0  0
    3.5882   -0.6971    0.2715 C   0  0  0  0  0  0  0  0  0  0  0  0
    3.7412   -1.6148   -0.7420 C   0  0  0  0  0  0  0  0  0  0  0  0
    4.4688   -2.7584   -0.5040 C   0  0  0  0  0  0  0  0  0  0  0  0
    5.0468   -3.0055    0.7221 C   0  0  0  0  0  0  0  0  0  0  0  0
    5.7555   -4.1757    0.8846 F   0  0  0  0  0  0  0  0  0  0  0  0
    4.9034   -2.0947    1.7515 C   0  0  0  0  0  0  0  0  0  0  0  0
    4.1657   -0.9458    1.4930 C   0  0  0  0  0  0  0  0  0  0  0  0
    0.6332    1.6941   -0.1835 C   0  0  2  0  0  0  0  0  0  0  0  0
    0.8670    2.8070    0.7684 C   0  0  0  0  0  0  0  0  0  0  0  0
    0.2836    4.1198    0.3404 C   0  0  0  0  0  0  0  0  0  0  0  0
    0.6300    5.0556    1.3252 O   0  0  0  0  0  0  0  0  0  0  0  0
   -4.8946   -0.6693   -0.0384 N   0  0  0  0  0  0  0  0  0  0  0  0
   -7.8344   -2.1590   -0.0411 H   0  0  0  0  0  0  0  0  0  0  0  0
   -7.0475   -1.9234    1.5688 H   0  0  0  0  0  0  0  0  0  0  0  0
   -7.4412   -0.4717    0.6212 H   0  0  0  0  0  0  0  0  0  0  0  0
   -0.5682   -1.4979   -1.1045 H   0  0  0  0  0  0  0  0  0  0  0  0
   -1.1621   -1.6102    0.5643 H   0  0  0  0  0  0  0  0  0  0  0  0
    0.7736   -0.8187    1.5302 H   0  0  0  0  0  0  0  0  0  0  0  0
    1.4181   -1.5606    0.0507 H   0  0  0  0  0  0  0  0  0  0  0  0
    3.2817   -1.4387   -1.7344 H   0  0  0  0  0  0  0  0  0  0  0  0
    4.5727   -3.4738   -1.3365 H   0  0  0  0  0  0  0  0  0  0  0  0
    5.3621   -2.3193    2.6934 H   0  0  0  0  0  0  0  0  0  0  0  0
    4.0726   -0.2491    2.3347 H   0  0  0  0  0  0  0  0  0  0  0  0
    1.0043    2.0368   -1.2188 H   0  0  0  0  0  0  0  0  0  0  0  0
    1.9300    2.8926    1.1005 H   0  0  0  0  0  0  0  0  0  0  0  0
    0.3331    2.5910    1.7553 H   0  0  0  0  0  0  0  0  0  0  0  0
   -0.8213    4.0529    0.3977 H   0  0  0  0  0  0  0  0  0  0  0  0
    0.5562    4.4220   -0.6798 H   0  0  0  0  0  0  0  0  0  0  0  0
   -0.0673    5.7688    1.2800 H   0  0  0  0  0  0  0  0  0  0  0  0
  1  2  1  0
  2  3  2  0
  3  4  1  0
  4  5  1  0
  5  6  1  0
  6  7  2  0
  7  8  1  0
  8  9  2  0
  9 10  1  0
 10 11  1  0
 11 12  1  0
 12 13  1  0
 13 14  1  0
 14 15  2  0
 14 16  1  0
 16 17  2  0
 17 18  1  0
 18 19  2  0
 19 20  1  0
 19 21  1  0
 21 22  2  0
 13 23  1  0
 23 24  1  0
 24 25  1  0
 25 26  1  0
  5 27  2  0
 27  2  1  0
 10  6  1  0
 22 16  1  0
 23  9  1  0
  1 28  1  0
  1 29  1  0
  1 30  1  0
 11 31  1  0
 11 32  1  0
 12 33  1  0
 12 34  1  0
 17 35  1  0
 18 36  1  0
 21 37  1  0
 22 38  1  0
 23 39  1  6
 24 40  1  0
 24 41  1  0
 25 42  1  0
 25 43  1  0
 26 44  1  0
M  END
$$$$
