@<TRIPOS>MOLECULE
*****
 28 29 0 0 0
SMALL
GASTEIGER

@<TRIPOS>ATOM
      1 O           4.7285    1.4078    2.0419 O.3     1  UNL1       -0.2539
      2 S           3.8217    1.3223    0.6260 S.O2    1  UNL1        0.0798
      3 O           4.7262    1.6291   -0.5366 O.2     1  UNL1       -0.1474
      4 O           2.7248    2.3242    0.6603 O.2     1  UNL1       -0.1474
      5 C           3.1943   -0.3260    0.4854 C.3     1  UNL1        0.0934
      6 C           2.3601   -0.4660   -0.7845 C.3     1  UNL1       -0.0218
      7 C           1.8698   -1.8755   -0.8283 C.3     1  UNL1        0.0017
      8 S           0.8590   -2.1575    0.6776 S.3     1  UNL1       -0.0987
      9 C          -0.6245   -1.1368    0.5922 C.ar    1  UNL1        0.1357
     10 N          -1.6944   -1.4042    0.1183 N.ar    1  UNL1       -0.2327
     11 C          -2.7452   -0.5875    0.0947 C.ar    1  UNL1        0.0795
     12 C          -2.5934    0.7633    0.6997 C.ar    1  UNL1        0.0400
     13 S          -0.8186    0.6571    1.2608 S.2     1  UNL1       -0.0610
     14 C          -3.5649    1.6777    0.7430 C.ar    1  UNL1       -0.0459
     15 C          -4.7966    1.4064    0.2124 C.ar    1  UNL1       -0.0606
     16 C          -4.9570    0.1483   -0.3574 C.ar    1  UNL1       -0.0597
     17 C          -4.0018   -0.8124   -0.4254 C.ar    1  UNL1       -0.0352
     18 H           5.4424    0.7361    2.0512 H       1  UNL1        0.2445
     19 H           4.0278   -1.0447    0.4211 H       1  UNL1        0.0525
     20 H           2.5906   -0.5428    1.3849 H       1  UNL1        0.0525
     21 H           1.5182    0.2294   -0.8061 H       1  UNL1        0.0290
     22 H           3.0155   -0.3119   -1.6637 H       1  UNL1        0.0290
     23 H           2.7300   -2.5717   -0.8449 H       1  UNL1        0.0381
     24 H           1.1808   -2.0731   -1.6885 H       1  UNL1        0.0381
     25 H          -3.2365    2.5786    1.2237 H       1  UNL1        0.0629
     26 H          -5.5228    2.1945    0.2878 H       1  UNL1        0.0618
     27 H          -5.9663   -0.0173   -0.7692 H       1  UNL1        0.0618
     28 H          -4.2679   -1.7474   -0.8987 H       1  UNL1        0.0639
@<TRIPOS>BOND
     1     1     2    1
     2     2     3    2
     3     2     4    2
     4     2     5    1
     5     5     6    1
     6     6     7    1
     7     7     8    1
     8     8     9    1
     9     9    10   ar
    10    10    11   ar
    11    11    12   ar
    12    12    13   ar
    13    12    14   ar
    14    14    15   ar
    15    15    16   ar
    16    16    17   ar
    17    13     9   ar
    18    17    11   ar
    19     1    18    1
    20     5    19    1
    21     5    20    1
    22     6    21    1
    23     6    22    1
    24     7    23    1
    25     7    24    1
    26    14    25    1
    27    15    26    1
    28    16    27    1
    29    17    28    1
