
     RDKit          3D

 28 29  0  0  0  0  0  0  0  0999 V2000
    4.7285    1.4078    2.0419 O   0  0  0  0  0  0  0  0  0  0  0  0
    3.8217    1.3223    0.6260 S   0  0  0  0  0  0  0  0  0  0  0  0
    4.7262    1.6291   -0.5366 O   0  0  0  0  0  0  0  0  0  0  0  0
    2.7248    2.3242    0.6603 O   0  0  0  0  0  0  0  0  0  0  0  0
    3.1943   -0.3260    0.4854 C   0  0  0  0  0  0  0  0  0  0  0  0
    2.3601   -0.4660   -0.7845 C   0  0  0  0  0  0  0  0  0  0  0  0
    1.8698   -1.8755   -0.8283 C   0  0  0  0  0  0  0  0  0  0  0  0
    0.8590   -2.1575    0.6776 S   0  0  0  0  0  0  0  0  0  0  0  0
   -0.6245   -1.1368    0.5922 C   0  0  0  0  0  0  0  0  0  0  0  0
   -1.6944   -1.4042    0.1183 N   0  0  0  0  0  0  0  0  0  0  0  0
   -2.7452   -0.5875    0.0947 C   0  0  0  0  0  0  0  0  0  0  0  0
   -2.5934    0.7633    0.6997 C   0  0  0  0  0  0  0  0  0  0  0  0
   -0.8186    0.6571    1.2608 S   0  0  0  0  0  0  0  0  0  0  0  0
   -3.5649    1.6777    0.7430 C   0  0  0  0  0  0  0  0  0  0  0  0
   -4.7966    1.4064    0.2124 C   0  0  0  0  0  0  0  0  0  0  0  0
   -4.9570    0.1483   -0.3574 C   0  0  0  0  0  0  0  0  0  0  0  0
   -4.0018   -0.8124   -0.4254 C   0  0  0  0  0  0  0  0  0  0  0  0
    5.4424    0.7361    2.0512 H   0  0  0  0  0  0  0  0  0  0  0  0
    4.0278   -1.0447    0.4211 H   0  0  0  0  0  0  0  0  0  0  0  0
    2.5906   -0.5428    1.3849 H   0  0  0  0  0  0  0  0  0  0  0  0
    1.5182    0.2294   -0.8061 H   0  0  0  0  0  0  0  0  0  0  0  0
    3.0155   -0.3119   -1.6637 H   0  0  0  0  0  0  0  0  0  0  0  0
    2.7300   -2.5717   -0.8449 H   0  0  0  0  0  0  0  0  0  0  0  0
    1.1808   -2.0731   -1.6885 H   0  0  0  0  0  0  0  0  0  0  0  0
   -3.2365    2.5786    1.2237 H   0  0  0  0  0  0  0  0  0  0  0  0
   -5.5228    2.1945    0.2878 H   0  0  0  0  0  0  0  0  0  0  0  0
   -5.9663   -0.0173   -0.7692 H   0  0  0  0  0  0  0  0  0  0  0  0
   -4.2679   -1.7474   -0.8987 H   0  0  0  0  0  0  0  0  0  0  0  0
  1  2  1  0
  2  3  2  0
  2  4  2  0
  2  5  1  0
  5  6  1  0
  6  7  1  0
  7  8  1  0
  8  9  1  0
  9 10  2  0
 10 11  1  0
 11 12  2  0
 12 13  1  0
 12 14  1  0
 14 15  2  0
 15 16  1  0
 16 17  2  0
 13  9  1  0
 17 11  1  0
  1 18  1  0
  5 19  1  0
  5 20  1  0
  6 21  1  0
  6 22  1  0
  7 23  1  0
  7 24  1  0
 14 25  1  0
 15 26  1  0
 16 27  1  0
 17 28  1  0
M  END
$$$$
