
     RDKit          3D

 37 39  0  0  0  0  0  0  0  0999 V2000
   -5.2642    1.8471    1.3565 O   0  0  0  0  0  0  0  0  0  0  0  0
   -4.8373    1.3469    0.2605 C   0  0  0  0  0  0  0  0  0  0  0  0
   -5.4966    1.6408   -0.9438 N   0  0  0  0  0  0  0  0  0  0  0  0
   -6.5780    2.4494   -0.9434 O   0  0  0  0  0  0  0  0  0  0  0  0
   -3.6724    0.4781    0.2741 C   0  0  0  0  0  0  0  0  0  0  0  0
   -3.0285    0.1969    1.4873 C   0  0  0  0  0  0  0  0  0  0  0  0
   -1.9268   -0.6136    1.5635 C   0  0  0  0  0  0  0  0  0  0  0  0
   -1.3746   -1.2151    0.4163 C   0  0  0  0  0  0  0  0  0  0  0  0
   -0.2017   -2.1105    0.5719 C   0  0  0  0  0  0  0  0  0  0  0  0
    1.0541   -1.4572    0.7247 N   0  0  0  0  0  0  0  0  0  0  0  0
    1.8177   -0.8740   -0.2951 C   0  0  0  0  0  0  0  0  0  0  0  0
    1.4625   -0.9183   -1.6265 C   0  0  0  0  0  0  0  0  0  0  0  0
    2.2403   -0.3626   -2.6451 C   0  0  0  0  0  0  0  0  0  0  0  0
    3.4145    0.2560   -2.3018 C   0  0  0  0  0  0  0  0  0  0  0  0
    3.7780    0.3043   -0.9726 C   0  0  0  0  0  0  0  0  0  0  0  0
    4.9669    0.9355   -0.6710 C   0  0  0  0  0  0  0  0  0  0  0  0
    5.3767    1.0109    0.6479 C   0  0  0  0  0  0  0  0  0  0  0  0
    4.5751    0.4470    1.6269 C   0  0  0  0  0  0  0  0  0  0  0  0
    3.4213   -0.1624    1.3059 N   0  0  0  0  0  0  0  0  0  0  0  0
    3.0272   -0.2340    0.0292 C   0  0  0  0  0  0  0  0  0  0  0  0
   -1.9999   -0.9437   -0.7657 C   0  0  0  0  0  0  0  0  0  0  0  0
   -3.1285   -0.1119   -0.8373 C   0  0  0  0  0  0  0  0  0  0  0  0
   -5.1699    1.2487   -1.8385 H   0  0  0  0  0  0  0  0  0  0  0  0
   -6.5499    3.1048   -0.2149 H   0  0  0  0  0  0  0  0  0  0  0  0
   -3.4609    0.6662    2.3748 H   0  0  0  0  0  0  0  0  0  0  0  0
   -1.4345   -0.8266    2.5033 H   0  0  0  0  0  0  0  0  0  0  0  0
   -0.1500   -2.7581   -0.3386 H   0  0  0  0  0  0  0  0  0  0  0  0
   -0.3894   -2.8583    1.4041 H   0  0  0  0  0  0  0  0  0  0  0  0
    1.4655   -1.4014    1.7193 H   0  0  0  0  0  0  0  0  0  0  0  0
    0.5736   -1.4005   -1.9649 H   0  0  0  0  0  0  0  0  0  0  0  0
    1.9461   -0.4058   -3.6848 H   0  0  0  0  0  0  0  0  0  0  0  0
    4.0405    0.6956   -3.0557 H   0  0  0  0  0  0  0  0  0  0  0  0
    5.5852    1.3715   -1.4343 H   0  0  0  0  0  0  0  0  0  0  0  0
    6.2959    1.4941    0.9231 H   0  0  0  0  0  0  0  0  0  0  0  0
    4.8536    0.4786    2.6911 H   0  0  0  0  0  0  0  0  0  0  0  0
   -1.6545   -1.3814   -1.6998 H   0  0  0  0  0  0  0  0  0  0  0  0
   -3.5770    0.0630   -1.8100 H   0  0  0  0  0  0  0  0  0  0  0  0
  1  2  2  0
  2  3  1  0
  3  4  1  0
  2  5  1  0
  5  6  2  0
  6  7  1  0
  7  8  2  0
  8  9  1  0
  9 10  1  0
 10 11  1  0
 11 12  2  0
 12 13  1  0
 13 14  2  0
 14 15  1  0
 15 16  2  0
 16 17  1  0
 17 18  2  0
 18 19  1  0
 19 20  2  0
  8 21  1  0
 21 22  2  0
 22  5  1  0
 20 11  1  0
 20 15  1  0
  3 23  1  0
  4 24  1  0
  6 25  1  0
  7 26  1  0
  9 27  1  0
  9 28  1  0
 10 29  1  0
 12 30  1  0
 13 31  1  0
 14 32  1  0
 16 33  1  0
 17 34  1  0
 18 35  1  0
 21 36  1  0
 22 37  1  0
M  END
$$$$
