@<TRIPOS>MOLECULE
*****
 37 39 0 0 0
SMALL
GASTEIGER

@<TRIPOS>ATOM
      1 O          -5.2642    1.8471    1.3565 O.2     1  UNL1       -0.2681
      2 C          -4.8373    1.3469    0.2605 C.2     1  UNL1        0.2665
      3 N          -5.4966    1.6408   -0.9438 N.am    1  UNL1       -0.1935
      4 O          -6.5780    2.4494   -0.9434 O.3     1  UNL1       -0.2949
      5 C          -3.6724    0.4781    0.2741 C.ar    1  UNL1        0.0387
      6 C          -3.0285    0.1969    1.4873 C.ar    1  UNL1       -0.0493
      7 C          -1.9268   -0.6136    1.5635 C.ar    1  UNL1       -0.0564
      8 C          -1.3746   -1.2151    0.4163 C.ar    1  UNL1       -0.0304
      9 C          -0.2017   -2.1105    0.5719 C.3     1  UNL1        0.0344
     10 N           1.0541   -1.4572    0.7247 N.pl3   1  UNL1       -0.3381
     11 C           1.8177   -0.8740   -0.2951 C.ar    1  UNL1        0.0537
     12 C           1.4625   -0.9183   -1.6265 C.ar    1  UNL1       -0.0387
     13 C           2.2403   -0.3626   -2.6451 C.ar    1  UNL1       -0.0593
     14 C           3.4145    0.2560   -2.3018 C.ar    1  UNL1       -0.0524
     15 C           3.7780    0.3043   -0.9726 C.ar    1  UNL1        0.0022
     16 C           4.9669    0.9355   -0.6710 C.ar    1  UNL1       -0.0511
     17 C           5.3767    1.0109    0.6479 C.ar    1  UNL1       -0.0430
     18 C           4.5751    0.4470    1.6269 C.ar    1  UNL1        0.0283
     19 N           3.4213   -0.1624    1.3059 N.ar    1  UNL1       -0.2531
     20 C           3.0272   -0.2340    0.0292 C.ar    1  UNL1        0.0917
     21 C          -1.9999   -0.9437   -0.7657 C.ar    1  UNL1       -0.0564
     22 C          -3.1285   -0.1119   -0.8373 C.ar    1  UNL1       -0.0493
     23 H          -5.1699    1.2487   -1.8385 H       1  UNL1        0.1825
     24 H          -6.5499    3.1048   -0.2149 H       1  UNL1        0.2414
     25 H          -3.4609    0.6662    2.3748 H       1  UNL1        0.0625
     26 H          -1.4345   -0.8266    2.5033 H       1  UNL1        0.0621
     27 H          -0.1500   -2.7581   -0.3386 H       1  UNL1        0.0511
     28 H          -0.3894   -2.8583    1.4041 H       1  UNL1        0.0511
     29 H           1.4655   -1.4014    1.7193 H       1  UNL1        0.1465
     30 H           0.5736   -1.4005   -1.9649 H       1  UNL1        0.0637
     31 H           1.9461   -0.4058   -3.6848 H       1  UNL1        0.0618
     32 H           4.0405    0.6956   -3.0557 H       1  UNL1        0.0624
     33 H           5.5852    1.3715   -1.4343 H       1  UNL1        0.0625
     34 H           6.2959    1.4941    0.9231 H       1  UNL1        0.0633
     35 H           4.8536    0.4786    2.6911 H       1  UNL1        0.0830
     36 H          -1.6545   -1.3814   -1.6998 H       1  UNL1        0.0621
     37 H          -3.5770    0.0630   -1.8100 H       1  UNL1        0.0625
@<TRIPOS>BOND
     1     1     2    2
     2     2     3   am
     3     3     4    1
     4     2     5    1
     5     5     6   ar
     6     6     7   ar
     7     7     8   ar
     8     8     9    1
     9     9    10    1
    10    10    11    1
    11    11    12   ar
    12    12    13   ar
    13    13    14   ar
    14    14    15   ar
    15    15    16   ar
    16    16    17   ar
    17    17    18   ar
    18    18    19   ar
    19    19    20   ar
    20     8    21   ar
    21    21    22   ar
    22    22     5   ar
    23    20    11   ar
    24    20    15   ar
    25     3    23    1
    26     4    24    1
    27     6    25    1
    28     7    26    1
    29     9    27    1
    30     9    28    1
    31    10    29    1
    32    12    30    1
    33    13    31    1
    34    14    32    1
    35    16    33    1
    36    17    34    1
    37    18    35    1
    38    21    36    1
    39    22    37    1
