@<TRIPOS>MOLECULE
*****
 63 67 0 0 0
SMALL
GASTEIGER

@<TRIPOS>ATOM
      1 C          -2.3446    4.1153    1.8462 C.3     1  UNL1       -0.0025
      2 C          -2.2499    2.6161    1.6648 C.1     1  UNL1       -0.1038
      3 C          -2.1687    1.3849    1.4965 C.1     1  UNL1       -0.0806
      4 C          -2.0899   -0.0921    1.2762 C.3     1  UNL1        0.0878
      5 N          -1.8352   -0.1269   -0.1783 N.ar    1  UNL1       -0.2946
      6 C          -2.7714   -0.0726   -1.1365 C.ar    1  UNL1        0.2016
      7 N          -4.1535   -0.4145   -0.8812 N.pl3   1  UNL1       -0.2994
      8 C          -4.3539   -1.8433   -0.4946 C.3     1  UNL1        0.0149
      9 C          -5.4153   -1.9932    0.5267 C.3     1  UNL1       -0.0357
     10 C          -6.6838   -1.3871    0.0491 C.3     1  UNL1       -0.0349
     11 C          -6.4729   -0.6090   -1.2148 C.3     1  UNL1        0.0208
     12 N          -7.6873    0.0340   -1.6238 N.3     1  UNL1       -0.3259
     13 C          -5.3194    0.3985   -1.0187 C.3     1  UNL1        0.0300
     14 N          -2.1328    0.0808   -2.3022 N.ar    1  UNL1       -0.1959
     15 C          -0.7746    0.0976   -2.0747 C.ar    1  UNL1        0.1698
     16 C          -0.5806   -0.0469   -0.6936 C.ar    1  UNL1        0.1537
     17 C           0.7142   -0.2460   -0.2533 C.ar    1  UNL1        0.2829
     18 O           0.9041   -0.3767    0.9709 O.2     1  UNL1       -0.2652
     19 N           1.7890   -0.3012   -1.1050 N.ar    1  UNL1       -0.2516
     20 C           2.9897   -0.9390   -0.7206 C.3     1  UNL1        0.0906
     21 C           4.0865   -0.4391    0.0238 C.ar    1  UNL1        0.1497
     22 N           3.9703    0.2619    1.2524 N.ar    1  UNL1       -0.2347
     23 C           4.9974    0.5180    2.0671 C.ar    1  UNL1        0.0495
     24 C           4.7990    1.1685    3.4186 C.3     1  UNL1       -0.0216
     25 C           6.2650    0.0936    1.7217 C.ar    1  UNL1        0.0214
     26 C           7.3227    0.3038    2.4908 C.ar    1  UNL1       -0.0509
     27 C           8.6260   -0.0783    2.2491 C.ar    1  UNL1       -0.0610
     28 C           8.7898   -0.7669    1.0347 C.ar    1  UNL1       -0.0597
     29 C           7.6956   -0.9896    0.2320 C.ar    1  UNL1       -0.0356
     30 C           6.3967   -0.5972    0.4940 C.ar    1  UNL1        0.0748
     31 N           5.3389   -0.7996   -0.2253 N.ar    1  UNL1       -0.2302
     32 C           1.5422   -0.1183   -2.4216 C.ar    1  UNL1        0.3337
     33 O           2.5015   -0.1296   -3.1884 O.2     1  UNL1       -0.2462
     34 N           0.2702    0.0740   -2.8579 N.ar    1  UNL1       -0.2795
     35 C           0.0831    0.1907   -4.3010 C.3     1  UNL1        0.0181
     36 H          -3.1988    4.4672    1.2475 H       1  UNL1        0.0362
     37 H          -2.4163    4.3123    2.8955 H       1  UNL1        0.0362
     38 H          -1.4380    4.5924    1.3858 H       1  UNL1        0.0362
     39 H          -3.0859   -0.4289    1.5679 H       1  UNL1        0.0629
     40 H          -1.2624   -0.3977    1.8643 H       1  UNL1        0.0629
     41 H          -4.5076   -2.4673   -1.4228 H       1  UNL1        0.0464
     42 H          -3.4191   -2.1886   -0.0653 H       1  UNL1        0.0464
     43 H          -5.0956   -1.5240    1.4870 H       1  UNL1        0.0281
     44 H          -5.5748   -3.0900    0.7810 H       1  UNL1        0.0281
     45 H          -7.0826   -0.7190    0.8718 H       1  UNL1        0.0281
     46 H          -7.3998   -2.2305   -0.1895 H       1  UNL1        0.0281
     47 H          -6.1156   -1.3021   -2.0093 H       1  UNL1        0.0474
     48 H          -7.5608    1.0808   -1.6223 H       1  UNL1        0.1185
     49 H          -7.7543   -0.1911   -2.6680 H       1  UNL1        0.1185
     50 H          -5.2650    0.9069   -2.0258 H       1  UNL1        0.0480
     51 H          -5.5327    1.0977   -0.1884 H       1  UNL1        0.0480
     52 H           2.6687   -1.9725   -0.2225 H       1  UNL1        0.0575
     53 H           3.4205   -1.4580   -1.6997 H       1  UNL1        0.0575
     54 H           3.7906    1.5907    3.4844 H       1  UNL1        0.0293
     55 H           4.8067    0.2333    4.1306 H       1  UNL1        0.0293
     56 H           5.6269    1.7467    3.7542 H       1  UNL1        0.0293
     57 H           7.2540    0.8144    3.5047 H       1  UNL1        0.0625
     58 H           9.3842    0.1391    2.9266 H       1  UNL1        0.0618
     59 H           9.7615   -1.1050    0.7612 H       1  UNL1        0.0618
     60 H           7.8593   -1.5379   -0.7297 H       1  UNL1        0.0639
     61 H          -0.2195    1.2470   -4.5358 H       1  UNL1        0.0458
     62 H           1.0053   -0.0328   -4.8369 H       1  UNL1        0.0458
     63 H          -0.6969   -0.5532   -4.5694 H       1  UNL1        0.0458
@<TRIPOS>BOND
     1     1     2    1
     2     2     3    3
     3     3     4    1
     4     4     5    1
     5     5     6   ar
     6     6     7    1
     7     7     8    1
     8     8     9    1
     9     9    10    1
    10    10    11    1
    11    11    12    1
    12    11    13    1
    13     6    14   ar
    14    14    15   ar
    15    15    16   ar
    16    16    17   ar
    17    17    18    2
    18    17    19   ar
    19    19    20    1
    20    20    21    1
    21    21    22   ar
    22    22    23   ar
    23    23    24    1
    24    23    25   ar
    25    25    26   ar
    26    26    27   ar
    27    27    28   ar
    28    28    29   ar
    29    29    30   ar
    30    30    31   ar
    31    19    32   ar
    32    32    33    2
    33    32    34   ar
    34    34    35    1
    35    16     5   ar
    36    31    21   ar
    37    13     7    1
    38    34    15   ar
    39    30    25   ar
    40     1    36    1
    41     1    37    1
    42     1    38    1
    43     4    39    1
    44     4    40    1
    45     8    41    1
    46     8    42    1
    47     9    43    1
    48     9    44    1
    49    10    45    1
    50    10    46    1
    51    11    47    1
    52    12    48    1
    53    12    49    1
    54    13    50    1
    55    13    51    1
    56    20    52    1
    57    20    53    1
    58    24    54    1
    59    24    55    1
    60    24    56    1
    61    26    57    1
    62    27    58    1
    63    28    59    1
    64    29    60    1
    65    35    61    1
    66    35    62    1
    67    35    63    1
