
     RDKit          3D

 63 67  0  0  0  0  0  0  0  0999 V2000
   -2.3446    4.1153    1.8462 C   0  0  0  0  0  0  0  0  0  0  0  0
   -2.2499    2.6161    1.6648 C   0  0  0  0  0  0  0  0  0  0  0  0
   -2.1687    1.3849    1.4965 C   0  0  0  0  0  0  0  0  0  0  0  0
   -2.0899   -0.0921    1.2762 C   0  0  0  0  0  0  0  0  0  0  0  0
   -1.8352   -0.1269   -0.1783 N   0  0  0  0  0  0  0  0  0  0  0  0
   -2.7714   -0.0726   -1.1365 C   0  0  0  0  0  0  0  0  0  0  0  0
   -4.1535   -0.4145   -0.8812 N   0  0  0  0  0  0  0  0  0  0  0  0
   -4.3539   -1.8433   -0.4946 C   0  0  0  0  0  0  0  0  0  0  0  0
   -5.4153   -1.9932    0.5267 C   0  0  0  0  0  0  0  0  0  0  0  0
   -6.6838   -1.3871    0.0491 C   0  0  0  0  0  0  0  0  0  0  0  0
   -6.4729   -0.6090   -1.2148 C   0  0  1  0  0  0  0  0  0  0  0  0
   -7.6873    0.0340   -1.6238 N   0  0  0  0  0  0  0  0  0  0  0  0
   -5.3194    0.3985   -1.0187 C   0  0  0  0  0  0  0  0  0  0  0  0
   -2.1328    0.0808   -2.3022 N   0  0  0  0  0  0  0  0  0  0  0  0
   -0.7746    0.0976   -2.0747 C   0  0  0  0  0  0  0  0  0  0  0  0
   -0.5806   -0.0469   -0.6936 C   0  0  0  0  0  0  0  0  0  0  0  0
    0.7142   -0.2460   -0.2533 C   0  0  0  0  0  0  0  0  0  0  0  0
    0.9041   -0.3767    0.9709 O   0  0  0  0  0  0  0  0  0  0  0  0
    1.7890   -0.3012   -1.1050 N   0  0  0  0  0  0  0  0  0  0  0  0
    2.9897   -0.9390   -0.7206 C   0  0  0  0  0  0  0  0  0  0  0  0
    4.0865   -0.4391    0.0238 C   0  0  0  0  0  0  0  0  0  0  0  0
    3.9703    0.2619    1.2524 N   0  0  0  0  0  0  0  0  0  0  0  0
    4.9974    0.5180    2.0671 C   0  0  0  0  0  0  0  0  0  0  0  0
    4.7990    1.1685    3.4186 C   0  0  0  0  0  0  0  0  0  0  0  0
    6.2650    0.0936    1.7217 C   0  0  0  0  0  0  0  0  0  0  0  0
    7.3227    0.3038    2.4908 C   0  0  0  0  0  0  0  0  0  0  0  0
    8.6260   -0.0783    2.2491 C   0  0  0  0  0  0  0  0  0  0  0  0
    8.7898   -0.7669    1.0347 C   0  0  0  0  0  0  0  0  0  0  0  0
    7.6956   -0.9896    0.2320 C   0  0  0  0  0  0  0  0  0  0  0  0
    6.3967   -0.5972    0.4940 C   0  0  0  0  0  0  0  0  0  0  0  0
    5.3389   -0.7996   -0.2253 N   0  0  0  0  0  0  0  0  0  0  0  0
    1.5422   -0.1183   -2.4216 C   0  0  0  0  0  0  0  0  0  0  0  0
    2.5015   -0.1296   -3.1884 O   0  0  0  0  0  0  0  0  0  0  0  0
    0.2702    0.0740   -2.8579 N   0  0  0  0  0  0  0  0  0  0  0  0
    0.0831    0.1907   -4.3010 C   0  0  0  0  0  0  0  0  0  0  0  0
   -3.1988    4.4672    1.2475 H   0  0  0  0  0  0  0  0  0  0  0  0
   -2.4163    4.3123    2.8955 H   0  0  0  0  0  0  0  0  0  0  0  0
   -1.4380    4.5924    1.3858 H   0  0  0  0  0  0  0  0  0  0  0  0
   -3.0859   -0.4289    1.5679 H   0  0  0  0  0  0  0  0  0  0  0  0
   -1.2624   -0.3977    1.8643 H   0  0  0  0  0  0  0  0  0  0  0  0
   -4.5076   -2.4673   -1.4228 H   0  0  0  0  0  0  0  0  0  0  0  0
   -3.4191   -2.1886   -0.0653 H   0  0  0  0  0  0  0  0  0  0  0  0
   -5.0956   -1.5240    1.4870 H   0  0  0  0  0  0  0  0  0  0  0  0
   -5.5748   -3.0900    0.7810 H   0  0  0  0  0  0  0  0  0  0  0  0
   -7.0826   -0.7190    0.8718 H   0  0  0  0  0  0  0  0  0  0  0  0
   -7.3998   -2.2305   -0.1895 H   0  0  0  0  0  0  0  0  0  0  0  0
   -6.1156   -1.3021   -2.0093 H   0  0  0  0  0  0  0  0  0  0  0  0
   -7.5608    1.0808   -1.6223 H   0  0  0  0  0  0  0  0  0  0  0  0
   -7.7543   -0.1911   -2.6680 H   0  0  0  0  0  0  0  0  0  0  0  0
   -5.2650    0.9069   -2.0258 H   0  0  0  0  0  0  0  0  0  0  0  0
   -5.5327    1.0977   -0.1884 H   0  0  0  0  0  0  0  0  0  0  0  0
    2.6687   -1.9725   -0.2225 H   0  0  0  0  0  0  0  0  0  0  0  0
    3.4205   -1.4580   -1.6997 H   0  0  0  0  0  0  0  0  0  0  0  0
    3.7906    1.5907    3.4844 H   0  0  0  0  0  0  0  0  0  0  0  0
    4.8067    0.2333    4.1306 H   0  0  0  0  0  0  0  0  0  0  0  0
    5.6269    1.7467    3.7542 H   0  0  0  0  0  0  0  0  0  0  0  0
    7.2540    0.8144    3.5047 H   0  0  0  0  0  0  0  0  0  0  0  0
    9.3842    0.1391    2.9266 H   0  0  0  0  0  0  0  0  0  0  0  0
    9.7615   -1.1050    0.7612 H   0  0  0  0  0  0  0  0  0  0  0  0
    7.8593   -1.5379   -0.7297 H   0  0  0  0  0  0  0  0  0  0  0  0
   -0.2195    1.2470   -4.5358 H   0  0  0  0  0  0  0  0  0  0  0  0
    1.0053   -0.0328   -4.8369 H   0  0  0  0  0  0  0  0  0  0  0  0
   -0.6969   -0.5532   -4.5694 H   0  0  0  0  0  0  0  0  0  0  0  0
  1  2  1  0
  2  3  3  0
  3  4  1  0
  4  5  1  0
  5  6  1  0
  6  7  1  0
  7  8  1  0
  8  9  1  0
  9 10  1  0
 10 11  1  0
 11 12  1  0
 11 13  1  0
  6 14  2  0
 14 15  1  0
 15 16  2  0
 16 17  1  0
 17 18  2  0
 17 19  1  0
 19 20  1  0
 20 21  1  0
 21 22  2  0
 22 23  1  0
 23 24  1  0
 23 25  2  0
 25 26  1  0
 26 27  2  0
 27 28  1  0
 28 29  2  0
 29 30  1  0
 30 31  2  0
 19 32  1  0
 32 33  2  0
 32 34  1  0
 34 35  1  0
 16  5  1  0
 31 21  1  0
 13  7  1  0
 34 15  1  0
 30 25  1  0
  1 36  1  0
  1 37  1  0
  1 38  1  0
  4 39  1  0
  4 40  1  0
  8 41  1  0
  8 42  1  0
  9 43  1  0
  9 44  1  0
 10 45  1  0
 10 46  1  0
 11 47  1  6
 12 48  1  0
 12 49  1  0
 13 50  1  0
 13 51  1  0
 20 52  1  0
 20 53  1  0
 24 54  1  0
 24 55  1  0
 24 56  1  0
 26 57  1  0
 27 58  1  0
 28 59  1  0
 29 60  1  0
 35 61  1  0
 35 62  1  0
 35 63  1  0
M  END
$$$$
