@<TRIPOS>MOLECULE
*****
 37 38 0 0 0
SMALL
GASTEIGER

@<TRIPOS>ATOM
      1 N          -2.3892    0.3504   -0.2531 N.am    1  UNL1        0.0000
      2 C          -1.5916   -0.3720    0.6594 C.3     1  UNL1        0.0000
      3 C          -0.1916    0.1422    0.8610 C.3     1  UNL1        0.0000
      4 C           0.7025    0.1891   -0.2666 C.ar    1  UNL1        0.0000
      5 C           0.4329    0.3154   -1.6036 C.ar    1  UNL1        0.0000
      6 C           1.3401    0.3316   -2.6394 C.ar    1  UNL1        0.0000
      7 C           2.6662    0.2130   -2.3516 C.ar    1  UNL1        0.0000
      8 C           3.0248    0.0838   -1.0446 C.ar    1  UNL1        0.0000
      9 C           4.3914   -0.0191   -0.8181 C.ar    1  UNL1        0.0000
     10 C           4.8699   -0.1394    0.4652 C.ar    1  UNL1        0.0000
     11 C           3.9594   -0.1551    1.5001 C.ar    1  UNL1        0.0000
     12 C           2.6238   -0.0510    1.2135 C.ar    1  UNL1        0.0000
     13 C           2.0838    0.0724   -0.0481 C.ar    1  UNL1        0.0000
     14 B          -2.2725   -0.5184    2.1085 B       1  UNL1        0.0000
     15 O          -1.1820   -0.8567    3.0336 O.3     1  UNL1        0.0000
     16 O          -2.7744    0.7814    2.5241 O.3     1  UNL1        0.0000
     17 O          -3.2129   -1.6117    2.1860 O.3     1  UNL1        0.0000
     18 C          -3.1611   -0.3867   -1.2096 C.2     1  UNL1        0.0000
     19 C          -4.0249    0.3299   -2.1922 C.3     1  UNL1        0.0000
     20 O          -3.1271   -1.6399   -1.2398 O.2     1  UNL1        0.0000
     21 H          -2.4109    1.4103   -0.2231 H       1  UNL1        0.0000
     22 H          -1.5174   -1.4243    0.2983 H       1  UNL1        0.0000
     23 H           0.2265   -0.3230    1.7816 H       1  UNL1        0.0000
     24 H          -0.3107    1.2099    1.1972 H       1  UNL1        0.0000
     25 H          -0.5903    0.4227   -1.9082 H       1  UNL1        0.0000
     26 H           1.0283    0.4337   -3.6731 H       1  UNL1        0.0000
     27 H           3.3846    0.2202   -3.1555 H       1  UNL1        0.0000
     28 H           5.1074   -0.0133   -1.6150 H       1  UNL1        0.0000
     29 H           5.9223   -0.2187    0.6459 H       1  UNL1        0.0000
     30 H           4.3676   -0.2494    2.4915 H       1  UNL1        0.0000
     31 H           2.0256   -0.0643    2.0903 H       1  UNL1        0.0000
     32 H          -0.8850   -1.7928    2.8369 H       1  UNL1        0.0000
     33 H          -2.0446    1.4346    2.3659 H       1  UNL1        0.0000
     34 H          -3.6215   -1.6035    3.0875 H       1  UNL1        0.0000
     35 H          -4.8907   -0.3503   -2.4252 H       1  UNL1        0.0000
     36 H          -4.4972    1.1590   -1.6080 H       1  UNL1        0.0000
     37 H          -3.4616    0.6496   -3.0718 H       1  UNL1        0.0000
@<TRIPOS>UNITY_ATOM_ATTR
14 1
charge -1
@<TRIPOS>BOND
     1     1     2    1
     2     2     3    1
     3     3     4    1
     4     4     5   ar
     5     5     6   ar
     6     6     7   ar
     7     7     8   ar
     8     8     9   ar
     9     9    10   ar
    10    10    11   ar
    11    11    12   ar
    12    12    13   ar
    13     2    14    1
    14    14    15    1
    15    14    16    1
    16    14    17    1
    17     1    18   am
    18    18    19    1
    19    18    20    2
    20    13     4   ar
    21    13     8   ar
    22     1    21    1
    23     2    22    1
    24     3    23    1
    25     3    24    1
    26     5    25    1
    27     6    26    1
    28     7    27    1
    29     9    28    1
    30    10    29    1
    31    11    30    1
    32    12    31    1
    33    15    32    1
    34    16    33    1
    35    17    34    1
    36    19    35    1
    37    19    36    1
    38    19    37    1
