
     RDKit          3D

 99101  0  0  0  0  0  0  0  0999 V2000
    6.8926   -3.1619   -2.1988 C   0  0  0  0  0  0  0  0  0  0  0  0
    6.0271   -2.6303   -1.0306 C   0  0  0  0  0  0  0  0  0  0  0  0
    5.4177   -3.7995   -0.3485 C   0  0  0  0  0  0  0  0  0  0  0  0
    7.0589   -1.9962   -0.1139 C   0  0  0  0  0  0  0  0  0  0  0  0
    4.8703   -1.4405   -1.6443 S   0  0  0  0  0  6  0  0  0  0  0  0
    5.5741   -0.5615   -2.6029 O   0  0  0  0  0  0  0  0  0  0  0  0
    3.9750   -2.3029   -2.6034 O   0  0  0  0  0  0  0  0  0  0  0  0
    3.7740   -0.7593   -0.5369 C   0  0  0  0  0  0  0  0  0  0  0  0
    4.0439   -0.0013    0.6550 C   0  0  0  0  0  0  0  0  0  0  0  0
    4.7309    1.2753    0.7459 C   0  0  0  0  0  0  0  0  0  0  0  0
    6.1246    1.4112    0.3134 C   0  0  0  0  0  0  0  0  0  0  0  0
    7.1388    1.1229    1.1731 C   0  0  0  0  0  0  0  0  0  0  0  0
    8.4444    1.3023    0.7797 C   0  0  0  0  0  0  0  0  0  0  0  0
    8.7124    1.7720   -0.4817 C   0  0  0  0  0  0  0  0  0  0  0  0
    7.7013    2.0766   -1.3855 C   0  0  0  0  0  0  0  0  0  0  0  0
    6.4082    1.8816   -0.9478 C   0  0  0  0  0  0  0  0  0  0  0  0
    2.6831    0.1442    1.3602 C   0  0  0  0  0  0  0  0  0  0  0  0
    2.5073   -0.4340    2.4601 O   0  0  0  0  0  0  0  0  0  0  0  0
    1.6452    0.8993    0.8070 N   0  0  0  0  0  0  0  0  0  0  0  0
    0.3840    0.9755    1.5275 C   0  0  0  0  0  0  0  0  0  0  0  0
    0.2744    2.3670    2.1098 C   0  0  0  0  0  0  0  0  0  0  0  0
    0.3376    3.3469    0.9967 C   0  0  0  0  0  0  0  0  0  0  0  0
   -0.6525    3.8975    0.2203 C   0  0  0  0  0  0  0  0  0  0  0  0
   -0.0999    4.7413   -0.6695 N   0  0  0  0  0  0  0  0  0  0  0  0
    1.2390    4.7504   -0.4850 C   0  0  0  0  0  0  0  0  0  0  0  0
    1.4872    3.9054    0.5227 N   0  0  0  0  0  0  0  0  0  0  0  0
   -0.7988    0.7454    0.6754 C   0  0  0  0  0  0  0  0  0  0  0  0
   -0.6573    0.6725   -0.5799 O   0  0  0  0  0  0  0  0  0  0  0  0
   -2.1300    0.5865    1.1554 N   0  0  0  0  0  0  0  0  0  0  0  0
   -3.2755    0.3525    0.3046 C   0  0  1  0  0  0  0  0  0  0  0  0
   -3.6026   -1.0825    0.1584 C   0  0  0  0  0  0  0  0  0  0  0  0
   -3.8826   -1.9063    1.3531 C   0  0  0  0  0  0  0  0  0  0  0  0
   -4.1786   -3.3092    0.8264 C   0  0  0  0  0  0  0  0  0  0  0  0
   -4.7696   -4.2295    1.8252 C   0  0  0  0  0  0  0  0  0  0  0  0
   -6.0082   -3.5356    2.4044 C   0  0  0  0  0  0  0  0  0  0  0  0
   -5.4664   -2.3961    3.2275 C   0  0  0  0  0  0  0  0  0  0  0  0
   -4.9289   -1.3555    2.2344 C   0  0  0  0  0  0  0  0  0  0  0  0
   -4.4418    1.2135    0.5711 C   0  0  1  0  0  0  0  0  0  0  0  0
   -4.1073    2.5942    0.4357 O   0  0  0  0  0  0  0  0  0  0  0  0
   -5.5659    1.0430   -0.4749 C   0  0  1  0  0  0  0  0  0  0  0  0
   -6.5815    1.9361   -0.0689 O   0  0  0  0  0  0  0  0  0  0  0  0
   -5.0893    1.4363   -1.8356 C   0  0  2  0  0  0  0  0  0  0  0  0
   -4.5492    2.7228   -1.8566 O   0  0  0  0  0  0  0  0  0  0  0  0
   -6.2280    1.4485   -2.8487 C   0  0  2  0  0  0  0  0  0  0  0  0
   -7.2115    2.3579   -2.5432 O   0  0  0  0  0  0  0  0  0  0  0  0
   -6.7353    0.0589   -3.0622 C   0  0  0  0  0  0  0  0  0  0  0  0
   -7.6496    0.0509   -4.1284 O   0  0  0  0  0  0  0  0  0  0  0  0
    7.4951   -2.3236   -2.6237 H   0  0  0  0  0  0  0  0  0  0  0  0
    7.6263   -3.8637   -1.7337 H   0  0  0  0  0  0  0  0  0  0  0  0
    6.2555   -3.6070   -2.9643 H   0  0  0  0  0  0  0  0  0  0  0  0
    4.5535   -4.2362   -0.8776 H   0  0  0  0  0  0  0  0  0  0  0  0
    5.1828   -3.5438    0.7257 H   0  0  0  0  0  0  0  0  0  0  0  0
    6.1861   -4.6082   -0.2776 H   0  0  0  0  0  0  0  0  0  0  0  0
    6.6656   -1.7090    0.8684 H   0  0  0  0  0  0  0  0  0  0  0  0
    7.4302   -1.0731   -0.6231 H   0  0  0  0  0  0  0  0  0  0  0  0
    7.9629   -2.6417   -0.0221 H   0  0  0  0  0  0  0  0  0  0  0  0
    2.9774   -0.2005   -1.1734 H   0  0  0  0  0  0  0  0  0  0  0  0
    3.0923   -1.6411   -0.1897 H   0  0  0  0  0  0  0  0  0  0  0  0
    4.6121   -0.7107    1.3723 H   0  0  0  0  0  0  0  0  0  0  0  0
    4.7612    1.5590    1.8566 H   0  0  0  0  0  0  0  0  0  0  0  0
    4.1112    2.1457    0.3519 H   0  0  0  0  0  0  0  0  0  0  0  0
    6.9569    0.7419    2.1962 H   0  0  0  0  0  0  0  0  0  0  0  0
    9.2526    1.0644    1.4880 H   0  0  0  0  0  0  0  0  0  0  0  0
    9.7500    1.9176   -0.7987 H   0  0  0  0  0  0  0  0  0  0  0  0
    7.9019    2.4449   -2.3768 H   0  0  0  0  0  0  0  0  0  0  0  0
    5.5997    2.1228   -1.6616 H   0  0  0  0  0  0  0  0  0  0  0  0
    1.8008    1.3848   -0.1001 H   0  0  0  0  0  0  0  0  0  0  0  0
    0.3889    0.2830    2.4044 H   0  0  0  0  0  0  0  0  0  0  0  0
   -0.6968    2.5027    2.6375 H   0  0  0  0  0  0  0  0  0  0  0  0
    1.1386    2.5663    2.7841 H   0  0  0  0  0  0  0  0  0  0  0  0
   -1.6989    3.7051    0.2939 H   0  0  0  0  0  0  0  0  0  0  0  0
    1.9866    5.3186   -1.0319 H   0  0  0  0  0  0  0  0  0  0  0  0
    2.4360    3.7050    0.8982 H   0  0  0  0  0  0  0  0  0  0  0  0
   -2.2653    0.6458    2.1879 H   0  0  0  0  0  0  0  0  0  0  0  0
   -2.9558    0.6452   -0.7844 H   0  0  0  0  0  0  0  0  0  0  0  0
   -4.4523   -1.2387   -0.5753 H   0  0  0  0  0  0  0  0  0  0  0  0
   -2.7403   -1.5981   -0.4057 H   0  0  0  0  0  0  0  0  0  0  0  0
   -2.9144   -2.0123    1.9398 H   0  0  0  0  0  0  0  0  0  0  0  0
   -4.8562   -3.2385   -0.0535 H   0  0  0  0  0  0  0  0  0  0  0  0
   -3.2122   -3.7195    0.4638 H   0  0  0  0  0  0  0  0  0  0  0  0
   -5.1962   -5.1038    1.2531 H   0  0  0  0  0  0  0  0  0  0  0  0
   -4.0903   -4.5894    2.6057 H   0  0  0  0  0  0  0  0  0  0  0  0
   -6.6403   -4.2314    2.9548 H   0  0  0  0  0  0  0  0  0  0  0  0
   -6.5542   -3.1161    1.5324 H   0  0  0  0  0  0  0  0  0  0  0  0
   -6.2572   -1.9059    3.8056 H   0  0  0  0  0  0  0  0  0  0  0  0
   -4.6577   -2.7356    3.9042 H   0  0  0  0  0  0  0  0  0  0  0  0
   -5.7905   -1.0019    1.6781 H   0  0  0  0  0  0  0  0  0  0  0  0
   -4.4570   -0.5919    2.9233 H   0  0  0  0  0  0  0  0  0  0  0  0
   -4.9314    1.1588    1.5360 H   0  0  0  0  0  0  0  0  0  0  0  0
   -4.8545    3.1699    0.7274 H   0  0  0  0  0  0  0  0  0  0  0  0
   -5.9449    0.0288   -0.4207 H   0  0  0  0  0  0  0  0  0  0  0  0
   -6.8601    1.6364    0.8311 H   0  0  0  0  0  0  0  0  0  0  0  0
   -4.3337    0.7448   -2.2379 H   0  0  0  0  0  0  0  0  0  0  0  0
   -4.2004    2.9343   -2.7577 H   0  0  0  0  0  0  0  0  0  0  0  0
   -5.7481    1.8231   -3.8019 H   0  0  0  0  0  0  0  0  0  0  0  0
   -6.9915    3.2891   -2.7279 H   0  0  0  0  0  0  0  0  0  0  0  0
   -5.9000   -0.6121   -3.3554 H   0  0  0  0  0  0  0  0  0  0  0  0
   -7.2578   -0.3289   -2.1782 H   0  0  0  0  0  0  0  0  0  0  0  0
   -8.5078    0.4586   -3.8295 H   0  0  0  0  0  0  0  0  0  0  0  0
  1  2  1  0
  2  3  1  0
  2  4  1  0
  2  5  1  0
  5  6  2  0
  5  7  2  0
  5  8  1  0
  8  9  1  0
  9 10  1  0
 10 11  1  0
 11 12  2  0
 12 13  1  0
 13 14  2  0
 14 15  1  0
 15 16  2  0
  9 17  1  0
 17 18  2  0
 17 19  1  0
 19 20  1  0
 20 21  1  0
 21 22  1  0
 22 23  2  0
 23 24  1  0
 24 25  2  0
 25 26  1  0
 20 27  1  0
 27 28  2  0
 27 29  1  0
 29 30  1  0
 30 31  1  0
 31 32  1  0
 32 33  1  0
 33 34  1  0
 34 35  1  0
 35 36  1  0
 36 37  1  0
 30 38  1  0
 38 39  1  0
 38 40  1  0
 40 41  1  0
 40 42  1  0
 42 43  1  0
 42 44  1  0
 44 45  1  0
 44 46  1  0
 46 47  1  0
 16 11  1  0
 26 22  1  0
 37 32  1  0
  1 48  1  0
  1 49  1  0
  1 50  1  0
  3 51  1  0
  3 52  1  0
  3 53  1  0
  4 54  1  0
  4 55  1  0
  4 56  1  0
  8 57  1  0
  8 58  1  0
  9 59  1  0
 10 60  1  0
 10 61  1  0
 12 62  1  0
 13 63  1  0
 14 64  1  0
 15 65  1  0
 16 66  1  0
 19 67  1  0
 20 68  1  0
 21 69  1  0
 21 70  1  0
 23 71  1  0
 25 72  1  0
 26 73  1  0
 29 74  1  0
 30 75  1  6
 31 76  1  0
 31 77  1  0
 32 78  1  0
 33 79  1  0
 33 80  1  0
 34 81  1  0
 34 82  1  0
 35 83  1  0
 35 84  1  0
 36 85  1  0
 36 86  1  0
 37 87  1  0
 37 88  1  0
 38 89  1  1
 39 90  1  0
 40 91  1  6
 41 92  1  0
 42 93  1  6
 43 94  1  0
 44 95  1  6
 45 96  1  0
 46 97  1  0
 46 98  1  0
 47 99  1  0
M  END
$$$$
