@<TRIPOS>MOLECULE
*****
 99 101 0 0 0
SMALL
GASTEIGER

@<TRIPOS>ATOM
      1 C           6.8926   -3.1619   -2.1988 C.3     1  UNL1       -0.0405
      2 C           6.0271   -2.6303   -1.0306 C.3     1  UNL1        0.0795
      3 C           5.4177   -3.7995   -0.3485 C.3     1  UNL1       -0.0405
      4 C           7.0589   -1.9962   -0.1139 C.3     1  UNL1       -0.0405
      5 S           4.8703   -1.4405   -1.6443 S.O2    1  UNL1       -0.0255
      6 O           5.5741   -0.5615   -2.6029 O.2     1  UNL1       -0.1738
      7 O           3.9750   -2.3029   -2.6034 O.2     1  UNL1       -0.1738
      8 C           3.7740   -0.7593   -0.5369 C.3     1  UNL1        0.0777
      9 C           4.0439   -0.0013    0.6550 C.3     1  UNL1        0.0588
     10 C           4.7309    1.2753    0.7459 C.3     1  UNL1       -0.0151
     11 C           6.1246    1.4112    0.3134 C.ar    1  UNL1       -0.0466
     12 C           7.1388    1.1229    1.1731 C.ar    1  UNL1       -0.0586
     13 C           8.4444    1.3023    0.7797 C.ar    1  UNL1       -0.0615
     14 C           8.7124    1.7720   -0.4817 C.ar    1  UNL1       -0.0617
     15 C           7.7013    2.0766   -1.3855 C.ar    1  UNL1       -0.0615
     16 C           6.4082    1.8816   -0.9478 C.ar    1  UNL1       -0.0586
     17 C           2.6831    0.1442    1.3602 C.2     1  UNL1        0.2186
     18 O           2.5073   -0.4340    2.4601 O.2     1  UNL1       -0.2754
     19 N           1.6452    0.8993    0.8070 N.am    1  UNL1       -0.3034
     20 C           0.3840    0.9755    1.5275 C.3     1  UNL1        0.1047
     21 C           0.2744    2.3670    2.1098 C.3     1  UNL1        0.0160
     22 C           0.3376    3.3469    0.9967 C.ar    1  UNL1        0.0375
     23 C          -0.6525    3.8975    0.2203 C.ar    1  UNL1        0.0485
     24 N          -0.0999    4.7413   -0.6695 N.ar    1  UNL1       -0.2440
     25 C           1.2390    4.7504   -0.4850 C.ar    1  UNL1        0.0935
     26 N           1.4872    3.9054    0.5227 N.ar    1  UNL1       -0.3481
     27 C          -0.7988    0.7454    0.6754 C.2     1  UNL1        0.2340
     28 O          -0.6573    0.6725   -0.5799 O.2     1  UNL1       -0.2738
     29 N          -2.1300    0.5865    1.1554 N.am    1  UNL1       -0.3084
     30 C          -3.2755    0.3525    0.3046 C.3     1  UNL1        0.0518
     31 C          -3.6026   -1.0825    0.1584 C.3     1  UNL1       -0.0292
     32 C          -3.8826   -1.9063    1.3531 C.3     1  UNL1       -0.0393
     33 C          -4.1786   -3.3092    0.8264 C.3     1  UNL1       -0.0502
     34 C          -4.7696   -4.2295    1.8252 C.3     1  UNL1       -0.0528
     35 C          -6.0082   -3.5356    2.4044 C.3     1  UNL1       -0.0530
     36 C          -5.4664   -2.3961    3.2275 C.3     1  UNL1       -0.0528
     37 C          -4.9289   -1.3555    2.2344 C.3     1  UNL1       -0.0502
     38 C          -4.4418    1.2135    0.5711 C.3     1  UNL1        0.1018
     39 O          -4.1073    2.5942    0.4357 O.3     1  UNL1       -0.3873
     40 C          -5.5659    1.0430   -0.4749 C.3     1  UNL1        0.1110
     41 O          -6.5815    1.9361   -0.0689 O.3     1  UNL1       -0.3865
     42 C          -5.0893    1.4363   -1.8356 C.3     1  UNL1        0.1114
     43 O          -4.5492    2.7228   -1.8566 O.3     1  UNL1       -0.3865
     44 C          -6.2280    1.4485   -2.8487 C.3     1  UNL1        0.1065
     45 O          -7.2115    2.3579   -2.5432 O.3     1  UNL1       -0.3869
     46 C          -6.7353    0.0589   -3.0622 C.3     1  UNL1        0.0727
     47 O          -7.6496    0.0509   -4.1284 O.3     1  UNL1       -0.3924
     48 H           7.4951   -2.3236   -2.6237 H       1  UNL1        0.0251
     49 H           7.6263   -3.8637   -1.7337 H       1  UNL1        0.0251
     50 H           6.2555   -3.6070   -2.9643 H       1  UNL1        0.0251
     51 H           4.5535   -4.2362   -0.8776 H       1  UNL1        0.0251
     52 H           5.1828   -3.5438    0.7257 H       1  UNL1        0.0251
     53 H           6.1861   -4.6082   -0.2776 H       1  UNL1        0.0251
     54 H           6.6656   -1.7090    0.8684 H       1  UNL1        0.0251
     55 H           7.4302   -1.0731   -0.6231 H       1  UNL1        0.0251
     56 H           7.9629   -2.6417   -0.0221 H       1  UNL1        0.0251
     57 H           2.9774   -0.2005   -1.1734 H       1  UNL1        0.0507
     58 H           3.0923   -1.6411   -0.1897 H       1  UNL1        0.0507
     59 H           4.6121   -0.7107    1.3723 H       1  UNL1        0.0413
     60 H           4.7612    1.5590    1.8566 H       1  UNL1        0.0321
     61 H           4.1112    2.1457    0.3519 H       1  UNL1        0.0321
     62 H           6.9569    0.7419    2.1962 H       1  UNL1        0.0620
     63 H           9.2526    1.0644    1.4880 H       1  UNL1        0.0618
     64 H           9.7500    1.9176   -0.7987 H       1  UNL1        0.0618
     65 H           7.9019    2.4449   -2.3768 H       1  UNL1        0.0618
     66 H           5.5997    2.1228   -1.6616 H       1  UNL1        0.0620
     67 H           1.8008    1.3848   -0.1001 H       1  UNL1        0.1495
     68 H           0.3889    0.2830    2.4044 H       1  UNL1        0.0598
     69 H          -0.6968    2.5027    2.6375 H       1  UNL1        0.0351
     70 H           1.1386    2.5663    2.7841 H       1  UNL1        0.0351
     71 H          -1.6989    3.7051    0.2939 H       1  UNL1        0.0848
     72 H           1.9866    5.3186   -1.0319 H       1  UNL1        0.1027
     73 H           2.4360    3.7050    0.8982 H       1  UNL1        0.1665
     74 H          -2.2653    0.6458    2.1879 H       1  UNL1        0.1491
     75 H          -2.9558    0.6452   -0.7844 H       1  UNL1        0.0525
     76 H          -4.4523   -1.2387   -0.5753 H       1  UNL1        0.0287
     77 H          -2.7403   -1.5981   -0.4057 H       1  UNL1        0.0287
     78 H          -2.9144   -2.0123    1.9398 H       1  UNL1        0.0301
     79 H          -4.8562   -3.2385   -0.0535 H       1  UNL1        0.0268
     80 H          -3.2122   -3.7195    0.4638 H       1  UNL1        0.0268
     81 H          -5.1962   -5.1038    1.2531 H       1  UNL1        0.0265
     82 H          -4.0903   -4.5894    2.6057 H       1  UNL1        0.0265
     83 H          -6.6403   -4.2314    2.9548 H       1  UNL1        0.0265
     84 H          -6.5542   -3.1161    1.5324 H       1  UNL1        0.0265
     85 H          -6.2572   -1.9059    3.8056 H       1  UNL1        0.0265
     86 H          -4.6577   -2.7356    3.9042 H       1  UNL1        0.0265
     87 H          -5.7905   -1.0019    1.6781 H       1  UNL1        0.0268
     88 H          -4.4570   -0.5919    2.9233 H       1  UNL1        0.0268
     89 H          -4.9314    1.1588    1.5360 H       1  UNL1        0.0638
     90 H          -4.8545    3.1699    0.7274 H       1  UNL1        0.2100
     91 H          -5.9449    0.0288   -0.4207 H       1  UNL1        0.0646
     92 H          -6.8601    1.6364    0.8311 H       1  UNL1        0.2100
     93 H          -4.3337    0.7448   -2.2379 H       1  UNL1        0.0647
     94 H          -4.2004    2.9343   -2.7577 H       1  UNL1        0.2100
     95 H          -5.7481    1.8231   -3.8019 H       1  UNL1        0.0643
     96 H          -6.9915    3.2891   -2.7279 H       1  UNL1        0.2100
     97 H          -5.9000   -0.6121   -3.3554 H       1  UNL1        0.0584
     98 H          -7.2578   -0.3289   -2.1782 H       1  UNL1        0.0584
     99 H          -8.5078    0.4586   -3.8295 H       1  UNL1        0.2095
@<TRIPOS>BOND
     1     1     2    1
     2     2     3    1
     3     2     4    1
     4     2     5    1
     5     5     6    2
     6     5     7    2
     7     5     8    1
     8     8     9    1
     9     9    10    1
    10    10    11    1
    11    11    12   ar
    12    12    13   ar
    13    13    14   ar
    14    14    15   ar
    15    15    16   ar
    16     9    17    1
    17    17    18    2
    18    17    19   am
    19    19    20    1
    20    20    21    1
    21    21    22    1
    22    22    23   ar
    23    23    24   ar
    24    24    25   ar
    25    25    26   ar
    26    20    27    1
    27    27    28    2
    28    27    29   am
    29    29    30    1
    30    30    31    1
    31    31    32    1
    32    32    33    1
    33    33    34    1
    34    34    35    1
    35    35    36    1
    36    36    37    1
    37    30    38    1
    38    38    39    1
    39    38    40    1
    40    40    41    1
    41    40    42    1
    42    42    43    1
    43    42    44    1
    44    44    45    1
    45    44    46    1
    46    46    47    1
    47    16    11   ar
    48    26    22   ar
    49    37    32    1
    50     1    48    1
    51     1    49    1
    52     1    50    1
    53     3    51    1
    54     3    52    1
    55     3    53    1
    56     4    54    1
    57     4    55    1
    58     4    56    1
    59     8    57    1
    60     8    58    1
    61     9    59    1
    62    10    60    1
    63    10    61    1
    64    12    62    1
    65    13    63    1
    66    14    64    1
    67    15    65    1
    68    16    66    1
    69    19    67    1
    70    20    68    1
    71    21    69    1
    72    21    70    1
    73    23    71    1
    74    25    72    1
    75    26    73    1
    76    29    74    1
    77    30    75    1
    78    31    76    1
    79    31    77    1
    80    32    78    1
    81    33    79    1
    82    33    80    1
    83    34    81    1
    84    34    82    1
    85    35    83    1
    86    35    84    1
    87    36    85    1
    88    36    86    1
    89    37    87    1
    90    37    88    1
    91    38    89    1
    92    39    90    1
    93    40    91    1
    94    41    92    1
    95    42    93    1
    96    43    94    1
    97    44    95    1
    98    45    96    1
    99    46    97    1
   100    46    98    1
   101    47    99    1
