
     RDKit          3D

 63 69  0  0  0  0  0  0  0  0999 V2000
    2.3509    2.6664   -3.2118 O   0  0  0  0  0  0  0  0  0  0  0  0
    3.3206    2.0744   -2.6198 C   0  0  0  0  0  0  0  0  0  0  0  0
    4.6880    2.3160   -2.8573 N   0  0  0  0  0  0  0  0  0  0  0  0
    5.4088    1.4650   -2.0110 C   0  0  0  0  0  0  0  0  0  0  0  0
    6.6721    1.3649   -1.9114 O   0  0  0  0  0  0  0  0  0  0  0  0
    4.4319    0.6682   -1.2206 C   0  0  0  0  0  0  0  0  0  0  0  0
    4.8892   -0.3353   -0.2538 C   0  0  0  0  0  0  0  0  0  0  0  0
    4.6073   -1.6646   -0.1929 C   0  0  0  0  0  0  0  0  0  0  0  0
    5.2365   -2.1637    0.8995 N   0  0  0  0  0  0  0  0  0  0  0  0
    5.8986   -1.1702    1.5101 C   0  0  0  0  0  0  0  0  0  0  0  0
    6.6677   -1.2048    2.6465 C   0  0  0  0  0  0  0  0  0  0  0  0
    7.2564   -0.0412    3.0971 C   0  0  0  0  0  0  0  0  0  0  0  0
    7.0142    1.0875    2.3462 C   0  0  0  0  0  0  0  0  0  0  0  0
    6.2444    1.0978    1.2173 C   0  0  0  0  0  0  0  0  0  0  0  0
    5.6851   -0.0505    0.8029 N   0  0  0  0  0  0  0  0  0  0  0  0
    3.2216    1.0286   -1.5804 C   0  0  0  0  0  0  0  0  0  0  0  0
    1.9342    0.5366   -1.1139 C   0  0  0  0  0  0  0  0  0  0  0  0
    1.4484   -0.7424   -1.0772 C   0  0  0  0  0  0  0  0  0  0  0  0
    0.2318   -0.6969   -0.5394 N   0  0  0  0  0  0  0  0  0  0  0  0
   -0.0920    0.5915   -0.2231 C   0  0  0  0  0  0  0  0  0  0  0  0
   -1.2172    1.1127    0.3411 C   0  0  0  0  0  0  0  0  0  0  0  0
   -1.2280    2.5129    0.5449 C   0  0  0  0  0  0  0  0  0  0  0  0
   -0.1654    3.3081    0.1937 C   0  0  0  0  0  0  0  0  0  0  0  0
    0.9551    2.7749   -0.3723 C   0  0  0  0  0  0  0  0  0  0  0  0
    0.9705    1.4054   -0.5741 C   0  0  0  0  0  0  0  0  0  0  0  0
   -2.5199    0.5529    0.7831 C   0  0  0  0  0  0  0  0  0  0  0  0
   -2.5076   -0.8620    0.8848 N   0  0  0  0  0  0  0  0  0  0  0  0
   -3.7098   -1.5875    0.8531 C   0  0  0  0  0  0  0  0  0  0  0  0
   -3.4788   -2.8901    0.8529 O   0  0  0  0  0  0  0  0  0  0  0  0
   -5.0349   -1.2293    0.8217 N   0  0  0  0  0  0  0  0  0  0  0  0
   -5.6119    0.0674    0.9252 C   0  0  0  0  0  0  0  0  0  0  0  0
   -6.2921    0.4515   -0.3888 C   0  0  0  0  0  0  0  0  0  0  0  0
   -7.1850   -0.6845   -0.8512 C   0  0  0  0  0  0  0  0  0  0  0  0
   -6.5586   -2.0334   -0.7924 C   0  0  0  0  0  0  0  0  0  0  0  0
   -6.0147   -2.3486    0.5845 C   0  0  0  0  0  0  0  0  0  0  0  0
   -1.2883   -1.6744    1.0581 C   0  0  0  0  0  0  0  0  0  0  0  0
   -0.5963   -1.8754   -0.2994 C   0  0  0  0  0  0  0  0  0  0  0  0
    5.0891    3.0118   -3.5476 H   0  0  0  0  0  0  0  0  0  0  0  0
    4.0072   -2.2371   -0.8914 H   0  0  0  0  0  0  0  0  0  0  0  0
    6.8247   -2.1401    3.2053 H   0  0  0  0  0  0  0  0  0  0  0  0
    7.8689   -0.0261    3.9864 H   0  0  0  0  0  0  0  0  0  0  0  0
    7.4633    2.0274    2.6721 H   0  0  0  0  0  0  0  0  0  0  0  0
    6.0603    2.0064    0.6412 H   0  0  0  0  0  0  0  0  0  0  0  0
    1.8911   -1.6634   -1.4121 H   0  0  0  0  0  0  0  0  0  0  0  0
   -2.1052    2.9375    0.9884 H   0  0  0  0  0  0  0  0  0  0  0  0
   -0.1625    4.3856    0.3459 H   0  0  0  0  0  0  0  0  0  0  0  0
    1.8172    3.3614   -0.6583 H   0  0  0  0  0  0  0  0  0  0  0  0
   -2.7778    1.0232    1.7798 H   0  0  0  0  0  0  0  0  0  0  0  0
   -3.2543    0.8938   -0.0248 H   0  0  0  0  0  0  0  0  0  0  0  0
   -6.4552    0.0297    1.7260 H   0  0  0  0  0  0  0  0  0  0  0  0
   -4.9735    0.8337    1.2701 H   0  0  0  0  0  0  0  0  0  0  0  0
   -6.9332    1.3269   -0.1738 H   0  0  0  0  0  0  0  0  0  0  0  0
   -5.5790    0.7326   -1.1713 H   0  0  0  0  0  0  0  0  0  0  0  0
   -7.4163   -0.4662   -1.9329 H   0  0  0  0  0  0  0  0  0  0  0  0
   -8.1647   -0.6783   -0.3422 H   0  0  0  0  0  0  0  0  0  0  0  0
   -5.7360   -2.1328   -1.5312 H   0  0  0  0  0  0  0  0  0  0  0  0
   -7.3687   -2.7775   -0.9877 H   0  0  0  0  0  0  0  0  0  0  0  0
   -5.4646   -3.2830    0.5393 H   0  0  0  0  0  0  0  0  0  0  0  0
   -6.7935   -2.3517    1.3483 H   0  0  0  0  0  0  0  0  0  0  0  0
   -0.5884   -1.1423    1.6971 H   0  0  0  0  0  0  0  0  0  0  0  0
   -1.6034   -2.6726    1.3959 H   0  0  0  0  0  0  0  0  0  0  0  0
    0.0423   -2.7654   -0.1905 H   0  0  0  0  0  0  0  0  0  0  0  0
   -1.3208   -2.0613   -1.1112 H   0  0  0  0  0  0  0  0  0  0  0  0
  1  2  2  0
  2  3  1  0
  3  4  1  0
  4  5  2  0
  4  6  1  0
  6  7  1  0
  7  8  2  0
  8  9  1  0
  9 10  2  0
 10 11  1  0
 11 12  2  0
 12 13  1  0
 13 14  2  0
 14 15  1  0
  6 16  2  0
 16 17  1  0
 17 18  2  0
 18 19  1  0
 19 20  1  0
 20 21  2  0
 21 22  1  0
 22 23  2  0
 23 24  1  0
 24 25  2  0
 21 26  1  0
 26 27  1  0
 27 28  1  0
 28 29  2  0
 28 30  1  0
 30 31  1  0
 31 32  1  0
 32 33  1  0
 33 34  1  0
 34 35  1  0
 27 36  1  0
 36 37  1  0
 16  2  1  0
 25 17  1  0
 35 30  1  0
 15  7  1  0
 37 19  1  0
 15 10  1  0
 25 20  1  0
  3 38  1  0
  8 39  1  0
 11 40  1  0
 12 41  1  0
 13 42  1  0
 14 43  1  0
 18 44  1  0
 22 45  1  0
 23 46  1  0
 24 47  1  0
 26 48  1  0
 26 49  1  0
 31 50  1  0
 31 51  1  0
 32 52  1  0
 32 53  1  0
 33 54  1  0
 33 55  1  0
 34 56  1  0
 34 57  1  0
 35 58  1  0
 35 59  1  0
 36 60  1  0
 36 61  1  0
 37 62  1  0
 37 63  1  0
M  END
$$$$
