@<TRIPOS>MOLECULE
*****
 63 69 0 0 0
SMALL
GASTEIGER

@<TRIPOS>ATOM
      1 O           2.3509    2.6664   -3.2118 O.2     1  UNL1       -0.2697
      2 C           3.3206    2.0744   -2.6198 C.2     1  UNL1        0.2519
      3 N           4.6880    2.3160   -2.8573 N.am    1  UNL1       -0.2482
      4 C           5.4088    1.4650   -2.0110 C.2     1  UNL1        0.2533
      5 O           6.6721    1.3649   -1.9114 O.2     1  UNL1       -0.2697
      6 C           4.4319    0.6682   -1.2206 C.2     1  UNL1        0.0751
      7 C           4.8892   -0.3353   -0.2538 C.ar    1  UNL1        0.0789
      8 C           4.6073   -1.6646   -0.1929 C.ar    1  UNL1        0.0545
      9 N           5.2365   -2.1637    0.8995 N.ar    1  UNL1       -0.2355
     10 C           5.8986   -1.1702    1.5101 C.ar    1  UNL1        0.1380
     11 C           6.6677   -1.2048    2.6465 C.ar    1  UNL1       -0.0188
     12 C           7.2564   -0.0412    3.0971 C.ar    1  UNL1       -0.0569
     13 C           7.0142    1.0875    2.3462 C.ar    1  UNL1       -0.0450
     14 C           6.2444    1.0978    1.2173 C.ar    1  UNL1        0.0118
     15 N           5.6851   -0.0505    0.8029 N.ar    1  UNL1       -0.2991
     16 C           3.2216    1.0286   -1.5804 C.2     1  UNL1        0.0604
     17 C           1.9342    0.5366   -1.1139 C.ar    1  UNL1        0.0131
     18 C           1.4484   -0.7424   -1.0772 C.ar    1  UNL1        0.0137
     19 N           0.2318   -0.6969   -0.5394 N.ar    1  UNL1       -0.3443
     20 C          -0.0920    0.5915   -0.2231 C.ar    1  UNL1        0.0544
     21 C          -1.2172    1.1127    0.3411 C.ar    1  UNL1       -0.0060
     22 C          -1.2280    2.5129    0.5449 C.ar    1  UNL1       -0.0551
     23 C          -0.1654    3.3081    0.1937 C.ar    1  UNL1       -0.0607
     24 C           0.9551    2.7749   -0.3723 C.ar    1  UNL1       -0.0520
     25 C           0.9705    1.4054   -0.5741 C.ar    1  UNL1        0.0081
     26 C          -2.5199    0.5529    0.7831 C.3     1  UNL1        0.0432
     27 N          -2.5076   -0.8620    0.8848 N.am    1  UNL1       -0.2794
     28 C          -3.7098   -1.5875    0.8531 C.2     1  UNL1        0.3051
     29 O          -3.4788   -2.8901    0.8529 O.2     1  UNL1       -0.2524
     30 N          -5.0349   -1.2293    0.8217 N.am    1  UNL1       -0.2855
     31 C          -5.6119    0.0674    0.9252 C.3     1  UNL1        0.0161
     32 C          -6.2921    0.4515   -0.3888 C.3     1  UNL1       -0.0371
     33 C          -7.1850   -0.6845   -0.8512 C.3     1  UNL1       -0.0502
     34 C          -6.5586   -2.0334   -0.7924 C.3     1  UNL1       -0.0371
     35 C          -6.0147   -2.3486    0.5845 C.3     1  UNL1        0.0161
     36 C          -1.2883   -1.6744    1.0581 C.3     1  UNL1        0.0345
     37 C          -0.5963   -1.8754   -0.2994 C.3     1  UNL1        0.0392
     38 H           5.0891    3.0118   -3.5476 H       1  UNL1        0.1581
     39 H           4.0072   -2.2371   -0.8914 H       1  UNL1        0.0852
     40 H           6.8247   -2.1401    3.2053 H       1  UNL1        0.0654
     41 H           7.8689   -0.0261    3.9864 H       1  UNL1        0.0619
     42 H           7.4633    2.0274    2.6721 H       1  UNL1        0.0632
     43 H           6.0603    2.0064    0.6412 H       1  UNL1        0.0813
     44 H           1.8911   -1.6634   -1.4121 H       1  UNL1        0.0815
     45 H          -2.1052    2.9375    0.9884 H       1  UNL1        0.0621
     46 H          -0.1625    4.3856    0.3459 H       1  UNL1        0.0618
     47 H           1.8172    3.3614   -0.6583 H       1  UNL1        0.0624
     48 H          -2.7778    1.0232    1.7798 H       1  UNL1        0.0515
     49 H          -3.2543    0.8938   -0.0248 H       1  UNL1        0.0515
     50 H          -6.4552    0.0297    1.7260 H       1  UNL1        0.0465
     51 H          -4.9735    0.8337    1.2701 H       1  UNL1        0.0465
     52 H          -6.9332    1.3269   -0.1738 H       1  UNL1        0.0280
     53 H          -5.5790    0.7326   -1.1713 H       1  UNL1        0.0280
     54 H          -7.4163   -0.4662   -1.9329 H       1  UNL1        0.0266
     55 H          -8.1647   -0.6783   -0.3422 H       1  UNL1        0.0266
     56 H          -5.7360   -2.1328   -1.5312 H       1  UNL1        0.0280
     57 H          -7.3687   -2.7775   -0.9877 H       1  UNL1        0.0280
     58 H          -5.4646   -3.2830    0.5393 H       1  UNL1        0.0465
     59 H          -6.7935   -2.3517    1.3483 H       1  UNL1        0.0465
     60 H          -0.5884   -1.1423    1.6971 H       1  UNL1        0.0483
     61 H          -1.6034   -2.6726    1.3959 H       1  UNL1        0.0483
     62 H           0.0423   -2.7654   -0.1905 H       1  UNL1        0.0507
     63 H          -1.3208   -2.0613   -1.1112 H       1  UNL1        0.0507
@<TRIPOS>BOND
     1     1     2    2
     2     2     3   am
     3     3     4   am
     4     4     5    2
     5     4     6    1
     6     6     7    1
     7     7     8   ar
     8     8     9   ar
     9     9    10   ar
    10    10    11   ar
    11    11    12   ar
    12    12    13   ar
    13    13    14   ar
    14    14    15   ar
    15     6    16    2
    16    16    17    1
    17    17    18   ar
    18    18    19   ar
    19    19    20   ar
    20    20    21   ar
    21    21    22   ar
    22    22    23   ar
    23    23    24   ar
    24    24    25   ar
    25    21    26    1
    26    26    27    1
    27    27    28   am
    28    28    29    2
    29    28    30   am
    30    30    31    1
    31    31    32    1
    32    32    33    1
    33    33    34    1
    34    34    35    1
    35    27    36    1
    36    36    37    1
    37    16     2    1
    38    25    17   ar
    39    35    30    1
    40    15     7   ar
    41    37    19    1
    42    15    10   ar
    43    25    20   ar
    44     3    38    1
    45     8    39    1
    46    11    40    1
    47    12    41    1
    48    13    42    1
    49    14    43    1
    50    18    44    1
    51    22    45    1
    52    23    46    1
    53    24    47    1
    54    26    48    1
    55    26    49    1
    56    31    50    1
    57    31    51    1
    58    32    52    1
    59    32    53    1
    60    33    54    1
    61    33    55    1
    62    34    56    1
    63    34    57    1
    64    35    58    1
    65    35    59    1
    66    36    60    1
    67    36    61    1
    68    37    62    1
    69    37    63    1
