@<TRIPOS>MOLECULE
*****
 49 53 0 0 0
SMALL
GASTEIGER

@<TRIPOS>ATOM
      1 C           6.8675    1.0102   -1.9078 C.3     1  UNL1       -0.0222
      2 C           5.9754    0.3325   -0.9324 C.ar    1  UNL1        0.0421
      3 C           6.4216   -0.7966   -0.2943 C.ar    1  UNL1       -0.0224
      4 C           5.6372   -1.4628    0.6174 C.ar    1  UNL1        0.0331
      5 N           4.3910   -1.0111    0.9075 N.ar    1  UNL1       -0.2211
      6 N           3.4399   -1.4454    1.7265 N.ar    1  UNL1       -0.1683
      7 C           2.3582   -0.6232    1.6485 C.ar    1  UNL1        0.0839
      8 C           2.6980    0.3414    0.7349 C.ar    1  UNL1        0.0349
      9 C           3.9748    0.0944    0.2720 C.ar    1  UNL1        0.1603
     10 N           4.7497    0.7616   -0.6355 N.ar    1  UNL1       -0.2326
     11 C           1.5514    1.2740    0.6051 C.3     1  UNL1        0.0301
     12 N           0.5247    0.7729    1.4456 N.3     1  UNL1       -0.2871
     13 C          -0.7287    0.5230    0.8274 C.3     1  UNL1        0.0360
     14 C          -1.3725    1.7090    0.2011 C.3     1  UNL1        0.0641
     15 O          -2.2819    1.4854   -0.7691 O.3     1  UNL1       -0.3688
     16 C          -2.8558    0.2730   -0.9341 C.3     1  UNL1        0.1015
     17 C          -4.2611    0.2068   -0.4097 C.ar    1  UNL1        0.0205
     18 C          -4.5737    0.7517    0.8154 C.ar    1  UNL1       -0.0180
     19 C          -5.8807    0.6774    1.2834 C.ar    1  UNL1        0.1239
     20 F          -6.2152    1.2065    2.4875 F       1  UNL1       -0.2055
     21 C          -6.8344    0.0609    0.5128 C.ar    1  UNL1       -0.0237
     22 C          -6.5064   -0.4813   -0.7141 C.ar    1  UNL1       -0.0234
     23 C          -5.2120   -0.4122   -1.1866 C.ar    1  UNL1        0.1292
     24 F          -4.9183   -0.9565   -2.4014 F       1  UNL1       -0.2051
     25 C          -2.0989   -0.9307   -0.4885 C.3     1  UNL1        0.0371
     26 N          -2.2508   -2.0661   -1.3650 N.3     1  UNL1       -0.3248
     27 C          -0.6520   -0.5500   -0.2667 C.3     1  UNL1       -0.0172
     28 C           0.9796   -0.3710    2.1596 C.3     1  UNL1        0.0440
     29 H           7.6499    1.6235   -1.4044 H       1  UNL1        0.0293
     30 H           6.3218    1.6378   -2.6275 H       1  UNL1        0.0293
     31 H           7.4045    0.2199   -2.4731 H       1  UNL1        0.0293
     32 H           7.4351   -1.1535   -0.5382 H       1  UNL1        0.0650
     33 H           5.9961   -2.3501    1.1146 H       1  UNL1        0.0831
     34 H           1.8859    2.2613    0.9857 H       1  UNL1        0.0478
     35 H           1.2386    1.3596   -0.4748 H       1  UNL1        0.0478
     36 H          -1.4096    0.0896    1.6013 H       1  UNL1        0.0486
     37 H          -1.7744    2.3434    1.0491 H       1  UNL1        0.0576
     38 H          -0.5883    2.4052   -0.2463 H       1  UNL1        0.0576
     39 H          -2.9666    0.1423   -2.0646 H       1  UNL1        0.0663
     40 H          -3.8419    1.2433    1.4467 H       1  UNL1        0.0651
     41 H          -7.8502    0.0174    0.9047 H       1  UNL1        0.0647
     42 H          -7.2764   -0.9718   -1.3221 H       1  UNL1        0.0647
     43 H          -2.4860   -1.2410    0.5264 H       1  UNL1        0.0488
     44 H          -1.7230   -1.9797   -2.2484 H       1  UNL1        0.1186
     45 H          -2.0255   -2.9519   -0.8598 H       1  UNL1        0.1186
     46 H          -0.1724   -0.1611   -1.1830 H       1  UNL1        0.0297
     47 H          -0.1127   -1.4391    0.0562 H       1  UNL1        0.0297
     48 H           1.0052   -0.1894    3.2735 H       1  UNL1        0.0492
     49 H           0.3631   -1.2794    2.0329 H       1  UNL1        0.0492
@<TRIPOS>BOND
     1     1     2    1
     2     2     3   ar
     3     3     4   ar
     4     4     5   ar
     5     5     6   ar
     6     6     7   ar
     7     7     8   ar
     8     8     9   ar
     9     9    10   ar
    10     8    11    1
    11    11    12    1
    12    12    13    1
    13    13    14    1
    14    14    15    1
    15    15    16    1
    16    16    17    1
    17    17    18   ar
    18    18    19   ar
    19    19    20    1
    20    19    21   ar
    21    21    22   ar
    22    22    23   ar
    23    23    24    1
    24    16    25    1
    25    25    26    1
    26    25    27    1
    27    12    28    1
    28    10     2   ar
    29    27    13    1
    30     9     5   ar
    31    23    17   ar
    32    28     7    1
    33     1    29    1
    34     1    30    1
    35     1    31    1
    36     3    32    1
    37     4    33    1
    38    11    34    1
    39    11    35    1
    40    13    36    1
    41    14    37    1
    42    14    38    1
    43    16    39    1
    44    18    40    1
    45    21    41    1
    46    22    42    1
    47    25    43    1
    48    26    44    1
    49    26    45    1
    50    27    46    1
    51    27    47    1
    52    28    48    1
    53    28    49    1
