
     RDKit          3D

 49 53  0  0  0  0  0  0  0  0999 V2000
    6.8675    1.0102   -1.9078 C   0  0  0  0  0  0  0  0  0  0  0  0
    5.9754    0.3325   -0.9324 C   0  0  0  0  0  0  0  0  0  0  0  0
    6.4216   -0.7966   -0.2943 C   0  0  0  0  0  0  0  0  0  0  0  0
    5.6372   -1.4628    0.6174 C   0  0  0  0  0  0  0  0  0  0  0  0
    4.3910   -1.0111    0.9075 N   0  0  0  0  0  0  0  0  0  0  0  0
    3.4399   -1.4454    1.7265 N   0  0  0  0  0  0  0  0  0  0  0  0
    2.3582   -0.6232    1.6485 C   0  0  0  0  0  0  0  0  0  0  0  0
    2.6980    0.3414    0.7349 C   0  0  0  0  0  0  0  0  0  0  0  0
    3.9748    0.0944    0.2720 C   0  0  0  0  0  0  0  0  0  0  0  0
    4.7497    0.7616   -0.6355 N   0  0  0  0  0  0  0  0  0  0  0  0
    1.5514    1.2740    0.6051 C   0  0  0  0  0  0  0  0  0  0  0  0
    0.5247    0.7729    1.4456 N   0  0  0  0  0  0  0  0  0  0  0  0
   -0.7287    0.5230    0.8274 C   0  0  1  0  0  0  0  0  0  0  0  0
   -1.3725    1.7090    0.2011 C   0  0  0  0  0  0  0  0  0  0  0  0
   -2.2819    1.4854   -0.7691 O   0  0  0  0  0  0  0  0  0  0  0  0
   -2.8558    0.2730   -0.9341 C   0  0  2  0  0  0  0  0  0  0  0  0
   -4.2611    0.2068   -0.4097 C   0  0  0  0  0  0  0  0  0  0  0  0
   -4.5737    0.7517    0.8154 C   0  0  0  0  0  0  0  0  0  0  0  0
   -5.8807    0.6774    1.2834 C   0  0  0  0  0  0  0  0  0  0  0  0
   -6.2152    1.2065    2.4875 F   0  0  0  0  0  0  0  0  0  0  0  0
   -6.8344    0.0609    0.5128 C   0  0  0  0  0  0  0  0  0  0  0  0
   -6.5064   -0.4813   -0.7141 C   0  0  0  0  0  0  0  0  0  0  0  0
   -5.2120   -0.4122   -1.1866 C   0  0  0  0  0  0  0  0  0  0  0  0
   -4.9183   -0.9565   -2.4014 F   0  0  0  0  0  0  0  0  0  0  0  0
   -2.0989   -0.9307   -0.4885 C   0  0  1  0  0  0  0  0  0  0  0  0
   -2.2508   -2.0661   -1.3650 N   0  0  0  0  0  0  0  0  0  0  0  0
   -0.6520   -0.5500   -0.2667 C   0  0  0  0  0  0  0  0  0  0  0  0
    0.9796   -0.3710    2.1596 C   0  0  0  0  0  0  0  0  0  0  0  0
    7.6499    1.6235   -1.4044 H   0  0  0  0  0  0  0  0  0  0  0  0
    6.3218    1.6378   -2.6275 H   0  0  0  0  0  0  0  0  0  0  0  0
    7.4045    0.2199   -2.4731 H   0  0  0  0  0  0  0  0  0  0  0  0
    7.4351   -1.1535   -0.5382 H   0  0  0  0  0  0  0  0  0  0  0  0
    5.9961   -2.3501    1.1146 H   0  0  0  0  0  0  0  0  0  0  0  0
    1.8859    2.2613    0.9857 H   0  0  0  0  0  0  0  0  0  0  0  0
    1.2386    1.3596   -0.4748 H   0  0  0  0  0  0  0  0  0  0  0  0
   -1.4096    0.0896    1.6013 H   0  0  0  0  0  0  0  0  0  0  0  0
   -1.7744    2.3434    1.0491 H   0  0  0  0  0  0  0  0  0  0  0  0
   -0.5883    2.4052   -0.2463 H   0  0  0  0  0  0  0  0  0  0  0  0
   -2.9666    0.1423   -2.0646 H   0  0  0  0  0  0  0  0  0  0  0  0
   -3.8419    1.2433    1.4467 H   0  0  0  0  0  0  0  0  0  0  0  0
   -7.8502    0.0174    0.9047 H   0  0  0  0  0  0  0  0  0  0  0  0
   -7.2764   -0.9718   -1.3221 H   0  0  0  0  0  0  0  0  0  0  0  0
   -2.4860   -1.2410    0.5264 H   0  0  0  0  0  0  0  0  0  0  0  0
   -1.7230   -1.9797   -2.2484 H   0  0  0  0  0  0  0  0  0  0  0  0
   -2.0255   -2.9519   -0.8598 H   0  0  0  0  0  0  0  0  0  0  0  0
   -0.1724   -0.1611   -1.1830 H   0  0  0  0  0  0  0  0  0  0  0  0
   -0.1127   -1.4391    0.0562 H   0  0  0  0  0  0  0  0  0  0  0  0
    1.0052   -0.1894    3.2735 H   0  0  0  0  0  0  0  0  0  0  0  0
    0.3631   -1.2794    2.0329 H   0  0  0  0  0  0  0  0  0  0  0  0
  1  2  1  0
  2  3  1  0
  3  4  2  0
  4  5  1  0
  5  6  1  0
  6  7  2  0
  7  8  1  0
  8  9  2  0
  9 10  1  0
  8 11  1  0
 11 12  1  0
 12 13  1  0
 13 14  1  0
 14 15  1  0
 15 16  1  0
 16 17  1  0
 17 18  2  0
 18 19  1  0
 19 20  1  0
 19 21  2  0
 21 22  1  0
 22 23  2  0
 23 24  1  0
 16 25  1  0
 25 26  1  0
 25 27  1  0
 12 28  1  0
 10  2  2  0
 27 13  1  0
  9  5  1  0
 23 17  1  0
 28  7  1  0
  1 29  1  0
  1 30  1  0
  1 31  1  0
  3 32  1  0
  4 33  1  0
 11 34  1  0
 11 35  1  0
 13 36  1  1
 14 37  1  0
 14 38  1  0
 16 39  1  6
 18 40  1  0
 21 41  1  0
 22 42  1  0
 25 43  1  1
 26 44  1  0
 26 45  1  0
 27 46  1  0
 27 47  1  0
 28 48  1  0
 28 49  1  0
M  END
$$$$
