@<TRIPOS>MOLECULE
*****
 53 58 0 0 0
SMALL
GASTEIGER

@<TRIPOS>ATOM
      1 C          -4.3390    0.5042   -1.2473 C.3     1  UNL1       -0.0203
      2 C          -3.4724   -0.4103   -0.4228 C.ar    1  UNL1        0.0660
      3 N          -3.9409   -1.4138    0.3517 N.ar    1  UNL1       -0.1750
      4 N          -2.9525   -2.0588    0.9456 N.ar    1  UNL1       -0.2512
      5 C          -3.0323   -3.1927    1.8546 C.3     1  UNL1        0.1000
      6 C          -2.3176   -4.3818    1.2815 C.3     1  UNL1        0.0723
      7 O          -3.5053   -4.9011    0.7655 O.3     1  UNL1       -0.3754
      8 C          -4.2075   -4.0966    1.6457 C.3     1  UNL1        0.0723
      9 C          -1.8141   -1.4618    0.5483 C.ar    1  UNL1        0.1298
     10 C          -2.1057   -0.4059   -0.3227 C.ar    1  UNL1        0.0304
     11 C          -0.8530    0.2477   -0.7409 C.3     1  UNL1        0.0854
     12 C          -0.8583    1.6742   -0.3985 C.ar    1  UNL1       -0.0221
     13 C          -1.8595    2.2451    0.3598 C.ar    1  UNL1       -0.0551
     14 C          -1.9207    3.5749    0.6833 C.ar    1  UNL1       -0.0431
     15 C          -0.9356    4.4219    0.2395 C.ar    1  UNL1        0.0410
     16 CL         -0.9884    6.1316    0.6394 Cl      1  UNL1       -0.0835
     17 C           0.0819    3.8901   -0.5202 C.ar    1  UNL1       -0.0431
     18 C           0.1315    2.5534   -0.8384 C.ar    1  UNL1       -0.0551
     19 N           0.2363   -0.4766   -0.1559 N.am    1  UNL1       -0.2531
     20 C           1.6136   -0.2208   -0.3516 C.ar    1  UNL1        0.0545
     21 C           2.2634   -0.8303   -1.4275 C.ar    1  UNL1       -0.0324
     22 C           3.6043   -0.6353   -1.6741 C.ar    1  UNL1       -0.0041
     23 C           4.2313   -1.3189   -2.8420 C.3     1  UNL1       -0.0361
     24 C           4.3074    0.1794   -0.8352 C.ar    1  UNL1        0.1641
     25 N           5.6048    0.5291   -0.8549 N.ar    1  UNL1       -0.1292
     26 N           5.7995    1.3400    0.1728 N.ar    1  UNL1       -0.1340
     27 C           4.6376    1.4977    0.8301 C.ar    1  UNL1        0.1347
     28 C           4.4590    2.3325    2.0326 C.3     1  UNL1       -0.0041
     29 N           3.6764    0.7631    0.1986 N.ar    1  UNL1       -0.2846
     30 C           2.3717    0.5843    0.4533 C.ar    1  UNL1        0.0344
     31 C          -0.3601   -1.4994    0.6491 C.2     1  UNL1        0.2700
     32 O           0.3587   -2.2929    1.3305 O.2     1  UNL1       -0.2679
     33 H          -5.1462    0.9523   -0.6440 H       1  UNL1        0.0293
     34 H          -3.7150    1.3143   -1.6651 H       1  UNL1        0.0293
     35 H          -4.7528   -0.0777   -2.1090 H       1  UNL1        0.0293
     36 H          -2.7972   -2.9586    2.9124 H       1  UNL1        0.0591
     37 H          -1.6434   -4.1179    0.4176 H       1  UNL1        0.0582
     38 H          -1.8314   -5.0571    2.0252 H       1  UNL1        0.0582
     39 H          -5.1149   -3.6240    1.2255 H       1  UNL1        0.0582
     40 H          -4.4028   -4.6706    2.5978 H       1  UNL1        0.0582
     41 H          -0.7416    0.2169   -1.8691 H       1  UNL1        0.0606
     42 H          -2.6505    1.5999    0.7399 H       1  UNL1        0.0621
     43 H          -2.7268    4.0029    1.2865 H       1  UNL1        0.0632
     44 H           0.8516    4.5973   -0.8569 H       1  UNL1        0.0632
     45 H           0.9457    2.1908   -1.4409 H       1  UNL1        0.0621
     46 H           1.6914   -1.4755   -2.0861 H       1  UNL1        0.0640
     47 H           4.9346   -0.6629   -3.3855 H       1  UNL1        0.0279
     48 H           4.6945   -2.2579   -2.4755 H       1  UNL1        0.0279
     49 H           3.4350   -1.6225   -3.5506 H       1  UNL1        0.0279
     50 H           5.2867    2.2023    2.7607 H       1  UNL1        0.0308
     51 H           3.4817    2.0770    2.5291 H       1  UNL1        0.0308
     52 H           4.3763    3.4263    1.7833 H       1  UNL1        0.0308
     53 H           1.9109    1.0722    1.2920 H       1  UNL1        0.0833
@<TRIPOS>BOND
     1     1     2    1
     2     2     3   ar
     3     3     4   ar
     4     4     5    1
     5     5     6    1
     6     6     7    1
     7     7     8    1
     8     4     9   ar
     9     9    10   ar
    10    10    11    1
    11    11    12    1
    12    12    13   ar
    13    13    14   ar
    14    14    15   ar
    15    15    16    1
    16    15    17   ar
    17    17    18   ar
    18    11    19    1
    19    19    20    1
    20    20    21   ar
    21    21    22   ar
    22    22    23    1
    23    22    24   ar
    24    24    25   ar
    25    25    26   ar
    26    26    27   ar
    27    27    28    1
    28    27    29   ar
    29    29    30   ar
    30    19    31   am
    31    31    32    2
    32    10     2   ar
    33    18    12   ar
    34    30    20   ar
    35     8     5    1
    36    31     9    1
    37    29    24   ar
    38     1    33    1
    39     1    34    1
    40     1    35    1
    41     5    36    1
    42     6    37    1
    43     6    38    1
    44     8    39    1
    45     8    40    1
    46    11    41    1
    47    13    42    1
    48    14    43    1
    49    17    44    1
    50    18    45    1
    51    21    46    1
    52    23    47    1
    53    23    48    1
    54    23    49    1
    55    28    50    1
    56    28    51    1
    57    28    52    1
    58    30    53    1
