
     RDKit          3D

 53 58  0  0  0  0  0  0  0  0999 V2000
   -4.3390    0.5042   -1.2473 C   0  0  0  0  0  0  0  0  0  0  0  0
   -3.4724   -0.4103   -0.4228 C   0  0  0  0  0  0  0  0  0  0  0  0
   -3.9409   -1.4138    0.3517 N   0  0  0  0  0  0  0  0  0  0  0  0
   -2.9525   -2.0588    0.9456 N   0  0  0  0  0  0  0  0  0  0  0  0
   -3.0323   -3.1927    1.8546 C   0  0  0  0  0  0  0  0  0  0  0  0
   -2.3176   -4.3818    1.2815 C   0  0  0  0  0  0  0  0  0  0  0  0
   -3.5053   -4.9011    0.7655 O   0  0  0  0  0  0  0  0  0  0  0  0
   -4.2075   -4.0966    1.6457 C   0  0  0  0  0  0  0  0  0  0  0  0
   -1.8141   -1.4618    0.5483 C   0  0  0  0  0  0  0  0  0  0  0  0
   -2.1057   -0.4059   -0.3227 C   0  0  0  0  0  0  0  0  0  0  0  0
   -0.8530    0.2477   -0.7409 C   0  0  0  0  0  0  0  0  0  0  0  0
   -0.8583    1.6742   -0.3985 C   0  0  0  0  0  0  0  0  0  0  0  0
   -1.8595    2.2451    0.3598 C   0  0  0  0  0  0  0  0  0  0  0  0
   -1.9207    3.5749    0.6833 C   0  0  0  0  0  0  0  0  0  0  0  0
   -0.9356    4.4219    0.2395 C   0  0  0  0  0  0  0  0  0  0  0  0
   -0.9884    6.1316    0.6394 Cl  0  0  0  0  0  0  0  0  0  0  0  0
    0.0819    3.8901   -0.5202 C   0  0  0  0  0  0  0  0  0  0  0  0
    0.1315    2.5534   -0.8384 C   0  0  0  0  0  0  0  0  0  0  0  0
    0.2363   -0.4766   -0.1559 N   0  0  0  0  0  0  0  0  0  0  0  0
    1.6136   -0.2208   -0.3516 C   0  0  0  0  0  0  0  0  0  0  0  0
    2.2634   -0.8303   -1.4275 C   0  0  0  0  0  0  0  0  0  0  0  0
    3.6043   -0.6353   -1.6741 C   0  0  0  0  0  0  0  0  0  0  0  0
    4.2313   -1.3189   -2.8420 C   0  0  0  0  0  0  0  0  0  0  0  0
    4.3074    0.1794   -0.8352 C   0  0  0  0  0  0  0  0  0  0  0  0
    5.6048    0.5291   -0.8549 N   0  0  0  0  0  0  0  0  0  0  0  0
    5.7995    1.3400    0.1728 N   0  0  0  0  0  0  0  0  0  0  0  0
    4.6376    1.4977    0.8301 C   0  0  0  0  0  0  0  0  0  0  0  0
    4.4590    2.3325    2.0326 C   0  0  0  0  0  0  0  0  0  0  0  0
    3.6764    0.7631    0.1986 N   0  0  0  0  0  0  0  0  0  0  0  0
    2.3717    0.5843    0.4533 C   0  0  0  0  0  0  0  0  0  0  0  0
   -0.3601   -1.4994    0.6491 C   0  0  0  0  0  0  0  0  0  0  0  0
    0.3587   -2.2929    1.3305 O   0  0  0  0  0  0  0  0  0  0  0  0
   -5.1462    0.9523   -0.6440 H   0  0  0  0  0  0  0  0  0  0  0  0
   -3.7150    1.3143   -1.6651 H   0  0  0  0  0  0  0  0  0  0  0  0
   -4.7528   -0.0777   -2.1090 H   0  0  0  0  0  0  0  0  0  0  0  0
   -2.7972   -2.9586    2.9124 H   0  0  0  0  0  0  0  0  0  0  0  0
   -1.6434   -4.1179    0.4176 H   0  0  0  0  0  0  0  0  0  0  0  0
   -1.8314   -5.0571    2.0252 H   0  0  0  0  0  0  0  0  0  0  0  0
   -5.1149   -3.6240    1.2255 H   0  0  0  0  0  0  0  0  0  0  0  0
   -4.4028   -4.6706    2.5978 H   0  0  0  0  0  0  0  0  0  0  0  0
   -0.7416    0.2169   -1.8691 H   0  0  0  0  0  0  0  0  0  0  0  0
   -2.6505    1.5999    0.7399 H   0  0  0  0  0  0  0  0  0  0  0  0
   -2.7268    4.0029    1.2865 H   0  0  0  0  0  0  0  0  0  0  0  0
    0.8516    4.5973   -0.8569 H   0  0  0  0  0  0  0  0  0  0  0  0
    0.9457    2.1908   -1.4409 H   0  0  0  0  0  0  0  0  0  0  0  0
    1.6914   -1.4755   -2.0861 H   0  0  0  0  0  0  0  0  0  0  0  0
    4.9346   -0.6629   -3.3855 H   0  0  0  0  0  0  0  0  0  0  0  0
    4.6945   -2.2579   -2.4755 H   0  0  0  0  0  0  0  0  0  0  0  0
    3.4350   -1.6225   -3.5506 H   0  0  0  0  0  0  0  0  0  0  0  0
    5.2867    2.2023    2.7607 H   0  0  0  0  0  0  0  0  0  0  0  0
    3.4817    2.0770    2.5291 H   0  0  0  0  0  0  0  0  0  0  0  0
    4.3763    3.4263    1.7833 H   0  0  0  0  0  0  0  0  0  0  0  0
    1.9109    1.0722    1.2920 H   0  0  0  0  0  0  0  0  0  0  0  0
  1  2  1  0
  2  3  2  0
  3  4  1  0
  4  5  1  0
  5  6  1  0
  6  7  1  0
  7  8  1  0
  4  9  1  0
  9 10  2  0
 10 11  1  0
 11 12  1  0
 12 13  2  0
 13 14  1  0
 14 15  2  0
 15 16  1  0
 15 17  1  0
 17 18  2  0
 11 19  1  0
 19 20  1  0
 20 21  1  0
 21 22  2  0
 22 23  1  0
 22 24  1  0
 24 25  2  0
 25 26  1  0
 26 27  2  0
 27 28  1  0
 27 29  1  0
 29 30  1  0
 19 31  1  0
 31 32  2  0
 10  2  1  0
 18 12  1  0
 30 20  2  0
  8  5  1  0
 31  9  1  0
 29 24  1  0
  1 33  1  0
  1 34  1  0
  1 35  1  0
  5 36  1  0
  6 37  1  0
  6 38  1  0
  8 39  1  0
  8 40  1  0
 11 41  1  0
 13 42  1  0
 14 43  1  0
 17 44  1  0
 18 45  1  0
 21 46  1  0
 23 47  1  0
 23 48  1  0
 23 49  1  0
 28 50  1  0
 28 51  1  0
 28 52  1  0
 30 53  1  0
M  END
$$$$
