@<TRIPOS>MOLECULE
*****
 28 31 0 0 0
SMALL
GASTEIGER

@<TRIPOS>ATOM
      1 N           2.7015    0.1194   -2.0082 N.ar    1  UNL1       -0.2763
      2 N           1.4031    0.1585   -1.9156 N.ar    1  UNL1       -0.1696
      3 C           0.9942    0.0423   -0.6341 C.ar    1  UNL1        0.1352
      4 C          -0.4092    0.0544   -0.2388 C.ar    1  UNL1        0.1600
      5 N          -0.9567   -0.0497    0.9759 N.ar    1  UNL1       -0.2261
      6 C          -2.3173    0.0104    0.8870 C.ar    1  UNL1        0.0895
      7 C          -3.3756   -0.0394    1.7593 C.ar    1  UNL1       -0.0342
      8 C          -4.6677    0.0548    1.3140 C.ar    1  UNL1       -0.0596
      9 C          -4.9908    0.2037   -0.0190 C.ar    1  UNL1       -0.0597
     10 C          -3.9359    0.2560   -0.9143 C.ar    1  UNL1       -0.0362
     11 C          -2.6235    0.1592   -0.4508 C.ar    1  UNL1        0.0665
     12 N          -1.4408    0.1822   -1.1070 N.ar    1  UNL1       -0.3366
     13 C           2.1070   -0.0784    0.1358 C.ar    1  UNL1        0.0304
     14 C           3.1517   -0.0264   -0.7526 C.ar    1  UNL1        0.0664
     15 C           4.4582   -0.1202   -0.3150 C.ar    1  UNL1       -0.0363
     16 C           4.6884   -0.2686    1.0468 C.ar    1  UNL1       -0.0597
     17 C           3.6232   -0.3186    1.9228 C.ar    1  UNL1       -0.0610
     18 C           2.2959   -0.2245    1.4908 C.ar    1  UNL1       -0.0504
     19 H           3.2583    0.1889   -2.8893 H       1  UNL1        0.1889
     20 H          -3.1714   -0.1553    2.8141 H       1  UNL1        0.0639
     21 H          -5.5343    0.0192    1.9774 H       1  UNL1        0.0618
     22 H          -5.9842    0.2842   -0.4408 H       1  UNL1        0.0618
     23 H          -4.1439    0.3732   -1.9799 H       1  UNL1        0.0639
     24 H          -1.3960    0.2881   -2.1551 H       1  UNL1        0.1674
     25 H           5.2678   -0.0794   -1.0086 H       1  UNL1        0.0639
     26 H           5.7202   -0.3396    1.3617 H       1  UNL1        0.0618
     27 H           3.8232   -0.4348    2.9825 H       1  UNL1        0.0618
     28 H           1.4546   -0.2595    2.1385 H       1  UNL1        0.0625
@<TRIPOS>BOND
     1     1     2   ar
     2     2     3   ar
     3     3     4    1
     4     4     5   ar
     5     5     6   ar
     6     6     7   ar
     7     7     8   ar
     8     8     9   ar
     9     9    10   ar
    10    10    11   ar
    11    11    12   ar
    12     3    13   ar
    13    13    14   ar
    14    14    15   ar
    15    15    16   ar
    16    16    17   ar
    17    17    18   ar
    18    14     1   ar
    19    12     4   ar
    20    18    13   ar
    21    11     6   ar
    22     1    19    1
    23     7    20    1
    24     8    21    1
    25     9    22    1
    26    10    23    1
    27    12    24    1
    28    15    25    1
    29    16    26    1
    30    17    27    1
    31    18    28    1
