@<TRIPOS>MOLECULE
*****
 47 50 0 0 0
SMALL
GASTEIGER

@<TRIPOS>ATOM
      1 C          -4.2340    0.9068   -0.6948 C.3     1  UNL1        0.0936
      2 O          -4.5236   -0.4238   -0.7842 O.3     1  UNL1       -0.3880
      3 C          -5.5533    1.6565   -0.6846 C.3     1  UNL1        0.0716
      4 O          -6.3183    1.2436    0.4178 O.3     1  UNL1       -0.3924
      5 C          -3.3614    1.3155    0.4656 C.3     1  UNL1        0.0386
      6 N          -2.0753    0.6545    0.4024 N.pl3   1  UNL1       -0.3259
      7 C          -1.8398   -0.7319    0.5594 C.ar    1  UNL1        0.1319
      8 C          -0.5740   -1.2635    0.4761 C.ar    1  UNL1        0.0666
      9 C          -0.2895   -2.6012    0.6272 C.ar    1  UNL1        0.1442
     10 N           1.0218   -2.8007    0.4925 N.ar    1  UNL1       -0.3384
     11 C           1.6146   -1.5951    0.2513 C.ar    1  UNL1        0.0565
     12 C           0.6274   -0.6313    0.2395 C.ar    1  UNL1        0.0200
     13 C           1.0455    0.7134   -0.0002 C.ar    1  UNL1       -0.0151
     14 C           1.0903    1.0810   -1.3540 C.ar    1  UNL1       -0.0539
     15 C           1.4853    2.3430   -1.7574 C.ar    1  UNL1       -0.0612
     16 C           1.8472    3.2697   -0.7921 C.ar    1  UNL1       -0.0617
     17 C           1.8227    2.9621    0.5716 C.ar    1  UNL1       -0.0612
     18 C           1.4225    1.6922    0.9290 C.ar    1  UNL1       -0.0539
     19 C           3.0549   -1.5890    0.0742 C.ar    1  UNL1       -0.0010
     20 C           3.6804   -0.8536    1.0908 C.ar    1  UNL1       -0.0526
     21 C           5.0760   -0.7424    1.0752 C.ar    1  UNL1       -0.0611
     22 C           5.8750   -1.3191    0.1106 C.ar    1  UNL1       -0.0617
     23 C           5.1996   -2.0266   -0.8573 C.ar    1  UNL1       -0.0611
     24 C           3.8484   -2.1779   -0.9075 C.ar    1  UNL1       -0.0526
     25 N          -1.3500   -3.4215    0.8741 N.ar    1  UNL1       -0.2178
     26 C          -2.5902   -2.9100    0.9572 C.ar    1  UNL1        0.1204
     27 N          -2.8276   -1.6007    0.8040 N.ar    1  UNL1       -0.2202
     28 H          -3.6690    1.1907   -1.6317 H       1  UNL1        0.0632
     29 H          -4.1921   -0.8817   -1.5854 H       1  UNL1        0.2099
     30 H          -6.1278    1.3422   -1.5807 H       1  UNL1        0.0583
     31 H          -5.4184    2.7513   -0.6798 H       1  UNL1        0.0583
     32 H          -6.0276    1.7201    1.2391 H       1  UNL1        0.2095
     33 H          -3.2739    2.4311    0.3899 H       1  UNL1        0.0488
     34 H          -3.8765    1.1053    1.4354 H       1  UNL1        0.0488
     35 H          -1.3012    1.3210    0.2195 H       1  UNL1        0.1476
     36 H           1.4131   -3.7686    0.5779 H       1  UNL1        0.1674
     37 H           0.8178    0.3950   -2.1600 H       1  UNL1        0.0624
     38 H           1.5148    2.6105   -2.8040 H       1  UNL1        0.0618
     39 H           2.1658    4.2744   -1.0393 H       1  UNL1        0.0618
     40 H           2.0952    3.6492    1.3589 H       1  UNL1        0.0618
     41 H           1.3638    1.3372    1.9490 H       1  UNL1        0.0624
     42 H           3.2040   -0.3415    1.9179 H       1  UNL1        0.0624
     43 H           5.6003   -0.1723    1.8590 H       1  UNL1        0.0618
     44 H           6.9331   -1.2447    0.0845 H       1  UNL1        0.0618
     45 H           5.7355   -2.5228   -1.6675 H       1  UNL1        0.0618
     46 H           3.2611   -2.7108   -1.6281 H       1  UNL1        0.0624
     47 H          -3.3928   -3.6356    1.1588 H       1  UNL1        0.1048
@<TRIPOS>BOND
     1     1     2    1
     2     1     3    1
     3     3     4    1
     4     1     5    1
     5     5     6    1
     6     6     7    1
     7     7     8   ar
     8     8     9   ar
     9     9    10   ar
    10    10    11   ar
    11    11    12   ar
    12    12    13    1
    13    13    14   ar
    14    14    15   ar
    15    15    16   ar
    16    16    17   ar
    17    17    18   ar
    18    11    19    1
    19    19    20   ar
    20    20    21   ar
    21    21    22   ar
    22    22    23   ar
    23    23    24   ar
    24     9    25   ar
    25    25    26   ar
    26    26    27   ar
    27    27     7   ar
    28    12     8   ar
    29    18    13   ar
    30    24    19   ar
    31     1    28    1
    32     2    29    1
    33     3    30    1
    34     3    31    1
    35     4    32    1
    36     5    33    1
    37     5    34    1
    38     6    35    1
    39    10    36    1
    40    14    37    1
    41    15    38    1
    42    16    39    1
    43    17    40    1
    44    18    41    1
    45    20    42    1
    46    21    43    1
    47    22    44    1
    48    23    45    1
    49    24    46    1
    50    26    47    1
