@<TRIPOS>MOLECULE
*****
 40 41 0 0 0
SMALL
GASTEIGER

@<TRIPOS>ATOM
      1 C          -2.8336    2.0605    2.1512 C.3     1  UNL1       -0.0158
      2 N          -2.4477    2.6408    0.8879 N.3     1  UNL1       -0.3188
      3 C          -1.3609    1.8800    0.2976 C.3     1  UNL1       -0.0007
      4 C          -1.9544    0.5363   -0.0791 C.3     1  UNL1        0.0010
      5 C          -0.8164   -0.2924   -0.7073 C.3     1  UNL1        0.1263
      6 O           0.1571   -0.3986    0.2698 O.3     1  UNL1       -0.4842
      7 C           1.4170    0.0741    0.3288 C.ar    1  UNL1        0.1214
      8 C           1.9631    0.8051   -0.6948 C.ar    1  UNL1       -0.0194
      9 C           3.2798    1.2835   -0.6018 C.ar    1  UNL1       -0.0467
     10 C           4.0345    1.0279    0.5089 C.ar    1  UNL1        0.0550
     11 C           5.4437    1.5377    0.6134 C.3     1  UNL1        0.4174
     12 F           5.6222    2.4602   -0.3850 F       1  UNL1       -0.1659
     13 F           5.5885    2.1013    1.8704 F       1  UNL1       -0.1659
     14 F           6.3483    0.4768    0.5036 F       1  UNL1       -0.1659
     15 C           3.4916    0.2946    1.5399 C.ar    1  UNL1       -0.0467
     16 C           2.1961   -0.1702    1.4362 C.ar    1  UNL1       -0.0194
     17 C          -1.4200   -1.5812   -1.0991 C.ar    1  UNL1       -0.0073
     18 C          -1.8205   -2.4742   -0.1402 C.ar    1  UNL1       -0.0551
     19 C          -2.3987   -3.7037   -0.4886 C.ar    1  UNL1       -0.0614
     20 C          -2.5477   -3.9773   -1.8223 C.ar    1  UNL1       -0.0617
     21 C          -2.1518   -3.0938   -2.7979 C.ar    1  UNL1       -0.0614
     22 C          -1.5759   -1.8701   -2.4289 C.ar    1  UNL1       -0.0551
     23 H          -3.2341    2.8287    2.8109 H       1  UNL1        0.0388
     24 H          -3.6000    1.2858    1.9404 H       1  UNL1        0.0388
     25 H          -1.9844    1.4878    2.6263 H       1  UNL1        0.0388
     26 H          -2.3071    3.6522    0.8964 H       1  UNL1        0.1216
     27 H          -0.5694    1.6802    1.0450 H       1  UNL1        0.0425
     28 H          -0.9464    2.3987   -0.5832 H       1  UNL1        0.0425
     29 H          -2.7649    0.6404   -0.8428 H       1  UNL1        0.0317
     30 H          -2.3183    0.0104    0.8260 H       1  UNL1        0.0317
     31 H          -0.4783    0.3022   -1.5663 H       1  UNL1        0.0785
     32 H           1.3924    1.0183   -1.5757 H       1  UNL1        0.0654
     33 H           3.6686    1.8521   -1.4278 H       1  UNL1        0.0624
     34 H           4.1300    0.1211    2.3948 H       1  UNL1        0.0624
     35 H           1.7739   -0.7483    2.2538 H       1  UNL1        0.0654
     36 H          -1.7074   -2.2681    0.9261 H       1  UNL1        0.0621
     37 H          -2.7004   -4.3785    0.2944 H       1  UNL1        0.0618
     38 H          -2.9931   -4.9241   -2.0976 H       1  UNL1        0.0618
     39 H          -2.2894   -3.3548   -3.8402 H       1  UNL1        0.0618
     40 H          -1.2858   -1.2214   -3.2433 H       1  UNL1        0.0621
@<TRIPOS>BOND
     1     1     2    1
     2     2     3    1
     3     3     4    1
     4     4     5    1
     5     5     6    1
     6     6     7    1
     7     7     8   ar
     8     8     9   ar
     9     9    10   ar
    10    10    11    1
    11    11    12    1
    12    11    13    1
    13    11    14    1
    14    10    15   ar
    15    15    16   ar
    16     5    17    1
    17    17    18   ar
    18    18    19   ar
    19    19    20   ar
    20    20    21   ar
    21    21    22   ar
    22    16     7   ar
    23    22    17   ar
    24     1    23    1
    25     1    24    1
    26     1    25    1
    27     2    26    1
    28     3    27    1
    29     3    28    1
    30     4    29    1
    31     4    30    1
    32     5    31    1
    33     8    32    1
    34     9    33    1
    35    15    34    1
    36    16    35    1
    37    18    36    1
    38    19    37    1
    39    20    38    1
    40    21    39    1
    41    22    40    1
