
     RDKit          3D

 40 41  0  0  0  0  0  0  0  0999 V2000
   -2.8336    2.0605    2.1512 C   0  0  0  0  0  0  0  0  0  0  0  0
   -2.4477    2.6408    0.8879 N   0  0  0  0  0  0  0  0  0  0  0  0
   -1.3609    1.8800    0.2976 C   0  0  0  0  0  0  0  0  0  0  0  0
   -1.9544    0.5363   -0.0791 C   0  0  0  0  0  0  0  0  0  0  0  0
   -0.8164   -0.2924   -0.7073 C   0  0  0  0  0  0  0  0  0  0  0  0
    0.1571   -0.3986    0.2698 O   0  0  0  0  0  0  0  0  0  0  0  0
    1.4170    0.0741    0.3288 C   0  0  0  0  0  0  0  0  0  0  0  0
    1.9631    0.8051   -0.6948 C   0  0  0  0  0  0  0  0  0  0  0  0
    3.2798    1.2835   -0.6018 C   0  0  0  0  0  0  0  0  0  0  0  0
    4.0345    1.0279    0.5089 C   0  0  0  0  0  0  0  0  0  0  0  0
    5.4437    1.5377    0.6134 C   0  0  0  0  0  0  0  0  0  0  0  0
    5.6222    2.4602   -0.3850 F   0  0  0  0  0  0  0  0  0  0  0  0
    5.5885    2.1013    1.8704 F   0  0  0  0  0  0  0  0  0  0  0  0
    6.3483    0.4768    0.5036 F   0  0  0  0  0  0  0  0  0  0  0  0
    3.4916    0.2946    1.5399 C   0  0  0  0  0  0  0  0  0  0  0  0
    2.1961   -0.1702    1.4362 C   0  0  0  0  0  0  0  0  0  0  0  0
   -1.4200   -1.5812   -1.0991 C   0  0  0  0  0  0  0  0  0  0  0  0
   -1.8205   -2.4742   -0.1402 C   0  0  0  0  0  0  0  0  0  0  0  0
   -2.3987   -3.7037   -0.4886 C   0  0  0  0  0  0  0  0  0  0  0  0
   -2.5477   -3.9773   -1.8223 C   0  0  0  0  0  0  0  0  0  0  0  0
   -2.1518   -3.0938   -2.7979 C   0  0  0  0  0  0  0  0  0  0  0  0
   -1.5759   -1.8701   -2.4289 C   0  0  0  0  0  0  0  0  0  0  0  0
   -3.2341    2.8287    2.8109 H   0  0  0  0  0  0  0  0  0  0  0  0
   -3.6000    1.2858    1.9404 H   0  0  0  0  0  0  0  0  0  0  0  0
   -1.9844    1.4878    2.6263 H   0  0  0  0  0  0  0  0  0  0  0  0
   -2.3071    3.6522    0.8964 H   0  0  0  0  0  0  0  0  0  0  0  0
   -0.5694    1.6802    1.0450 H   0  0  0  0  0  0  0  0  0  0  0  0
   -0.9464    2.3987   -0.5832 H   0  0  0  0  0  0  0  0  0  0  0  0
   -2.7649    0.6404   -0.8428 H   0  0  0  0  0  0  0  0  0  0  0  0
   -2.3183    0.0104    0.8260 H   0  0  0  0  0  0  0  0  0  0  0  0
   -0.4783    0.3022   -1.5663 H   0  0  0  0  0  0  0  0  0  0  0  0
    1.3924    1.0183   -1.5757 H   0  0  0  0  0  0  0  0  0  0  0  0
    3.6686    1.8521   -1.4278 H   0  0  0  0  0  0  0  0  0  0  0  0
    4.1300    0.1211    2.3948 H   0  0  0  0  0  0  0  0  0  0  0  0
    1.7739   -0.7483    2.2538 H   0  0  0  0  0  0  0  0  0  0  0  0
   -1.7074   -2.2681    0.9261 H   0  0  0  0  0  0  0  0  0  0  0  0
   -2.7004   -4.3785    0.2944 H   0  0  0  0  0  0  0  0  0  0  0  0
   -2.9931   -4.9241   -2.0976 H   0  0  0  0  0  0  0  0  0  0  0  0
   -2.2894   -3.3548   -3.8402 H   0  0  0  0  0  0  0  0  0  0  0  0
   -1.2858   -1.2214   -3.2433 H   0  0  0  0  0  0  0  0  0  0  0  0
  1  2  1  0
  2  3  1  0
  3  4  1  0
  4  5  1  0
  5  6  1  0
  6  7  1  0
  7  8  2  0
  8  9  1  0
  9 10  2  0
 10 11  1  0
 11 12  1  0
 11 13  1  0
 11 14  1  0
 10 15  1  0
 15 16  2  0
  5 17  1  0
 17 18  2  0
 18 19  1  0
 19 20  2  0
 20 21  1  0
 21 22  2  0
 16  7  1  0
 22 17  1  0
  1 23  1  0
  1 24  1  0
  1 25  1  0
  2 26  1  0
  3 27  1  0
  3 28  1  0
  4 29  1  0
  4 30  1  0
  5 31  1  0
  8 32  1  0
  9 33  1  0
 15 34  1  0
 16 35  1  0
 18 36  1  0
 19 37  1  0
 20 38  1  0
 21 39  1  0
 22 40  1  0
M  END
$$$$
