
     RDKit          3D

 38 39  0  0  0  0  0  0  0  0999 V2000
   -1.0307    1.3321   -0.2616 C   0  0  0  0  0  0  0  0  0  0  0  0
   -1.1011    0.6447    0.9894 N   0  0  0  0  0  0  0  0  0  0  0  0
   -2.4198    0.5400    1.5341 C   0  0  0  0  0  0  0  0  0  0  0  0
   -3.4758    0.2637    0.5259 C   0  0  0  0  0  0  0  0  0  0  0  0
   -3.9211   -0.9726    0.1062 C   0  0  0  0  0  0  0  0  0  0  0  0
   -4.9181   -1.0735   -0.8465 C   0  0  0  0  0  0  0  0  0  0  0  0
   -5.5124    0.0246   -1.4198 C   0  0  0  0  0  0  0  0  0  0  0  0
   -6.7719   -0.1652   -2.6229 Cl  0  0  0  0  0  0  0  0  0  0  0  0
   -5.0713    1.2648   -1.0041 C   0  0  0  0  0  0  0  0  0  0  0  0
   -4.0707    1.3799   -0.0481 C   0  0  0  0  0  0  0  0  0  0  0  0
   -0.2506   -0.8337    0.9268 S   0  0  0  0  0  0  0  0  0  0  0  0
   -0.3434   -1.5484    2.2530 O   0  0  0  0  0  0  0  0  0  0  0  0
   -0.7801   -1.7526   -0.1302 O   0  0  0  0  0  0  0  0  0  0  0  0
    1.4388   -0.5300    0.5962 C   0  0  0  0  0  0  0  0  0  0  0  0
    1.8932   -0.4840   -0.7077 C   0  0  0  0  0  0  0  0  0  0  0  0
    3.2285   -0.2447   -0.9939 C   0  0  0  0  0  0  0  0  0  0  0  0
    4.1593   -0.0423    0.0155 C   0  0  0  0  0  0  0  0  0  0  0  0
    3.7147   -0.0858    1.3397 C   0  0  0  0  0  0  0  0  0  0  0  0
    2.3986   -0.3229    1.5808 C   0  0  0  0  0  0  0  0  0  0  0  0
    5.8526    0.2619   -0.3230 S   0  0  0  0  0  0  0  0  0  0  0  0
    6.6344   -1.2935   -0.3700 N   0  0  0  0  0  0  0  0  0  0  0  0
    6.0321    0.9881   -1.6234 O   0  0  0  0  0  0  0  0  0  0  0  0
    6.4202    1.0078    0.8371 O   0  0  0  0  0  0  0  0  0  0  0  0
    0.0470    1.4219   -0.5323 H   0  0  0  0  0  0  0  0  0  0  0  0
   -1.5480    0.7804   -1.0616 H   0  0  0  0  0  0  0  0  0  0  0  0
   -1.4130    2.3761   -0.1890 H   0  0  0  0  0  0  0  0  0  0  0  0
   -2.3698   -0.2906    2.2907 H   0  0  0  0  0  0  0  0  0  0  0  0
   -2.6954    1.4497    2.0987 H   0  0  0  0  0  0  0  0  0  0  0  0
   -3.4383   -1.8204    0.5718 H   0  0  0  0  0  0  0  0  0  0  0  0
   -5.2262   -2.0767   -1.1362 H   0  0  0  0  0  0  0  0  0  0  0  0
   -5.5580    2.1127   -1.4734 H   0  0  0  0  0  0  0  0  0  0  0  0
   -3.7862    2.3943    0.2191 H   0  0  0  0  0  0  0  0  0  0  0  0
    1.1809   -0.6403   -1.5286 H   0  0  0  0  0  0  0  0  0  0  0  0
    3.5622   -0.2135   -2.0388 H   0  0  0  0  0  0  0  0  0  0  0  0
    4.4174    0.0686    2.1586 H   0  0  0  0  0  0  0  0  0  0  0  0
    2.0630   -0.3544    2.6287 H   0  0  0  0  0  0  0  0  0  0  0  0
    6.6802   -1.6062    0.6439 H   0  0  0  0  0  0  0  0  0  0  0  0
    5.9789   -1.9604   -0.8373 H   0  0  0  0  0  0  0  0  0  0  0  0
  1  2  1  0
  2  3  1  0
  3  4  1  0
  4  5  2  0
  5  6  1  0
  6  7  2  0
  7  8  1  0
  7  9  1  0
  9 10  2  0
  2 11  1  0
 11 12  2  0
 11 13  2  0
 11 14  1  0
 14 15  2  0
 15 16  1  0
 16 17  2  0
 17 18  1  0
 18 19  2  0
 17 20  1  0
 20 21  1  0
 20 22  2  0
 20 23  2  0
 10  4  1  0
 19 14  1  0
  1 24  1  0
  1 25  1  0
  1 26  1  0
  3 27  1  0
  3 28  1  0
  5 29  1  0
  6 30  1  0
  9 31  1  0
 10 32  1  0
 15 33  1  0
 16 34  1  0
 18 35  1  0
 19 36  1  0
 21 37  1  0
 21 38  1  0
M  END
$$$$
