@<TRIPOS>MOLECULE
*****
 38 39 0 0 0
SMALL
GASTEIGER

@<TRIPOS>ATOM
      1 C          -1.0307    1.3321   -0.2616 C.3     1  UNL1        0.0093
      2 N          -1.1011    0.6447    0.9894 N.3     1  UNL1       -0.1753
      3 C          -2.4198    0.5400    1.5341 C.3     1  UNL1        0.0452
      4 C          -3.4758    0.2637    0.5259 C.ar    1  UNL1       -0.0316
      5 C          -3.9211   -0.9726    0.1062 C.ar    1  UNL1       -0.0559
      6 C          -4.9181   -1.0735   -0.8465 C.ar    1  UNL1       -0.0431
      7 C          -5.5124    0.0246   -1.4198 C.ar    1  UNL1        0.0410
      8 CL         -6.7719   -0.1652   -2.6229 Cl      1  UNL1       -0.0835
      9 C          -5.0713    1.2648   -1.0041 C.ar    1  UNL1       -0.0431
     10 C          -4.0707    1.3799   -0.0481 C.ar    1  UNL1       -0.0559
     11 S          -0.2506   -0.8337    0.9268 S.O2    1  UNL1        0.0609
     12 O          -0.3434   -1.5484    2.2530 O.2     1  UNL1       -0.1528
     13 O          -0.7801   -1.7526   -0.1302 O.2     1  UNL1       -0.1528
     14 C           1.4388   -0.5300    0.5962 C.ar    1  UNL1        0.1056
     15 C           1.8932   -0.4840   -0.7077 C.ar    1  UNL1       -0.0335
     16 C           3.2285   -0.2447   -0.9939 C.ar    1  UNL1       -0.0335
     17 C           4.1593   -0.0423    0.0155 C.ar    1  UNL1        0.1051
     18 C           3.7147   -0.0858    1.3397 C.ar    1  UNL1       -0.0335
     19 C           2.3986   -0.3229    1.5808 C.ar    1  UNL1       -0.0335
     20 S           5.8526    0.2619   -0.3230 S.O2    1  UNL1        0.0559
     21 N           6.6344   -1.2935   -0.3700 N.3     1  UNL1       -0.2035
     22 O           6.0321    0.9881   -1.6234 O.2     1  UNL1       -0.1533
     23 O           6.4202    1.0078    0.8371 O.2     1  UNL1       -0.1533
     24 H           0.0470    1.4219   -0.5323 H       1  UNL1        0.0408
     25 H          -1.5480    0.7804   -1.0616 H       1  UNL1        0.0408
     26 H          -1.4130    2.3761   -0.1890 H       1  UNL1        0.0408
     27 H          -2.3698   -0.2906    2.2907 H       1  UNL1        0.0493
     28 H          -2.6954    1.4497    2.0987 H       1  UNL1        0.0493
     29 H          -3.4383   -1.8204    0.5718 H       1  UNL1        0.0621
     30 H          -5.2262   -2.0767   -1.1362 H       1  UNL1        0.0632
     31 H          -5.5580    2.1127   -1.4734 H       1  UNL1        0.0632
     32 H          -3.7862    2.3943    0.2191 H       1  UNL1        0.0621
     33 H           1.1809   -0.6403   -1.5286 H       1  UNL1        0.0638
     34 H           3.5622   -0.2135   -2.0388 H       1  UNL1        0.0638
     35 H           4.4174    0.0686    2.1586 H       1  UNL1        0.0638
     36 H           2.0630   -0.3544    2.6287 H       1  UNL1        0.0638
     37 H           6.6802   -1.6062    0.6439 H       1  UNL1        0.1442
     38 H           5.9789   -1.9604   -0.8373 H       1  UNL1        0.1442
@<TRIPOS>BOND
     1     1     2    1
     2     2     3    1
     3     3     4    1
     4     4     5   ar
     5     5     6   ar
     6     6     7   ar
     7     7     8    1
     8     7     9   ar
     9     9    10   ar
    10     2    11    1
    11    11    12    2
    12    11    13    2
    13    11    14    1
    14    14    15   ar
    15    15    16   ar
    16    16    17   ar
    17    17    18   ar
    18    18    19   ar
    19    17    20    1
    20    20    21    1
    21    20    22    2
    22    20    23    2
    23    10     4   ar
    24    19    14   ar
    25     1    24    1
    26     1    25    1
    27     1    26    1
    28     3    27    1
    29     3    28    1
    30     5    29    1
    31     6    30    1
    32     9    31    1
    33    10    32    1
    34    15    33    1
    35    16    34    1
    36    18    35    1
    37    19    36    1
    38    21    37    1
    39    21    38    1
