@<TRIPOS>MOLECULE
*****
 83 87 0 0 0
SMALL
GASTEIGER

@<TRIPOS>ATOM
      1 O          -9.4807   -2.0891   -1.2033 O.2     1  UNL1       -0.2510
      2 C          -9.6779   -1.6173   -0.0384 C.2     1  UNL1        0.3048
      3 O         -10.9144   -1.6629    0.5822 O.3     1  UNL1       -0.4806
      4 C          -8.5520   -0.9745    0.7352 C.3     1  UNL1        0.0478
      5 C          -7.7681   -2.0342    1.4080 C.3     1  UNL1       -0.0086
      6 C          -6.6241   -1.6129    2.2723 C.3     1  UNL1        0.0901
      7 O          -5.6051   -0.9142    1.7987 O.3     1  UNL1       -0.4917
      8 C          -5.1392    0.2018    1.2596 C.ar    1  UNL1        0.1239
      9 C          -5.9049    1.3157    0.9821 C.ar    1  UNL1       -0.0197
     10 C          -5.3385    2.4321    0.4266 C.ar    1  UNL1       -0.0580
     11 C          -4.0050    2.4707    0.1359 C.ar    1  UNL1       -0.0581
     12 C          -3.1570    1.3608    0.3974 C.ar    1  UNL1       -0.0407
     13 C          -1.7215    1.5430    0.1021 C.3     1  UNL1       -0.0273
     14 C          -1.1936    0.8864   -1.1124 C.3     1  UNL1       -0.0490
     15 C           0.3029    1.1917   -1.3363 C.3     1  UNL1       -0.0527
     16 C           0.5414    2.6371   -1.5366 C.3     1  UNL1       -0.0500
     17 C           1.9818    3.0419   -1.7715 C.3     1  UNL1       -0.0186
     18 C           2.6155    2.3845   -2.9468 C.3     1  UNL1        0.0896
     19 O           2.7267    1.0285   -2.8185 O.3     1  UNL1       -0.4919
     20 C           3.5318    0.3394   -1.9380 C.ar    1  UNL1        0.1217
     21 C           3.4653   -1.0692   -1.9080 C.ar    1  UNL1       -0.0122
     22 C           4.2431   -1.8086   -1.0630 C.ar    1  UNL1       -0.0133
     23 C           4.0953   -3.3027   -1.0603 C.ar    1  UNL1       -0.0107
     24 C           4.3012   -4.0254    0.0119 C.ar    1  UNL1       -0.0470
     25 C           4.1230   -5.4012    0.0131 C.ar    1  UNL1       -0.0237
     26 S           3.6071   -5.6555   -1.7207 S.2     1  UNL1       -0.1045
     27 C           3.6704   -3.9599   -2.2828 C.ar    1  UNL1       -0.0166
     28 C           5.1102   -1.1627   -0.2250 C.ar    1  UNL1       -0.0461
     29 C           5.2337    0.2033   -0.1949 C.ar    1  UNL1       -0.0137
     30 C           6.1352    0.9593    0.6458 C.ar    1  UNL1       -0.0141
     31 C           5.7870    2.2380    1.1031 C.ar    1  UNL1       -0.0503
     32 C           6.6411    2.9950    1.8909 C.ar    1  UNL1       -0.0156
     33 C           7.8851    2.4985    2.2537 C.ar    1  UNL1        0.1663
     34 C           8.2603    1.2430    1.8217 C.ar    1  UNL1        0.1668
     35 C           7.3810    0.5014    1.0299 C.ar    1  UNL1       -0.0084
     36 O           9.5349    1.0267    2.3361 O.3     1  UNL1       -0.4526
     37 C           9.7836    1.9612    3.3582 C.3     1  UNL1        0.2332
     38 O           8.9252    3.0304    3.0201 O.3     1  UNL1       -0.4526
     39 C           4.4158    0.9239   -1.0786 C.ar    1  UNL1       -0.0122
     40 C          -3.7609    0.2759    0.9452 C.ar    1  UNL1       -0.0020
     41 C          -2.9622   -0.9258    1.2974 C.3     1  UNL1       -0.0139
     42 C          -3.3190   -2.1614    0.5390 C.3     1  UNL1        0.0489
     43 C          -3.2211   -2.1376   -0.9058 C.2     1  UNL1        0.3050
     44 O          -2.2368   -2.6175   -1.4986 O.2     1  UNL1       -0.2510
     45 O          -4.2125   -1.5810   -1.7312 O.3     1  UNL1       -0.4806
     46 H         -11.7319   -1.9096    0.0538 H       1  UNL1        0.2951
     47 H          -7.8889   -0.4622   -0.0263 H       1  UNL1        0.0378
     48 H          -8.9970   -0.2704    1.4345 H       1  UNL1        0.0378
     49 H          -8.4679   -2.6122    2.0827 H       1  UNL1        0.0303
     50 H          -7.3930   -2.7411    0.6251 H       1  UNL1        0.0303
     51 H          -6.2066   -2.6180    2.6722 H       1  UNL1        0.0696
     52 H          -7.0754   -1.2086    3.2433 H       1  UNL1        0.0696
     53 H          -6.9696    1.2985    1.2296 H       1  UNL1        0.0654
     54 H          -5.9746    3.2814    0.2243 H       1  UNL1        0.0619
     55 H          -3.5586    3.3560   -0.3048 H       1  UNL1        0.0620
     56 H          -1.1298    1.2636    1.0299 H       1  UNL1        0.0313
     57 H          -1.5215    2.6534    0.0279 H       1  UNL1        0.0313
     58 H          -1.7718    1.1077   -2.0148 H       1  UNL1        0.0268
     59 H          -1.2215   -0.2084   -0.9585 H       1  UNL1        0.0268
     60 H           0.6002    0.5615   -2.2064 H       1  UNL1        0.0265
     61 H           0.8151    0.8330   -0.4135 H       1  UNL1        0.0265
     62 H           0.2285    3.2322   -0.6362 H       1  UNL1        0.0266
     63 H          -0.0748    3.0430   -2.3619 H       1  UNL1        0.0266
     64 H           1.9213    4.1607   -1.9869 H       1  UNL1        0.0298
     65 H           2.5512    2.9851   -0.8407 H       1  UNL1        0.0298
     66 H           2.1333    2.6712   -3.9126 H       1  UNL1        0.0696
     67 H           3.6589    2.8198   -3.0483 H       1  UNL1        0.0696
     68 H           2.7809   -1.5394   -2.5741 H       1  UNL1        0.0660
     69 H           4.6493   -3.5629    1.0128 H       1  UNL1        0.0629
     70 H           4.2302   -6.1849    0.7631 H       1  UNL1        0.0693
     71 H           3.4573   -3.5592   -3.2335 H       1  UNL1        0.0699
     72 H           5.7207   -1.7544    0.4385 H       1  UNL1        0.0630
     73 H           4.8376    2.6474    0.8406 H       1  UNL1        0.0625
     74 H           6.3691    3.9853    2.2437 H       1  UNL1        0.0655
     75 H           7.6720   -0.4859    0.6870 H       1  UNL1        0.0661
     76 H           9.4349    1.5565    4.3396 H       1  UNL1        0.1166
     77 H          10.8460    2.2765    3.4008 H       1  UNL1        0.1166
     78 H           4.5184    2.0040   -1.0917 H       1  UNL1        0.0660
     79 H          -3.2588   -1.1436    2.3747 H       1  UNL1        0.0320
     80 H          -1.8775   -0.7589    1.2269 H       1  UNL1        0.0320
     81 H          -2.6091   -2.9864    0.8914 H       1  UNL1        0.0381
     82 H          -4.3188   -2.5911    0.8730 H       1  UNL1        0.0381
     83 H          -3.8821   -1.1162   -2.5709 H       1  UNL1        0.2951
@<TRIPOS>BOND
     1     1     2    2
     2     2     3    1
     3     2     4    1
     4     4     5    1
     5     5     6    1
     6     6     7    1
     7     7     8    1
     8     8     9   ar
     9     9    10   ar
    10    10    11   ar
    11    11    12   ar
    12    12    13    1
    13    13    14    1
    14    14    15    1
    15    15    16    1
    16    16    17    1
    17    17    18    1
    18    18    19    1
    19    19    20    1
    20    20    21   ar
    21    21    22   ar
    22    22    23    1
    23    23    24   ar
    24    24    25   ar
    25    25    26   ar
    26    26    27   ar
    27    22    28   ar
    28    28    29   ar
    29    29    30    1
    30    30    31   ar
    31    31    32   ar
    32    32    33   ar
    33    33    34   ar
    34    34    35   ar
    35    34    36    1
    36    36    37    1
    37    37    38    1
    38    29    39   ar
    39    12    40   ar
    40    40    41    1
    41    41    42    1
    42    42    43    1
    43    43    44    2
    44    43    45    1
    45    40     8   ar
    46    39    20   ar
    47    27    23   ar
    48    35    30   ar
    49    38    33    1
    50     3    46    1
    51     4    47    1
    52     4    48    1
    53     5    49    1
    54     5    50    1
    55     6    51    1
    56     6    52    1
    57     9    53    1
    58    10    54    1
    59    11    55    1
    60    13    56    1
    61    13    57    1
    62    14    58    1
    63    14    59    1
    64    15    60    1
    65    15    61    1
    66    16    62    1
    67    16    63    1
    68    17    64    1
    69    17    65    1
    70    18    66    1
    71    18    67    1
    72    21    68    1
    73    24    69    1
    74    25    70    1
    75    27    71    1
    76    28    72    1
    77    31    73    1
    78    32    74    1
    79    35    75    1
    80    37    76    1
    81    37    77    1
    82    39    78    1
    83    41    79    1
    84    41    80    1
    85    42    81    1
    86    42    82    1
    87    45    83    1
