@<TRIPOS>MOLECULE
*****
 62 66 0 0 0
SMALL
GASTEIGER

@<TRIPOS>ATOM
      1 C          -3.2740    4.5464   -1.6496 C.3     1  UNL1       -0.0653
      2 C          -2.9351    4.4363   -0.1949 C.3     1  UNL1       -0.0556
      3 C          -3.1751    3.0082    0.3040 C.3     1  UNL1       -0.0478
      4 C          -2.2655    2.1347   -0.5564 C.3     1  UNL1       -0.0084
      5 C          -2.3262    0.7156   -0.2235 C.ar    1  UNL1        0.0677
      6 N          -3.0624   -0.1467   -0.9850 N.ar    1  UNL1       -0.1703
      7 N          -3.0383   -1.3490   -0.5065 N.ar    1  UNL1       -0.2252
      8 C          -3.7214   -2.4691   -1.0947 C.ar    1  UNL1        0.0677
      9 C          -3.3592   -2.9163   -2.3580 C.ar    1  UNL1       -0.0362
     10 C          -3.9732   -3.9796   -2.9735 C.ar    1  UNL1       -0.0584
     11 C          -4.9901   -4.6273   -2.3093 C.ar    1  UNL1       -0.0433
     12 C          -5.3644   -4.2019   -1.0614 C.ar    1  UNL1        0.0430
     13 CL         -6.6583   -5.0347   -0.2163 Cl      1  UNL1       -0.0835
     14 C          -4.7382   -3.1250   -0.4446 C.ar    1  UNL1       -0.0179
     15 C          -2.2669   -1.3272    0.6156 C.ar    1  UNL1        0.1547
     16 C          -2.0467   -2.5187    1.3941 C.2     1  UNL1        0.3557
     17 O          -2.5164   -3.6300    1.0532 O.2     1  UNL1       -0.2434
     18 O          -1.3152   -2.4996    2.5514 O.3     1  UNL1       -0.4761
     19 C          -1.8120   -0.0135    0.7935 C.ar    1  UNL1        0.0123
     20 C          -0.9282    0.4294    1.8605 C.3     1  UNL1        0.0016
     21 C           0.5173    0.4728    1.6067 C.ar    1  UNL1       -0.0429
     22 C           1.1357    1.4421    0.8698 C.ar    1  UNL1       -0.0577
     23 C           2.5265    1.4686    0.6688 C.ar    1  UNL1       -0.0537
     24 C           3.3492    0.5118    1.2088 C.ar    1  UNL1       -0.0172
     25 C           4.8068    0.5401    0.9945 C.ar    1  UNL1       -0.0072
     26 C           5.6493    1.1014    1.9451 C.ar    1  UNL1       -0.0534
     27 C           7.0103    1.1699    1.7823 C.ar    1  UNL1       -0.0611
     28 C           7.5552    0.6563    0.6207 C.ar    1  UNL1       -0.0611
     29 C           6.7618    0.0918   -0.3477 C.ar    1  UNL1       -0.0504
     30 C           5.3773    0.0353   -0.1537 C.ar    1  UNL1        0.0282
     31 C           4.5073   -0.5785   -1.1443 C.ar    1  UNL1        0.1799
     32 N           3.2065   -0.7637   -1.0158 N.ar    1  UNL1       -0.1084
     33 N           2.7712   -1.3652   -2.1076 N.ar    1  UNL1       -0.0229
     34 N           3.8053   -1.5470   -2.9047 N.ar    1  UNL1       -0.0464
     35 N           4.8989   -1.0644   -2.3252 N.ar    1  UNL1       -0.2388
     36 C           2.7502   -0.4727    1.9544 C.ar    1  UNL1       -0.0537
     37 C           1.3858   -0.4946    2.1485 C.ar    1  UNL1       -0.0577
     38 H          -2.3813    4.2125   -2.2537 H       1  UNL1        0.0230
     39 H          -4.1140    3.8550   -1.8791 H       1  UNL1        0.0230
     40 H          -3.5531    5.5738   -1.9428 H       1  UNL1        0.0230
     41 H          -1.8519    4.6454   -0.0062 H       1  UNL1        0.0263
     42 H          -3.5541    5.1547    0.3968 H       1  UNL1        0.0263
     43 H          -2.9365    2.9996    1.3636 H       1  UNL1        0.0269
     44 H          -4.2088    2.6893    0.0570 H       1  UNL1        0.0269
     45 H          -2.6812    2.3081   -1.6064 H       1  UNL1        0.0329
     46 H          -1.2776    2.5833   -0.5899 H       1  UNL1        0.0329
     47 H          -2.5451   -2.3876   -2.8793 H       1  UNL1        0.0639
     48 H          -3.6856   -4.3263   -3.9673 H       1  UNL1        0.0619
     49 H          -5.4925   -5.4802   -2.7856 H       1  UNL1        0.0632
     50 H          -5.0632   -2.8018    0.5588 H       1  UNL1        0.0653
     51 H          -0.7740   -3.2865    2.9192 H       1  UNL1        0.2955
     52 H          -1.3117    1.4587    2.1669 H       1  UNL1        0.0363
     53 H          -1.1654   -0.2156    2.7635 H       1  UNL1        0.0363
     54 H           0.5656    2.2357    0.4346 H       1  UNL1        0.0621
     55 H           2.9676    2.2568    0.0764 H       1  UNL1        0.0624
     56 H           5.2202    1.5021    2.8558 H       1  UNL1        0.0624
     57 H           7.6218    1.6115    2.5454 H       1  UNL1        0.0618
     58 H           8.6313    0.6847    0.4412 H       1  UNL1        0.0618
     59 H           7.1496   -0.3267   -1.2842 H       1  UNL1        0.0625
     60 H           5.8655   -1.0823   -2.7531 H       1  UNL1        0.1923
     61 H           3.3979   -1.2396    2.3878 H       1  UNL1        0.0624
     62 H           0.9290   -1.2603    2.7493 H       1  UNL1        0.0621
@<TRIPOS>BOND
     1     1     2    1
     2     2     3    1
     3     3     4    1
     4     4     5    1
     5     5     6   ar
     6     6     7   ar
     7     7     8    1
     8     8     9   ar
     9     9    10   ar
    10    10    11   ar
    11    11    12   ar
    12    12    13    1
    13    12    14   ar
    14     7    15   ar
    15    15    16    1
    16    16    17    2
    17    16    18    1
    18    15    19   ar
    19    19    20    1
    20    20    21    1
    21    21    22   ar
    22    22    23   ar
    23    23    24   ar
    24    24    25    1
    25    25    26   ar
    26    26    27   ar
    27    27    28   ar
    28    28    29   ar
    29    29    30   ar
    30    30    31    1
    31    31    32   ar
    32    32    33   ar
    33    33    34   ar
    34    34    35   ar
    35    24    36   ar
    36    36    37   ar
    37    19     5   ar
    38    37    21   ar
    39    14     8   ar
    40    30    25   ar
    41    35    31   ar
    42     1    38    1
    43     1    39    1
    44     1    40    1
    45     2    41    1
    46     2    42    1
    47     3    43    1
    48     3    44    1
    49     4    45    1
    50     4    46    1
    51     9    47    1
    52    10    48    1
    53    11    49    1
    54    14    50    1
    55    18    51    1
    56    20    52    1
    57    20    53    1
    58    22    54    1
    59    23    55    1
    60    26    56    1
    61    27    57    1
    62    28    58    1
    63    29    59    1
    64    35    60    1
    65    36    61    1
    66    37    62    1
