
     RDKit          3D

 65 68  0  0  0  0  0  0  0  0999 V2000
   -1.9879   -4.5713   -0.8350 C   0  0  0  0  0  0  0  0  0  0  0  0
   -3.0632   -3.6621   -0.3389 C   0  0  0  0  0  0  0  0  0  0  0  0
   -4.4085   -3.9643   -0.6049 C   0  0  0  0  0  0  0  0  0  0  0  0
   -5.3918   -3.0910   -0.1367 C   0  0  0  0  0  0  0  0  0  0  0  0
   -5.0446   -1.9884    0.5513 C   0  0  0  0  0  0  0  0  0  0  0  0
   -6.0597   -1.0574    0.9875 N   0  0  0  0  0  0  0  0  0  0  0  0
   -6.3658    0.0688    0.1523 C   0  0  0  0  0  0  0  0  0  0  0  0
   -5.6878    0.1283   -0.9333 O   0  0  0  0  0  0  0  0  0  0  0  0
   -7.3368    1.0903    0.4415 C   0  0  0  0  0  0  0  0  0  0  0  0
   -8.1836    1.0397    1.5128 C   0  0  0  0  0  0  0  0  0  0  0  0
   -9.0994    2.0751    1.7570 C   0  0  0  0  0  0  0  0  0  0  0  0
   -9.1545    3.1522    0.9208 C   0  0  0  0  0  0  0  0  0  0  0  0
   -8.3105    3.2200   -0.1604 C   0  0  0  0  0  0  0  0  0  0  0  0
   -8.3601    4.3954   -1.0689 C   0  0  0  0  0  0  0  0  0  0  0  0
   -9.6720    4.7976   -1.1954 F   0  0  0  0  0  0  0  0  0  0  0  0
   -7.6299    5.4235   -0.5021 F   0  0  0  0  0  0  0  0  0  0  0  0
   -7.8072    4.0738   -2.3006 F   0  0  0  0  0  0  0  0  0  0  0  0
   -7.4183    2.1901   -0.3821 C   0  0  0  0  0  0  0  0  0  0  0  0
   -3.7190   -1.7098    0.8037 C   0  0  0  0  0  0  0  0  0  0  0  0
   -2.7028   -2.5478    0.3584 C   0  0  0  0  0  0  0  0  0  0  0  0
   -1.3220   -2.1947    0.6166 C   0  0  0  0  0  0  0  0  0  0  0  0
   -0.9066   -2.1466    1.8105 O   0  0  0  0  0  0  0  0  0  0  0  0
   -0.4059   -1.8890   -0.4451 N   0  0  0  0  0  0  0  0  0  0  0  0
    0.9272   -1.5195   -0.0772 C   0  0  0  0  0  0  0  0  0  0  0  0
    1.9727   -2.3837    0.0747 C   0  0  0  0  0  0  0  0  0  0  0  0
    3.1889   -1.9630    0.4255 N   0  0  0  0  0  0  0  0  0  0  0  0
    3.4269   -0.6756    0.6400 C   0  0  0  0  0  0  0  0  0  0  0  0
    4.7215   -0.1870    1.0190 N   0  0  0  0  0  0  0  0  0  0  0  0
    5.6581    0.3120    0.0315 C   0  0  0  0  0  0  0  0  0  0  0  0
    6.8282    0.9204    0.7833 C   0  0  0  0  0  0  0  0  0  0  0  0
    7.7958    1.4623   -0.1118 N   0  0  0  0  0  0  0  0  0  0  0  0
    8.5280    0.5209   -0.8897 C   0  0  0  0  0  0  0  0  0  0  0  0
    9.7771    1.2087   -1.4075 C   0  0  0  0  0  0  0  0  0  0  0  0
   10.6338    1.6048   -0.4151 O   0  0  0  0  0  0  0  0  0  0  0  0
   10.0236    1.9458    0.7767 C   0  0  0  0  0  0  0  0  0  0  0  0
    8.6079    2.4748    0.5347 C   0  0  0  0  0  0  0  0  0  0  0  0
    2.4013    0.2013    0.4936 N   0  0  0  0  0  0  0  0  0  0  0  0
    1.1623   -0.1526    0.1462 C   0  0  0  0  0  0  0  0  0  0  0  0
   -1.8990   -4.5447   -1.9525 H   0  0  0  0  0  0  0  0  0  0  0  0
   -2.2855   -5.6219   -0.5877 H   0  0  0  0  0  0  0  0  0  0  0  0
   -1.0371   -4.3804   -0.3308 H   0  0  0  0  0  0  0  0  0  0  0  0
   -4.6699   -4.8519   -1.1581 H   0  0  0  0  0  0  0  0  0  0  0  0
   -6.4292   -3.3755   -0.3711 H   0  0  0  0  0  0  0  0  0  0  0  0
   -6.5888   -1.1457    1.8729 H   0  0  0  0  0  0  0  0  0  0  0  0
   -8.1711    0.2097    2.1985 H   0  0  0  0  0  0  0  0  0  0  0  0
   -9.7659    2.0299    2.6051 H   0  0  0  0  0  0  0  0  0  0  0  0
   -9.8343    3.9819    1.0528 H   0  0  0  0  0  0  0  0  0  0  0  0
   -6.7454    2.2465   -1.2484 H   0  0  0  0  0  0  0  0  0  0  0  0
   -3.4102   -0.8310    1.3561 H   0  0  0  0  0  0  0  0  0  0  0  0
   -0.7531   -1.9525   -1.4134 H   0  0  0  0  0  0  0  0  0  0  0  0
    1.8165   -3.4367   -0.0892 H   0  0  0  0  0  0  0  0  0  0  0  0
    5.0080   -0.1844    2.0170 H   0  0  0  0  0  0  0  0  0  0  0  0
    5.2066    1.0226   -0.6918 H   0  0  0  0  0  0  0  0  0  0  0  0
    5.9831   -0.5783   -0.5568 H   0  0  0  0  0  0  0  0  0  0  0  0
    7.2337    0.1278    1.4505 H   0  0  0  0  0  0  0  0  0  0  0  0
    6.3898    1.7181    1.4221 H   0  0  0  0  0  0  0  0  0  0  0  0
    7.9195    0.2471   -1.7669 H   0  0  0  0  0  0  0  0  0  0  0  0
    8.8653   -0.3842   -0.3789 H   0  0  0  0  0  0  0  0  0  0  0  0
   10.3009    0.4797   -2.0590 H   0  0  0  0  0  0  0  0  0  0  0  0
    9.4122    2.0404   -2.0655 H   0  0  0  0  0  0  0  0  0  0  0  0
   10.0155    1.1081    1.5004 H   0  0  0  0  0  0  0  0  0  0  0  0
   10.5791    2.7824    1.2508 H   0  0  0  0  0  0  0  0  0  0  0  0
    8.6945    3.3856   -0.0979 H   0  0  0  0  0  0  0  0  0  0  0  0
    8.1918    2.7469    1.5082 H   0  0  0  0  0  0  0  0  0  0  0  0
    0.3573    0.5588    0.0305 H   0  0  0  0  0  0  0  0  0  0  0  0
  1  2  1  0
  2  3  2  0
  3  4  1  0
  4  5  2  0
  5  6  1  0
  6  7  1  0
  7  8  2  0
  7  9  1  0
  9 10  2  0
 10 11  1  0
 11 12  2  0
 12 13  1  0
 13 14  1  0
 14 15  1  0
 14 16  1  0
 14 17  1  0
 13 18  2  0
  5 19  1  0
 19 20  2  0
 20 21  1  0
 21 22  2  0
 21 23  1  0
 23 24  1  0
 24 25  2  0
 25 26  1  0
 26 27  2  0
 27 28  1  0
 28 29  1  0
 29 30  1  0
 30 31  1  0
 31 32  1  0
 32 33  1  0
 33 34  1  0
 34 35  1  0
 35 36  1  0
 27 37  1  0
 37 38  2  0
 20  2  1  0
 38 24  1  0
 18  9  1  0
 36 31  1  0
  1 39  1  0
  1 40  1  0
  1 41  1  0
  3 42  1  0
  4 43  1  0
  6 44  1  0
 10 45  1  0
 11 46  1  0
 12 47  1  0
 18 48  1  0
 19 49  1  0
 23 50  1  0
 25 51  1  0
 28 52  1  0
 29 53  1  0
 29 54  1  0
 30 55  1  0
 30 56  1  0
 32 57  1  0
 32 58  1  0
 33 59  1  0
 33 60  1  0
 35 61  1  0
 35 62  1  0
 36 63  1  0
 36 64  1  0
 38 65  1  0
M  END
$$$$
