@<TRIPOS>MOLECULE
*****
 65 68 0 0 0
SMALL
GASTEIGER

@<TRIPOS>ATOM
      1 C          -1.9879   -4.5713   -0.8350 C.3     1  UNL1       -0.0390
      2 C          -3.0632   -3.6621   -0.3389 C.ar    1  UNL1       -0.0382
      3 C          -4.4085   -3.9643   -0.6049 C.ar    1  UNL1       -0.0564
      4 C          -5.3918   -3.0910   -0.1367 C.ar    1  UNL1       -0.0402
      5 C          -5.0446   -1.9884    0.5513 C.ar    1  UNL1        0.0344
      6 N          -6.0597   -1.0574    0.9875 N.am    1  UNL1       -0.2815
      7 C          -6.3658    0.0688    0.1523 C.2     1  UNL1        0.2483
      8 O          -5.6878    0.1283   -0.9333 O.2     1  UNL1       -0.2699
      9 C          -7.3368    1.0903    0.4415 C.ar    1  UNL1        0.0376
     10 C          -8.1836    1.0397    1.5128 C.ar    1  UNL1       -0.0496
     11 C          -9.0994    2.0751    1.7570 C.ar    1  UNL1       -0.0605
     12 C          -9.1545    3.1522    0.9208 C.ar    1  UNL1       -0.0501
     13 C          -8.3105    3.2200   -0.1604 C.ar    1  UNL1        0.0555
     14 C          -8.3601    4.3954   -1.0689 C.3     1  UNL1        0.4174
     15 F          -9.6720    4.7976   -1.1954 F       1  UNL1       -0.1659
     16 F          -7.6299    5.4235   -0.5021 F       1  UNL1       -0.1659
     17 F          -7.8072    4.0738   -2.3006 F       1  UNL1       -0.1659
     18 C          -7.4183    2.1901   -0.3821 C.ar    1  UNL1       -0.0380
     19 C          -3.7190   -1.7098    0.8037 C.ar    1  UNL1       -0.0281
     20 C          -2.7028   -2.5478    0.3584 C.ar    1  UNL1        0.0417
     21 C          -1.3220   -2.1947    0.6166 C.2     1  UNL1        0.2486
     22 O          -0.9066   -2.1466    1.8105 O.2     1  UNL1       -0.2698
     23 N          -0.4059   -1.8890   -0.4451 N.am    1  UNL1       -0.2790
     24 C           0.9272   -1.5195   -0.0772 C.ar    1  UNL1        0.0704
     25 C           1.9727   -2.3837    0.0747 C.ar    1  UNL1        0.0539
     26 N           3.1889   -1.9630    0.4255 N.ar    1  UNL1       -0.2211
     27 C           3.4269   -0.6756    0.6400 C.ar    1  UNL1        0.2153
     28 N           4.7215   -0.1870    1.0190 N.pl3   1  UNL1       -0.3122
     29 C           5.6581    0.3120    0.0315 C.3     1  UNL1        0.0246
     30 C           6.8282    0.9204    0.7833 C.3     1  UNL1        0.0146
     31 N           7.7958    1.4623   -0.1118 N.3     1  UNL1       -0.2965
     32 C           8.5280    0.5209   -0.8897 C.3     1  UNL1        0.0225
     33 C           9.7771    1.2087   -1.4075 C.3     1  UNL1        0.0604
     34 O          10.6338    1.6048   -0.4151 O.3     1  UNL1       -0.3772
     35 C          10.0236    1.9458    0.7767 C.3     1  UNL1        0.0604
     36 C           8.6079    2.4748    0.5347 C.3     1  UNL1        0.0225
     37 N           2.4013    0.2013    0.4936 N.ar    1  UNL1       -0.2211
     38 C           1.1623   -0.1526    0.1462 C.ar    1  UNL1        0.0539
     39 H          -1.8990   -4.5447   -1.9525 H       1  UNL1        0.0278
     40 H          -2.2855   -5.6219   -0.5877 H       1  UNL1        0.0278
     41 H          -1.0371   -4.3804   -0.3308 H       1  UNL1        0.0278
     42 H          -4.6699   -4.8519   -1.1581 H       1  UNL1        0.0621
     43 H          -6.4292   -3.3755   -0.3711 H       1  UNL1        0.0636
     44 H          -6.5888   -1.1457    1.8729 H       1  UNL1        0.1551
     45 H          -8.1711    0.2097    2.1985 H       1  UNL1        0.0625
     46 H          -9.7659    2.0299    2.6051 H       1  UNL1        0.0618
     47 H          -9.8343    3.9819    1.0528 H       1  UNL1        0.0623
     48 H          -6.7454    2.2465   -1.2484 H       1  UNL1        0.0631
     49 H          -3.4102   -0.8310    1.3561 H       1  UNL1        0.0644
     50 H          -0.7531   -1.9525   -1.4134 H       1  UNL1        0.1552
     51 H           1.8165   -3.4367   -0.0892 H       1  UNL1        0.0850
     52 H           5.0080   -0.1844    2.0170 H       1  UNL1        0.1489
     53 H           5.2066    1.0226   -0.6918 H       1  UNL1        0.0475
     54 H           5.9831   -0.5783   -0.5568 H       1  UNL1        0.0475
     55 H           7.2337    0.1278    1.4505 H       1  UNL1        0.0442
     56 H           6.3898    1.7181    1.4221 H       1  UNL1        0.0442
     57 H           7.9195    0.2471   -1.7669 H       1  UNL1        0.0449
     58 H           8.8653   -0.3842   -0.3789 H       1  UNL1        0.0449
     59 H          10.3009    0.4797   -2.0590 H       1  UNL1        0.0572
     60 H           9.4122    2.0404   -2.0655 H       1  UNL1        0.0572
     61 H          10.0155    1.1081    1.5004 H       1  UNL1        0.0572
     62 H          10.5791    2.7824    1.2508 H       1  UNL1        0.0572
     63 H           8.6945    3.3856   -0.0979 H       1  UNL1        0.0449
     64 H           8.1918    2.7469    1.5082 H       1  UNL1        0.0449
     65 H           0.3573    0.5588    0.0305 H       1  UNL1        0.0850
@<TRIPOS>BOND
     1     1     2    1
     2     2     3   ar
     3     3     4   ar
     4     4     5   ar
     5     5     6    1
     6     6     7   am
     7     7     8    2
     8     7     9    1
     9     9    10   ar
    10    10    11   ar
    11    11    12   ar
    12    12    13   ar
    13    13    14    1
    14    14    15    1
    15    14    16    1
    16    14    17    1
    17    13    18   ar
    18     5    19   ar
    19    19    20   ar
    20    20    21    1
    21    21    22    2
    22    21    23   am
    23    23    24    1
    24    24    25   ar
    25    25    26   ar
    26    26    27   ar
    27    27    28    1
    28    28    29    1
    29    29    30    1
    30    30    31    1
    31    31    32    1
    32    32    33    1
    33    33    34    1
    34    34    35    1
    35    35    36    1
    36    27    37   ar
    37    37    38   ar
    38    20     2   ar
    39    38    24   ar
    40    18     9   ar
    41    36    31    1
    42     1    39    1
    43     1    40    1
    44     1    41    1
    45     3    42    1
    46     4    43    1
    47     6    44    1
    48    10    45    1
    49    11    46    1
    50    12    47    1
    51    18    48    1
    52    19    49    1
    53    23    50    1
    54    25    51    1
    55    28    52    1
    56    29    53    1
    57    29    54    1
    58    30    55    1
    59    30    56    1
    60    32    57    1
    61    32    58    1
    62    33    59    1
    63    33    60    1
    64    35    61    1
    65    35    62    1
    66    36    63    1
    67    36    64    1
    68    38    65    1
