@<TRIPOS>MOLECULE
*****
 40 43 0 0 0
SMALL
GASTEIGER

@<TRIPOS>ATOM
      1 O           4.5642   -1.8008   -1.5578 O.2     1  UNL1       -0.2490
      2 C           4.9004   -1.9685   -0.3691 C.2     1  UNL1        0.3247
      3 O           5.9107   -2.9019   -0.1285 O.3     1  UNL1       -0.4794
      4 C           4.3389   -1.2869    0.7908 C.3     1  UNL1        0.1202
      5 N           3.2696   -0.3687    0.5254 N.ar    1  UNL1       -0.3356
      6 C           1.9667   -0.7173    0.5581 C.ar    1  UNL1        0.0095
      7 C           1.1803    0.3773    0.2851 C.ar    1  UNL1       -0.0218
      8 C          -0.3008    0.4649    0.2516 C.3     1  UNL1       -0.0198
      9 C          -0.8891   -0.8829   -0.0706 C.3     1  UNL1        0.0001
     10 C          -2.3615   -0.8408   -0.0497 C.ar    1  UNL1        0.0800
     11 N          -3.3436   -0.6485   -0.7225 N.ar    1  UNL1       -0.2409
     12 C          -4.5897   -0.6510   -0.4200 C.ar    1  UNL1        0.1192
     13 C          -5.7136   -0.4157   -1.2277 C.ar    1  UNL1        0.1849
     14 F          -5.5840   -0.1415   -2.5536 F       1  UNL1       -0.2002
     15 C          -6.9666   -0.4560   -0.7134 C.ar    1  UNL1        0.1633
     16 F          -8.0240   -0.2178   -1.5469 F       1  UNL1       -0.2023
     17 C          -7.2482   -0.7226    0.6041 C.ar    1  UNL1        0.0129
     18 C          -6.1452   -0.9625    1.4367 C.ar    1  UNL1        0.1420
     19 F          -6.3018   -1.2343    2.7505 F       1  UNL1       -0.2042
     20 C          -4.9238   -0.9190    0.9157 C.ar    1  UNL1        0.0773
     21 S          -3.2383   -1.1516    1.6028 S.2     1  UNL1       -0.0691
     22 C           2.0498    1.4567    0.0706 C.ar    1  UNL1        0.0030
     23 C           1.8387    2.7655   -0.2242 C.ar    1  UNL1       -0.0523
     24 C           2.9478    3.6017   -0.3654 C.ar    1  UNL1       -0.0611
     25 C           4.2435    3.0929   -0.2051 C.ar    1  UNL1       -0.0598
     26 C           4.4275    1.7655    0.0926 C.ar    1  UNL1       -0.0376
     27 C           3.3261    0.9497    0.2295 C.ar    1  UNL1        0.0498
     28 H           6.6925   -3.0461   -0.7684 H       1  UNL1        0.2951
     29 H           5.1168   -0.8180    1.4690 H       1  UNL1        0.0607
     30 H           3.9188   -2.1002    1.4559 H       1  UNL1        0.0607
     31 H           1.5558   -1.7147    0.7703 H       1  UNL1        0.0812
     32 H          -0.6046    1.1335   -0.6110 H       1  UNL1        0.0318
     33 H          -0.7360    0.9240    1.1473 H       1  UNL1        0.0318
     34 H          -0.5424   -1.6312    0.6381 H       1  UNL1        0.0337
     35 H          -0.5987   -1.1425   -1.1060 H       1  UNL1        0.0337
     36 H          -8.2235   -0.7634    1.0431 H       1  UNL1        0.0676
     37 H           0.8337    3.1613   -0.3498 H       1  UNL1        0.0624
     38 H           2.7857    4.6283   -0.5945 H       1  UNL1        0.0618
     39 H           5.0543    3.8111   -0.3295 H       1  UNL1        0.0618
     40 H           5.4139    1.3720    0.2155 H       1  UNL1        0.0638
@<TRIPOS>BOND
     1     1     2    2
     2     2     3    1
     3     2     4    1
     4     4     5    1
     5     5     6   ar
     6     6     7   ar
     7     7     8    1
     8     8     9    1
     9     9    10    1
    10    10    11   ar
    11    11    12   ar
    12    12    13   ar
    13    13    14    1
    14    13    15   ar
    15    15    16    1
    16    15    17   ar
    17    17    18   ar
    18    18    19    1
    19    18    20   ar
    20    20    21   ar
    21     7    22   ar
    22    22    23   ar
    23    23    24   ar
    24    24    25   ar
    25    25    26   ar
    26    26    27   ar
    27    27     5   ar
    28    21    10   ar
    29    27    22   ar
    30    20    12   ar
    31     3    28    1
    32     4    29    1
    33     4    30    1
    34     6    31    1
    35     8    32    1
    36     8    33    1
    37     9    34    1
    38     9    35    1
    39    17    36    1
    40    23    37    1
    41    24    38    1
    42    25    39    1
    43    26    40    1
