@<TRIPOS>MOLECULE
*****
 34 36 0 0 0
SMALL
GASTEIGER

@<TRIPOS>ATOM
      1 C           5.4342   -0.3972   -0.0112 C.3     1  UNL1        0.0819
      2 O           4.5617   -0.4801   -1.1167 O.3     1  UNL1       -0.4657
      3 C           3.2016   -0.3453   -0.9138 C.ar    1  UNL1        0.3208
      4 N           2.3936   -0.4280   -1.9813 N.ar    1  UNL1       -0.2025
      5 C           1.0470   -0.3061   -1.8643 C.ar    1  UNL1        0.0458
      6 C           0.5082   -0.0923   -0.6139 C.ar    1  UNL1        0.0626
      7 C          -0.9228    0.0476   -0.4151 C.ar    1  UNL1       -0.0001
      8 C          -1.6441   -1.1241   -0.1593 C.ar    1  UNL1       -0.0414
      9 C          -3.0066   -1.0766    0.0407 C.ar    1  UNL1        0.0574
     10 C          -3.7536   -2.3412    0.3119 C.3     1  UNL1        0.4175
     11 F          -3.8916   -3.0336   -0.8902 F       1  UNL1       -0.1659
     12 F          -5.0174   -2.0381    0.8202 F       1  UNL1       -0.1659
     13 F          -3.1327   -3.1369    1.2251 F       1  UNL1       -0.1659
     14 C          -3.6440    0.1428   -0.0156 C.ar    1  UNL1       -0.0246
     15 C          -2.9359    1.2999   -0.2675 C.ar    1  UNL1        0.0668
     16 N          -3.2689    2.6037   -0.3804 N.ar    1  UNL1       -0.2769
     17 N          -2.1898    3.3064   -0.6315 N.ar    1  UNL1       -0.1812
     18 C          -1.1078    2.5132   -0.6957 C.ar    1  UNL1        0.0575
     19 C          -1.5740    1.2386   -0.4657 C.ar    1  UNL1        0.0274
     20 C           1.3295   -0.0070    0.4798 C.ar    1  UNL1        0.2283
     21 O           0.7598    0.2074    1.7163 O.3     1  UNL1       -0.4791
     22 C           1.5809    0.3005    2.8666 C.3     1  UNL1        0.0804
     23 N           2.6649   -0.1336    0.3223 N.ar    1  UNL1       -0.1591
     24 H           5.4411    0.6788    0.3259 H       1  UNL1        0.0661
     25 H           5.0108   -1.0227    0.8008 H       1  UNL1        0.0661
     26 H           6.4602   -0.7349   -0.2722 H       1  UNL1        0.0661
     27 H           0.4142   -0.3763   -2.7400 H       1  UNL1        0.0839
     28 H          -1.1420   -2.0801   -0.1156 H       1  UNL1        0.0629
     29 H          -4.7037    0.1864    0.1392 H       1  UNL1        0.0644
     30 H          -4.2711    2.9187   -0.2683 H       1  UNL1        0.1889
     31 H          -0.0697    2.7938   -0.8878 H       1  UNL1        0.0854
     32 H           1.4944   -0.6633    3.4430 H       1  UNL1        0.0660
     33 H           1.3172    1.1691    3.4996 H       1  UNL1        0.0660
     34 H           2.6563    0.4106    2.6151 H       1  UNL1        0.0660
@<TRIPOS>BOND
     1     1     2    1
     2     2     3    1
     3     3     4   ar
     4     4     5   ar
     5     5     6   ar
     6     6     7    1
     7     7     8   ar
     8     8     9   ar
     9     9    10    1
    10    10    11    1
    11    10    12    1
    12    10    13    1
    13     9    14   ar
    14    14    15   ar
    15    15    16   ar
    16    16    17   ar
    17    17    18   ar
    18    18    19   ar
    19     6    20   ar
    20    20    21    1
    21    21    22    1
    22    20    23   ar
    23    23     3   ar
    24    19     7   ar
    25    19    15   ar
    26     1    24    1
    27     1    25    1
    28     1    26    1
    29     5    27    1
    30     8    28    1
    31    14    29    1
    32    16    30    1
    33    18    31    1
    34    22    32    1
    35    22    33    1
    36    22    34    1
