
     RDKit          3D

 34 36  0  0  0  0  0  0  0  0999 V2000
    5.4342   -0.3972   -0.0112 C   0  0  0  0  0  0  0  0  0  0  0  0
    4.5617   -0.4801   -1.1167 O   0  0  0  0  0  0  0  0  0  0  0  0
    3.2016   -0.3453   -0.9138 C   0  0  0  0  0  0  0  0  0  0  0  0
    2.3936   -0.4280   -1.9813 N   0  0  0  0  0  0  0  0  0  0  0  0
    1.0470   -0.3061   -1.8643 C   0  0  0  0  0  0  0  0  0  0  0  0
    0.5082   -0.0923   -0.6139 C   0  0  0  0  0  0  0  0  0  0  0  0
   -0.9228    0.0476   -0.4151 C   0  0  0  0  0  0  0  0  0  0  0  0
   -1.6441   -1.1241   -0.1593 C   0  0  0  0  0  0  0  0  0  0  0  0
   -3.0066   -1.0766    0.0407 C   0  0  0  0  0  0  0  0  0  0  0  0
   -3.7536   -2.3412    0.3119 C   0  0  0  0  0  0  0  0  0  0  0  0
   -3.8916   -3.0336   -0.8902 F   0  0  0  0  0  0  0  0  0  0  0  0
   -5.0174   -2.0381    0.8202 F   0  0  0  0  0  0  0  0  0  0  0  0
   -3.1327   -3.1369    1.2251 F   0  0  0  0  0  0  0  0  0  0  0  0
   -3.6440    0.1428   -0.0156 C   0  0  0  0  0  0  0  0  0  0  0  0
   -2.9359    1.2999   -0.2675 C   0  0  0  0  0  0  0  0  0  0  0  0
   -3.2689    2.6037   -0.3804 N   0  0  0  0  0  0  0  0  0  0  0  0
   -2.1898    3.3064   -0.6315 N   0  0  0  0  0  0  0  0  0  0  0  0
   -1.1078    2.5132   -0.6957 C   0  0  0  0  0  0  0  0  0  0  0  0
   -1.5740    1.2386   -0.4657 C   0  0  0  0  0  0  0  0  0  0  0  0
    1.3295   -0.0070    0.4798 C   0  0  0  0  0  0  0  0  0  0  0  0
    0.7598    0.2074    1.7163 O   0  0  0  0  0  0  0  0  0  0  0  0
    1.5809    0.3005    2.8666 C   0  0  0  0  0  0  0  0  0  0  0  0
    2.6649   -0.1336    0.3223 N   0  0  0  0  0  0  0  0  0  0  0  0
    5.4411    0.6788    0.3259 H   0  0  0  0  0  0  0  0  0  0  0  0
    5.0108   -1.0227    0.8008 H   0  0  0  0  0  0  0  0  0  0  0  0
    6.4602   -0.7349   -0.2722 H   0  0  0  0  0  0  0  0  0  0  0  0
    0.4142   -0.3763   -2.7400 H   0  0  0  0  0  0  0  0  0  0  0  0
   -1.1420   -2.0801   -0.1156 H   0  0  0  0  0  0  0  0  0  0  0  0
   -4.7037    0.1864    0.1392 H   0  0  0  0  0  0  0  0  0  0  0  0
   -4.2711    2.9187   -0.2683 H   0  0  0  0  0  0  0  0  0  0  0  0
   -0.0697    2.7938   -0.8878 H   0  0  0  0  0  0  0  0  0  0  0  0
    1.4944   -0.6633    3.4430 H   0  0  0  0  0  0  0  0  0  0  0  0
    1.3172    1.1691    3.4996 H   0  0  0  0  0  0  0  0  0  0  0  0
    2.6563    0.4106    2.6151 H   0  0  0  0  0  0  0  0  0  0  0  0
  1  2  1  0
  2  3  1  0
  3  4  2  0
  4  5  1  0
  5  6  2  0
  6  7  1  0
  7  8  2  0
  8  9  1  0
  9 10  1  0
 10 11  1  0
 10 12  1  0
 10 13  1  0
  9 14  2  0
 14 15  1  0
 15 16  1  0
 16 17  1  0
 17 18  2  0
 18 19  1  0
  6 20  1  0
 20 21  1  0
 21 22  1  0
 20 23  2  0
 23  3  1  0
 19  7  1  0
 19 15  2  0
  1 24  1  0
  1 25  1  0
  1 26  1  0
  5 27  1  0
  8 28  1  0
 14 29  1  0
 16 30  1  0
 18 31  1  0
 22 32  1  0
 22 33  1  0
 22 34  1  0
M  END
$$$$
