@<TRIPOS>MOLECULE
*****
 53 56 0 0 0
SMALL
GASTEIGER

@<TRIPOS>ATOM
      1 C          -1.2368    0.2313    0.8987 C.3     1  UNL1       -0.0319
      2 C          -2.3071   -0.5165    1.5833 C.3     1  UNL1       -0.0488
      3 C          -3.4016    0.5516    1.5493 C.3     1  UNL1       -0.0427
      4 C          -3.2607    1.0621    0.1126 C.3     1  UNL1        0.0229
      5 C          -4.3924    0.4783   -0.6508 C.2     1  UNL1        0.1339
      6 C          -4.9146   -0.8571   -0.9385 C.3     1  UNL1       -0.0058
      7 O          -5.1514    1.2746   -1.2322 O.2     1  UNL1       -0.2974
      8 C          -1.9320    0.6779   -0.3966 C.3     1  UNL1       -0.0195
      9 C          -1.8965   -0.3948   -1.4427 C.3     1  UNL1       -0.0587
     10 C          -1.0803    1.8517   -0.8406 C.3     1  UNL1       -0.0464
     11 C           0.3460    1.4745   -1.0236 C.3     1  UNL1       -0.0486
     12 C           0.9330    0.6888    0.1143 C.3     1  UNL1       -0.0288
     13 C          -0.0033   -0.4594    0.5007 C.3     1  UNL1       -0.0338
     14 C           0.6324   -1.3063    1.5695 C.3     1  UNL1       -0.0459
     15 C           1.7676   -2.0342    0.8392 C.3     1  UNL1       -0.0305
     16 C           2.7345   -1.0001    0.4361 C.2     1  UNL1       -0.0601
     17 C           4.0107   -1.2929    0.6265 C.2     1  UNL1       -0.0194
     18 C           5.0539   -0.3172    0.2526 C.2     1  UNL1        0.1561
     19 O           6.1902   -0.6853   -0.0700 O.2     1  UNL1       -0.2927
     20 C           4.6797    1.1081    0.2818 C.3     1  UNL1        0.0107
     21 C           3.2269    1.3658    0.3899 C.3     1  UNL1       -0.0367
     22 C           2.3261    0.2742   -0.1394 C.3     1  UNL1       -0.0072
     23 C           2.5818    0.2284   -1.6486 C.3     1  UNL1       -0.0556
     24 H          -1.0204    1.1603    1.4621 H       1  UNL1        0.0309
     25 H          -2.0223   -0.6212    2.6612 H       1  UNL1        0.0268
     26 H          -2.6021   -1.4584    1.1288 H       1  UNL1        0.0268
     27 H          -4.3920    0.1651    1.7842 H       1  UNL1        0.0272
     28 H          -3.0437    1.3604    2.2190 H       1  UNL1        0.0272
     29 H          -3.3688    2.1818    0.1436 H       1  UNL1        0.0383
     30 H          -5.9826   -0.9494   -0.6089 H       1  UNL1        0.0306
     31 H          -4.3068   -1.7031   -0.5340 H       1  UNL1        0.0306
     32 H          -4.9514   -1.0184   -2.0337 H       1  UNL1        0.0306
     33 H          -2.0022   -1.4248   -1.0533 H       1  UNL1        0.0235
     34 H          -2.7162   -0.2339   -2.1714 H       1  UNL1        0.0235
     35 H          -0.9630   -0.3176   -2.0635 H       1  UNL1        0.0235
     36 H          -1.4679    2.1962   -1.8187 H       1  UNL1        0.0271
     37 H          -1.1649    2.6489   -0.0768 H       1  UNL1        0.0271
     38 H           0.5477    1.0492   -2.0275 H       1  UNL1        0.0268
     39 H           0.9169    2.4506   -1.0284 H       1  UNL1        0.0268
     40 H           0.8852    1.3903    0.9997 H       1  UNL1        0.0312
     41 H          -0.0991   -1.1055   -0.3924 H       1  UNL1        0.0307
     42 H          -0.1222   -2.0913    1.8409 H       1  UNL1        0.0271
     43 H           0.9691   -0.7666    2.4549 H       1  UNL1        0.0271
     44 H           1.2849   -2.4341   -0.0885 H       1  UNL1        0.0310
     45 H           2.1778   -2.8194    1.4714 H       1  UNL1        0.0310
     46 H           4.3190   -2.2539    1.0605 H       1  UNL1        0.0652
     47 H           5.0950    1.6198   -0.5987 H       1  UNL1        0.0345
     48 H           5.2008    1.5445    1.1818 H       1  UNL1        0.0345
     49 H           2.9439    1.4757    1.4769 H       1  UNL1        0.0278
     50 H           2.9111    2.3186   -0.0826 H       1  UNL1        0.0278
     51 H           3.6091   -0.1757   -1.8581 H       1  UNL1        0.0238
     52 H           1.8790   -0.4958   -2.1130 H       1  UNL1        0.0238
     53 H           2.5801    1.2294   -2.1071 H       1  UNL1        0.0238
@<TRIPOS>BOND
     1     1     2    1
     2     2     3    1
     3     3     4    1
     4     4     5    1
     5     5     6    1
     6     5     7    2
     7     4     8    1
     8     8     9    1
     9     8    10    1
    10    10    11    1
    11    11    12    1
    12    12    13    1
    13    13    14    1
    14    14    15    1
    15    15    16    1
    16    16    17    2
    17    17    18    1
    18    18    19    2
    19    18    20    1
    20    20    21    1
    21    21    22    1
    22    22    23    1
    23     8     1    1
    24    22    12    1
    25    13     1    1
    26    22    16    1
    27     1    24    1
    28     2    25    1
    29     2    26    1
    30     3    27    1
    31     3    28    1
    32     4    29    1
    33     6    30    1
    34     6    31    1
    35     6    32    1
    36     9    33    1
    37     9    34    1
    38     9    35    1
    39    10    36    1
    40    10    37    1
    41    11    38    1
    42    11    39    1
    43    12    40    1
    44    13    41    1
    45    14    42    1
    46    14    43    1
    47    15    44    1
    48    15    45    1
    49    17    46    1
    50    20    47    1
    51    20    48    1
    52    21    49    1
    53    21    50    1
    54    23    51    1
    55    23    52    1
    56    23    53    1
