
     RDKit          3D

 61 68  0  0  0  0  0  0  0  0999 V2000
   -5.2539    0.3049    0.6673 C   0  0  0  0  0  0  0  0  0  0  0  0
   -4.2199   -0.6006    1.1127 N   0  0  0  0  0  0  0  0  0  0  0  0
   -3.1640   -0.6249    0.1553 C   0  0  2  0  0  0  0  0  0  0  0  0
   -2.0709   -1.6369    0.5464 C   0  0  0  0  0  0  0  0  0  0  0  0
   -1.2211   -1.7734   -0.7063 C   0  0  1  0  0  0  0  0  0  0  0  0
   -1.3475   -0.7500   -1.5739 O   0  0  0  0  0  0  0  0  0  0  0  0
   -1.4249    0.5414   -1.0520 C   0  0  1  0  0  0  0  0  0  0  0  0
   -1.9442    1.3599   -2.2469 C   0  0  0  0  0  0  0  0  0  0  0  0
   -2.3953    0.6960    0.0648 C   0  0  2  0  0  0  0  0  0  0  0  0
   -1.7790    0.8907    1.2981 O   0  0  0  0  0  0  0  0  0  0  0  0
   -2.3039    2.0041    1.9311 C   0  0  0  0  0  0  0  0  0  0  0  0
   -0.1220    1.0581   -0.6994 N   0  0  0  0  0  0  0  0  0  0  0  0
    0.2545    2.3569   -0.6748 C   0  0  0  0  0  0  0  0  0  0  0  0
   -0.4355    3.5163   -0.8748 C   0  0  0  0  0  0  0  0  0  0  0  0
    0.2213    4.7538   -0.7677 C   0  0  0  0  0  0  0  0  0  0  0  0
    1.5587    4.8201   -0.4609 C   0  0  0  0  0  0  0  0  0  0  0  0
    2.2659    3.6572   -0.2549 C   0  0  0  0  0  0  0  0  0  0  0  0
    1.5996    2.4640   -0.3660 C   0  0  0  0  0  0  0  0  0  0  0  0
    2.0455    1.1776   -0.1924 C   0  0  0  0  0  0  0  0  0  0  0  0
    3.2618    0.5980    0.1329 C   0  0  0  0  0  0  0  0  0  0  0  0
    3.4073   -0.7843    0.2536 C   0  0  0  0  0  0  0  0  0  0  0  0
    2.3204   -1.6193    0.0488 C   0  0  0  0  0  0  0  0  0  0  0  0
    2.1235   -2.9652    0.1152 C   0  0  0  0  0  0  0  0  0  0  0  0
    2.9344   -4.0389    0.3873 C   0  0  0  0  0  0  0  0  0  0  0  0
    2.3548   -5.3112    0.3620 C   0  0  0  0  0  0  0  0  0  0  0  0
    1.0271   -5.5042    0.0783 C   0  0  0  0  0  0  0  0  0  0  0  0
    0.2348   -4.4104   -0.1913 C   0  0  0  0  0  0  0  0  0  0  0  0
    0.7840   -3.1498   -0.1719 C   0  0  0  0  0  0  0  0  0  0  0  0
    0.1850   -1.9887   -0.4039 N   0  0  0  0  0  0  0  0  0  0  0  0
    1.1131   -1.0283   -0.2764 C   0  0  0  0  0  0  0  0  0  0  0  0
    0.9892    0.3488   -0.3958 C   0  0  0  0  0  0  0  0  0  0  0  0
    4.7924   -1.0434    0.5965 C   0  0  0  0  0  0  0  0  0  0  0  0
    5.4013   -2.1185    0.8070 O   0  0  0  0  0  0  0  0  0  0  0  0
    5.4651    0.2313    0.6757 N   0  0  0  0  0  0  0  0  0  0  0  0
    4.5413    1.2982    0.3938 C   0  0  0  0  0  0  0  0  0  0  0  0
   -5.4836    1.0952    1.3930 H   0  0  0  0  0  0  0  0  0  0  0  0
   -6.2047   -0.2668    0.5129 H   0  0  0  0  0  0  0  0  0  0  0  0
   -5.0266    0.7600   -0.3346 H   0  0  0  0  0  0  0  0  0  0  0  0
   -4.6291   -1.5291    1.2840 H   0  0  0  0  0  0  0  0  0  0  0  0
   -3.4729   -0.9048   -0.8684 H   0  0  0  0  0  0  0  0  0  0  0  0
   -1.4712   -1.2283    1.3858 H   0  0  0  0  0  0  0  0  0  0  0  0
   -2.5799   -2.5628    0.8197 H   0  0  0  0  0  0  0  0  0  0  0  0
   -1.5819   -2.6988   -1.2111 H   0  0  0  0  0  0  0  0  0  0  0  0
   -2.8392    1.9450   -2.0108 H   0  0  0  0  0  0  0  0  0  0  0  0
   -1.1899    1.9666   -2.7275 H   0  0  0  0  0  0  0  0  0  0  0  0
   -2.3045    0.6611   -3.0725 H   0  0  0  0  0  0  0  0  0  0  0  0
   -3.1511    1.4896   -0.0766 H   0  0  0  0  0  0  0  0  0  0  0  0
   -1.8054    2.1701    2.9296 H   0  0  0  0  0  0  0  0  0  0  0  0
   -2.2217    2.9295    1.3263 H   0  0  0  0  0  0  0  0  0  0  0  0
   -3.3832    1.8922    2.2015 H   0  0  0  0  0  0  0  0  0  0  0  0
   -1.4915    3.5012   -1.0885 H   0  0  0  0  0  0  0  0  0  0  0  0
   -0.3653    5.6581   -0.9361 H   0  0  0  0  0  0  0  0  0  0  0  0
    2.0877    5.7627   -0.3731 H   0  0  0  0  0  0  0  0  0  0  0  0
    3.3167    3.6380   -0.0107 H   0  0  0  0  0  0  0  0  0  0  0  0
    3.9696   -3.9308    0.6115 H   0  0  0  0  0  0  0  0  0  0  0  0
    2.9975   -6.1426    0.5761 H   0  0  0  0  0  0  0  0  0  0  0  0
    0.6067   -6.5216    0.0679 H   0  0  0  0  0  0  0  0  0  0  0  0
   -0.8185   -4.5439   -0.4180 H   0  0  0  0  0  0  0  0  0  0  0  0
    6.4987    0.3110    0.9129 H   0  0  0  0  0  0  0  0  0  0  0  0
    4.8637    1.8712   -0.5060 H   0  0  0  0  0  0  0  0  0  0  0  0
    4.4805    1.9491    1.2950 H   0  0  0  0  0  0  0  0  0  0  0  0
  1  2  1  0
  2  3  1  0
  3  4  1  0
  4  5  1  0
  5  6  1  0
  6  7  1  0
  7  8  1  6
  7  9  1  0
  9 10  1  0
 10 11  1  0
  7 12  1  0
 12 13  1  0
 13 14  2  0
 14 15  1  0
 15 16  2  0
 16 17  1  0
 17 18  2  0
 18 19  1  0
 19 20  2  0
 20 21  1  0
 21 22  2  0
 22 23  1  0
 23 24  2  0
 24 25  1  0
 25 26  2  0
 26 27  1  0
 27 28  2  0
 28 29  1  0
 29 30  1  0
 30 31  2  0
 21 32  1  0
 32 33  2  0
 32 34  1  0
 34 35  1  0
  9  3  1  0
 31 12  1  0
 29  5  1  0
 18 13  1  0
 31 19  1  0
 35 20  1  0
 30 22  1  0
 28 23  1  0
  1 36  1  0
  1 37  1  0
  1 38  1  0
  2 39  1  0
  3 40  1  6
  4 41  1  0
  4 42  1  0
  5 43  1  6
  8 44  1  0
  8 45  1  0
  8 46  1  0
  9 47  1  6
 11 48  1  0
 11 49  1  0
 11 50  1  0
 14 51  1  0
 15 52  1  0
 16 53  1  0
 17 54  1  0
 24 55  1  0
 25 56  1  0
 26 57  1  0
 27 58  1  0
 34 59  1  0
 35 60  1  0
 35 61  1  0
M  END
$$$$
