@<TRIPOS>MOLECULE
*****
 61 68 0 0 0
SMALL
GASTEIGER

@<TRIPOS>ATOM
      1 C          -5.2539    0.3049    0.6673 C.3     1  UNL1       -0.0155
      2 N          -4.2199   -0.6006    1.1127 N.3     1  UNL1       -0.3136
      3 C          -3.1640   -0.6249    0.1553 C.3     1  UNL1        0.0423
      4 C          -2.0709   -1.6369    0.5464 C.3     1  UNL1        0.0107
      5 C          -1.2211   -1.7734   -0.7063 C.3     1  UNL1        0.1402
      6 O          -1.3475   -0.7500   -1.5739 O.3     1  UNL1       -0.3282
      7 C          -1.4249    0.5414   -1.0520 C.3     1  UNL1        0.1741
      8 C          -1.9442    1.3599   -2.2469 C.3     1  UNL1       -0.0136
      9 C          -2.3953    0.6960    0.0648 C.3     1  UNL1        0.1214
     10 O          -1.7790    0.8907    1.2981 O.3     1  UNL1       -0.3735
     11 C          -2.3039    2.0041    1.9311 C.3     1  UNL1        0.0371
     12 N          -0.1220    1.0581   -0.6994 N.ar    1  UNL1       -0.3070
     13 C           0.2545    2.3569   -0.6748 C.ar    1  UNL1        0.0527
     14 C          -0.4355    3.5163   -0.8748 C.ar    1  UNL1       -0.0375
     15 C           0.2213    4.7538   -0.7677 C.ar    1  UNL1       -0.0598
     16 C           1.5587    4.8201   -0.4609 C.ar    1  UNL1       -0.0611
     17 C           2.2659    3.6572   -0.2549 C.ar    1  UNL1       -0.0520
     18 C           1.5996    2.4640   -0.3660 C.ar    1  UNL1        0.0081
     19 C           2.0455    1.1776   -0.1924 C.ar    1  UNL1        0.0151
     20 C           3.2618    0.5980    0.1329 C.ar    1  UNL1       -0.0078
     21 C           3.4073   -0.7843    0.2536 C.ar    1  UNL1        0.0518
     22 C           2.3204   -1.6193    0.0488 C.ar    1  UNL1        0.0221
     23 C           2.1235   -2.9652    0.1152 C.ar    1  UNL1        0.0085
     24 C           2.9344   -4.0389    0.3873 C.ar    1  UNL1       -0.0520
     25 C           2.3548   -5.3112    0.3620 C.ar    1  UNL1       -0.0611
     26 C           1.0271   -5.5042    0.0783 C.ar    1  UNL1       -0.0598
     27 C           0.2348   -4.4104   -0.1913 C.ar    1  UNL1       -0.0375
     28 C           0.7840   -3.1498   -0.1719 C.ar    1  UNL1        0.0524
     29 N           0.1850   -1.9887   -0.4039 N.ar    1  UNL1       -0.3115
     30 C           1.1131   -1.0283   -0.2764 C.ar    1  UNL1        0.0774
     31 C           0.9892    0.3488   -0.3958 C.ar    1  UNL1        0.0772
     32 C           4.7924   -1.0434    0.5965 C.2     1  UNL1        0.2453
     33 O           5.4013   -2.1185    0.8070 O.2     1  UNL1       -0.2702
     34 N           5.4651    0.2313    0.6757 N.am    1  UNL1       -0.3072
     35 C           4.5413    1.2982    0.3938 C.3     1  UNL1        0.0385
     36 H          -5.4836    1.0952    1.3930 H       1  UNL1        0.0388
     37 H          -6.2047   -0.2668    0.5129 H       1  UNL1        0.0388
     38 H          -5.0266    0.7600   -0.3346 H       1  UNL1        0.0388
     39 H          -4.6291   -1.5291    1.2840 H       1  UNL1        0.1220
     40 H          -3.4729   -0.9048   -0.8684 H       1  UNL1        0.0489
     41 H          -1.4712   -1.2283    1.3858 H       1  UNL1        0.0325
     42 H          -2.5799   -2.5628    0.8197 H       1  UNL1        0.0325
     43 H          -1.5819   -2.6988   -1.2111 H       1  UNL1        0.0839
     44 H          -2.8392    1.9450   -2.0108 H       1  UNL1        0.0277
     45 H          -1.1899    1.9666   -2.7275 H       1  UNL1        0.0277
     46 H          -2.3045    0.6611   -3.0725 H       1  UNL1        0.0277
     47 H          -3.1511    1.4896   -0.0766 H       1  UNL1        0.0660
     48 H          -1.8054    2.1701    2.9296 H       1  UNL1        0.0524
     49 H          -2.2217    2.9295    1.3263 H       1  UNL1        0.0524
     50 H          -3.3832    1.8922    2.2015 H       1  UNL1        0.0524
     51 H          -1.4915    3.5012   -1.0885 H       1  UNL1        0.0638
     52 H          -0.3653    5.6581   -0.9361 H       1  UNL1        0.0618
     53 H           2.0877    5.7627   -0.3731 H       1  UNL1        0.0618
     54 H           3.3167    3.6380   -0.0107 H       1  UNL1        0.0624
     55 H           3.9696   -3.9308    0.6115 H       1  UNL1        0.0624
     56 H           2.9975   -6.1426    0.5761 H       1  UNL1        0.0618
     57 H           0.6067   -6.5216    0.0679 H       1  UNL1        0.0618
     58 H          -0.8185   -4.5439   -0.4180 H       1  UNL1        0.0638
     59 H           6.4987    0.3110    0.9129 H       1  UNL1        0.1493
     60 H           4.8637    1.8712   -0.5060 H       1  UNL1        0.0512
     61 H           4.4805    1.9491    1.2950 H       1  UNL1        0.0512
@<TRIPOS>BOND
     1     1     2    1
     2     2     3    1
     3     3     4    1
     4     4     5    1
     5     5     6    1
     6     6     7    1
     7     7     8    1
     8     7     9    1
     9     9    10    1
    10    10    11    1
    11     7    12    1
    12    12    13   ar
    13    13    14   ar
    14    14    15   ar
    15    15    16   ar
    16    16    17   ar
    17    17    18   ar
    18    18    19   ar
    19    19    20   ar
    20    20    21   ar
    21    21    22   ar
    22    22    23   ar
    23    23    24   ar
    24    24    25   ar
    25    25    26   ar
    26    26    27   ar
    27    27    28   ar
    28    28    29   ar
    29    29    30   ar
    30    30    31   ar
    31    21    32    1
    32    32    33    2
    33    32    34   am
    34    34    35    1
    35     9     3    1
    36    31    12   ar
    37    29     5    1
    38    18    13   ar
    39    31    19   ar
    40    35    20    1
    41    30    22   ar
    42    28    23   ar
    43     1    36    1
    44     1    37    1
    45     1    38    1
    46     2    39    1
    47     3    40    1
    48     4    41    1
    49     4    42    1
    50     5    43    1
    51     8    44    1
    52     8    45    1
    53     8    46    1
    54     9    47    1
    55    11    48    1
    56    11    49    1
    57    11    50    1
    58    14    51    1
    59    15    52    1
    60    16    53    1
    61    17    54    1
    62    24    55    1
    63    25    56    1
    64    26    57    1
    65    27    58    1
    66    34    59    1
    67    35    60    1
    68    35    61    1
