@<TRIPOS>MOLECULE
*****
 54 57 0 0 0
SMALL
GASTEIGER

@<TRIPOS>ATOM
      1 N          -2.5441   -0.5461   -2.1161 N.3     1  UNL1       -0.3265
      2 C          -3.1408   -0.8137   -0.8557 C.3     1  UNL1        0.0172
      3 C          -2.4021   -1.8852   -0.1145 C.3     1  UNL1        0.0396
      4 C          -0.9788   -1.5670    0.1634 C.2     1  UNL1        0.2177
      5 O          -0.3355   -1.0542   -0.8046 O.2     1  UNL1       -0.2755
      6 N          -0.3716   -1.8145    1.4183 N.am    1  UNL1       -0.2897
      7 C          -1.0419   -2.3357    2.5746 C.3     1  UNL1        0.0155
      8 C           0.0021   -3.1645    3.2659 C.3     1  UNL1       -0.0350
      9 C           1.3014   -2.9042    2.5446 C.3     1  UNL1       -0.0241
     10 C           0.9737   -1.6126    1.8072 C.3     1  UNL1        0.1048
     11 C           1.9455   -1.3554    0.7440 C.ar    1  UNL1        0.2492
     12 N           2.8957   -0.3796    0.8597 N.ar    1  UNL1       -0.1767
     13 C           3.6429   -0.3765   -0.2585 C.ar    1  UNL1        0.2580
     14 N           4.7742    0.4515   -0.6070 N.pl3   1  UNL1       -0.2972
     15 C           5.4999    0.4738   -1.8364 C.3     1  UNL1        0.0150
     16 C           6.2479    1.7660   -1.8413 C.3     1  UNL1       -0.0357
     17 C           5.7291    2.5501   -0.6348 C.3     1  UNL1       -0.0357
     18 C           5.3723    1.4153    0.2851 C.3     1  UNL1        0.0150
     19 N           3.1237   -1.3509   -1.0239 N.ar    1  UNL1       -0.0400
     20 O           2.1275   -1.9045   -0.4032 O.2     1  UNL1       -0.3344
     21 C          -3.3564    0.3782    0.0367 C.3     1  UNL1       -0.0092
     22 C          -4.2403    1.4052   -0.4941 C.ar    1  UNL1       -0.0078
     23 C          -4.8752    1.2825   -1.7014 C.ar    1  UNL1       -0.0176
     24 C          -5.7336    2.2653   -2.1839 C.ar    1  UNL1        0.1588
     25 F          -6.3318    2.0838   -3.3783 F       1  UNL1       -0.2025
     26 C          -5.9579    3.4009   -1.4294 C.ar    1  UNL1        0.1611
     27 F          -6.8090    4.3434   -1.9291 F       1  UNL1       -0.2024
     28 C          -5.3329    3.5447   -0.2184 C.ar    1  UNL1        0.0119
     29 C          -4.4770    2.5443    0.2413 C.ar    1  UNL1        0.1295
     30 F          -3.8695    2.7018    1.4327 F       1  UNL1       -0.2051
     31 H          -2.0486   -1.3821   -2.4650 H       1  UNL1        0.1185
     32 H          -1.9098    0.2580   -2.0328 H       1  UNL1        0.1185
     33 H          -4.1861   -1.2438   -1.0272 H       1  UNL1        0.0466
     34 H          -2.3973   -2.7739   -0.8257 H       1  UNL1        0.0374
     35 H          -2.9726   -2.2358    0.7433 H       1  UNL1        0.0374
     36 H          -1.2580   -1.4550    3.2533 H       1  UNL1        0.0465
     37 H          -1.9675   -2.8996    2.3599 H       1  UNL1        0.0465
     38 H          -0.2610   -4.2411    3.2824 H       1  UNL1        0.0281
     39 H           0.1666   -2.8094    4.3254 H       1  UNL1        0.0281
     40 H           2.1575   -2.7771    3.2442 H       1  UNL1        0.0288
     41 H           1.5238   -3.6576    1.7607 H       1  UNL1        0.0288
     42 H           0.9767   -0.8295    2.6040 H       1  UNL1        0.0599
     43 H           4.8269    0.3600   -2.7153 H       1  UNL1        0.0464
     44 H           6.2496   -0.3635   -1.7979 H       1  UNL1        0.0464
     45 H           7.3479    1.6254   -1.6563 H       1  UNL1        0.0281
     46 H           6.0589    2.3731   -2.7382 H       1  UNL1        0.0281
     47 H           4.8112    3.1106   -0.8624 H       1  UNL1        0.0281
     48 H           6.5170    3.1426   -0.1718 H       1  UNL1        0.0281
     49 H           6.2600    0.9559    0.7702 H       1  UNL1        0.0464
     50 H           4.6364    1.7142    1.0623 H       1  UNL1        0.0464
     51 H          -3.7969   -0.0146    0.9832 H       1  UNL1        0.0329
     52 H          -2.3430    0.7605    0.2956 H       1  UNL1        0.0329
     53 H          -4.7091    0.4038   -2.2942 H       1  UNL1        0.0651
     54 H          -5.5201    4.4370    0.3597 H       1  UNL1        0.0676
@<TRIPOS>BOND
     1     1     2    1
     2     2     3    1
     3     3     4    1
     4     4     5    2
     5     4     6   am
     6     6     7    1
     7     7     8    1
     8     8     9    1
     9     9    10    1
    10    10    11    1
    11    11    12   ar
    12    12    13   ar
    13    13    14    1
    14    14    15    1
    15    15    16    1
    16    16    17    1
    17    17    18    1
    18    13    19   ar
    19    19    20   ar
    20     2    21    1
    21    21    22    1
    22    22    23   ar
    23    23    24   ar
    24    24    25    1
    25    24    26   ar
    26    26    27    1
    27    26    28   ar
    28    28    29   ar
    29    29    30    1
    30    10     6    1
    31    20    11   ar
    32    29    22   ar
    33    18    14    1
    34     1    31    1
    35     1    32    1
    36     2    33    1
    37     3    34    1
    38     3    35    1
    39     7    36    1
    40     7    37    1
    41     8    38    1
    42     8    39    1
    43     9    40    1
    44     9    41    1
    45    10    42    1
    46    15    43    1
    47    15    44    1
    48    16    45    1
    49    16    46    1
    50    17    47    1
    51    17    48    1
    52    18    49    1
    53    18    50    1
    54    21    51    1
    55    21    52    1
    56    23    53    1
    57    28    54    1
