
     RDKit          3D

 54 57  0  0  0  0  0  0  0  0999 V2000
   -2.5441   -0.5461   -2.1161 N   0  0  0  0  0  0  0  0  0  0  0  0
   -3.1408   -0.8137   -0.8557 C   0  0  1  0  0  0  0  0  0  0  0  0
   -2.4021   -1.8852   -0.1145 C   0  0  0  0  0  0  0  0  0  0  0  0
   -0.9788   -1.5670    0.1634 C   0  0  0  0  0  0  0  0  0  0  0  0
   -0.3355   -1.0542   -0.8046 O   0  0  0  0  0  0  0  0  0  0  0  0
   -0.3716   -1.8145    1.4183 N   0  0  0  0  0  0  0  0  0  0  0  0
   -1.0419   -2.3357    2.5746 C   0  0  0  0  0  0  0  0  0  0  0  0
    0.0021   -3.1645    3.2659 C   0  0  0  0  0  0  0  0  0  0  0  0
    1.3014   -2.9042    2.5446 C   0  0  0  0  0  0  0  0  0  0  0  0
    0.9737   -1.6126    1.8072 C   0  0  1  0  0  0  0  0  0  0  0  0
    1.9455   -1.3554    0.7440 C   0  0  0  0  0  0  0  0  0  0  0  0
    2.8957   -0.3796    0.8597 N   0  0  0  0  0  0  0  0  0  0  0  0
    3.6429   -0.3765   -0.2585 C   0  0  0  0  0  0  0  0  0  0  0  0
    4.7742    0.4515   -0.6070 N   0  0  0  0  0  0  0  0  0  0  0  0
    5.4999    0.4738   -1.8364 C   0  0  0  0  0  0  0  0  0  0  0  0
    6.2479    1.7660   -1.8413 C   0  0  0  0  0  0  0  0  0  0  0  0
    5.7291    2.5501   -0.6348 C   0  0  0  0  0  0  0  0  0  0  0  0
    5.3723    1.4153    0.2851 C   0  0  0  0  0  0  0  0  0  0  0  0
    3.1237   -1.3509   -1.0239 N   0  0  0  0  0  0  0  0  0  0  0  0
    2.1275   -1.9045   -0.4032 O   0  0  0  0  0  0  0  0  0  0  0  0
   -3.3564    0.3782    0.0367 C   0  0  0  0  0  0  0  0  0  0  0  0
   -4.2403    1.4052   -0.4941 C   0  0  0  0  0  0  0  0  0  0  0  0
   -4.8752    1.2825   -1.7014 C   0  0  0  0  0  0  0  0  0  0  0  0
   -5.7336    2.2653   -2.1839 C   0  0  0  0  0  0  0  0  0  0  0  0
   -6.3318    2.0838   -3.3783 F   0  0  0  0  0  0  0  0  0  0  0  0
   -5.9579    3.4009   -1.4294 C   0  0  0  0  0  0  0  0  0  0  0  0
   -6.8090    4.3434   -1.9291 F   0  0  0  0  0  0  0  0  0  0  0  0
   -5.3329    3.5447   -0.2184 C   0  0  0  0  0  0  0  0  0  0  0  0
   -4.4770    2.5443    0.2413 C   0  0  0  0  0  0  0  0  0  0  0  0
   -3.8695    2.7018    1.4327 F   0  0  0  0  0  0  0  0  0  0  0  0
   -2.0486   -1.3821   -2.4650 H   0  0  0  0  0  0  0  0  0  0  0  0
   -1.9098    0.2580   -2.0328 H   0  0  0  0  0  0  0  0  0  0  0  0
   -4.1861   -1.2438   -1.0272 H   0  0  0  0  0  0  0  0  0  0  0  0
   -2.3973   -2.7739   -0.8257 H   0  0  0  0  0  0  0  0  0  0  0  0
   -2.9726   -2.2358    0.7433 H   0  0  0  0  0  0  0  0  0  0  0  0
   -1.2580   -1.4550    3.2533 H   0  0  0  0  0  0  0  0  0  0  0  0
   -1.9675   -2.8996    2.3599 H   0  0  0  0  0  0  0  0  0  0  0  0
   -0.2610   -4.2411    3.2824 H   0  0  0  0  0  0  0  0  0  0  0  0
    0.1666   -2.8094    4.3254 H   0  0  0  0  0  0  0  0  0  0  0  0
    2.1575   -2.7771    3.2442 H   0  0  0  0  0  0  0  0  0  0  0  0
    1.5238   -3.6576    1.7607 H   0  0  0  0  0  0  0  0  0  0  0  0
    0.9767   -0.8295    2.6040 H   0  0  0  0  0  0  0  0  0  0  0  0
    4.8269    0.3600   -2.7153 H   0  0  0  0  0  0  0  0  0  0  0  0
    6.2496   -0.3635   -1.7979 H   0  0  0  0  0  0  0  0  0  0  0  0
    7.3479    1.6254   -1.6563 H   0  0  0  0  0  0  0  0  0  0  0  0
    6.0589    2.3731   -2.7382 H   0  0  0  0  0  0  0  0  0  0  0  0
    4.8112    3.1106   -0.8624 H   0  0  0  0  0  0  0  0  0  0  0  0
    6.5170    3.1426   -0.1718 H   0  0  0  0  0  0  0  0  0  0  0  0
    6.2600    0.9559    0.7702 H   0  0  0  0  0  0  0  0  0  0  0  0
    4.6364    1.7142    1.0623 H   0  0  0  0  0  0  0  0  0  0  0  0
   -3.7969   -0.0146    0.9832 H   0  0  0  0  0  0  0  0  0  0  0  0
   -2.3430    0.7605    0.2956 H   0  0  0  0  0  0  0  0  0  0  0  0
   -4.7091    0.4038   -2.2942 H   0  0  0  0  0  0  0  0  0  0  0  0
   -5.5201    4.4370    0.3597 H   0  0  0  0  0  0  0  0  0  0  0  0
  1  2  1  0
  2  3  1  0
  3  4  1  0
  4  5  2  0
  4  6  1  0
  6  7  1  0
  7  8  1  0
  8  9  1  0
  9 10  1  0
 10 11  1  0
 11 12  2  0
 12 13  1  0
 13 14  1  0
 14 15  1  0
 15 16  1  0
 16 17  1  0
 17 18  1  0
 13 19  2  0
 19 20  1  0
  2 21  1  0
 21 22  1  0
 22 23  2  0
 23 24  1  0
 24 25  1  0
 24 26  2  0
 26 27  1  0
 26 28  1  0
 28 29  2  0
 29 30  1  0
 10  6  1  0
 20 11  1  0
 29 22  1  0
 18 14  1  0
  1 31  1  0
  1 32  1  0
  2 33  1  6
  3 34  1  0
  3 35  1  0
  7 36  1  0
  7 37  1  0
  8 38  1  0
  8 39  1  0
  9 40  1  0
  9 41  1  0
 10 42  1  1
 15 43  1  0
 15 44  1  0
 16 45  1  0
 16 46  1  0
 17 47  1  0
 17 48  1  0
 18 49  1  0
 18 50  1  0
 21 51  1  0
 21 52  1  0
 23 53  1  0
 28 54  1  0
M  END
$$$$
