
     RDKit          3D

 30 31  0  0  0  0  0  0  0  0999 V2000
    0.1177    2.4793    1.1448 C   0  0  0  0  0  0  0  0  0  0  0  0
   -0.7590    2.0062    0.0553 C   0  0  0  0  0  0  0  0  0  0  0  0
   -1.2812    0.6352    0.1559 C   0  0  0  0  0  0  0  0  0  0  0  0
   -0.5522   -0.5269   -0.1015 C   0  0  0  0  0  0  0  0  0  0  0  0
   -1.0800   -1.7962    0.0032 C   0  0  0  0  0  0  0  0  0  0  0  0
   -0.2762   -2.9386   -0.2757 N   0  0  0  0  0  0  0  0  0  0  0  0
   -2.3833   -1.9397    0.3777 N   0  0  0  0  0  0  0  0  0  0  0  0
   -3.0968   -0.8259    0.6287 C   0  0  0  0  0  0  0  0  0  0  0  0
   -4.4568   -0.9746    1.0201 N   0  0  0  0  0  0  0  0  0  0  0  0
   -2.5772    0.4096    0.5251 N   0  0  0  0  0  0  0  0  0  0  0  0
    0.8489   -0.3107   -0.4996 C   0  0  0  0  0  0  0  0  0  0  0  0
    1.7047   -0.2888    0.5857 C   0  0  0  0  0  0  0  0  0  0  0  0
    3.0616   -0.0873    0.3117 C   0  0  0  0  0  0  0  0  0  0  0  0
    3.5294    0.0822   -0.9786 C   0  0  0  0  0  0  0  0  0  0  0  0
    5.2275    0.3357   -1.3282 Cl  0  0  0  0  0  0  0  0  0  0  0  0
    2.6371    0.0506   -2.0083 C   0  0  0  0  0  0  0  0  0  0  0  0
    1.2807   -0.1454   -1.8015 C   0  0  0  0  0  0  0  0  0  0  0  0
    1.1985    2.5499    0.8169 H   0  0  0  0  0  0  0  0  0  0  0  0
   -0.1278    3.5528    1.3531 H   0  0  0  0  0  0  0  0  0  0  0  0
    0.0137    1.9642    2.1178 H   0  0  0  0  0  0  0  0  0  0  0  0
   -0.1963    2.1431   -0.9089 H   0  0  0  0  0  0  0  0  0  0  0  0
   -1.6319    2.6821   -0.0439 H   0  0  0  0  0  0  0  0  0  0  0  0
   -0.1432   -2.9410   -1.3208 H   0  0  0  0  0  0  0  0  0  0  0  0
    0.0433   -3.5609    0.5161 H   0  0  0  0  0  0  0  0  0  0  0  0
   -5.3308   -0.9269    0.4280 H   0  0  0  0  0  0  0  0  0  0  0  0
   -4.4717   -1.1521    2.0540 H   0  0  0  0  0  0  0  0  0  0  0  0
    1.4053   -0.4139    1.6178 H   0  0  0  0  0  0  0  0  0  0  0  0
    3.7557   -0.0666    1.1496 H   0  0  0  0  0  0  0  0  0  0  0  0
    2.9930    0.1823   -3.0231 H   0  0  0  0  0  0  0  0  0  0  0  0
    0.5474   -0.1780   -2.5713 H   0  0  0  0  0  0  0  0  0  0  0  0
  1  2  1  0
  2  3  1  0
  3  4  2  0
  4  5  1  0
  5  6  1  0
  5  7  2  0
  7  8  1  0
  8  9  1  0
  8 10  2  0
  4 11  1  0
 11 12  2  0
 12 13  1  0
 13 14  2  0
 14 15  1  0
 14 16  1  0
 16 17  2  0
 10  3  1  0
 17 11  1  0
  1 18  1  0
  1 19  1  0
  1 20  1  0
  2 21  1  0
  2 22  1  0
  6 23  1  0
  6 24  1  0
  9 25  1  0
  9 26  1  0
 12 27  1  0
 13 28  1  0
 16 29  1  0
 17 30  1  0
M  END
$$$$
