
     RDKit          3D

 48 51  0  0  0  0  0  0  0  0999 V2000
    3.7200    0.5213   -2.6257 C   0  0  0  0  0  0  0  0  0  0  0  0
    4.1071   -0.2097   -1.3879 C   0  0  0  0  0  0  0  0  0  0  0  0
    5.3088   -0.9192   -1.3326 C   0  0  0  0  0  0  0  0  0  0  0  0
    5.6966   -1.6068   -0.2011 C   0  0  0  0  0  0  0  0  0  0  0  0
    6.9899   -2.3678   -0.1473 C   0  0  0  0  0  0  0  0  0  0  0  0
    7.7135   -2.0062   -1.2679 F   0  0  0  0  0  0  0  0  0  0  0  0
    7.6750   -2.1277    1.0085 F   0  0  0  0  0  0  0  0  0  0  0  0
    6.7328   -3.7255   -0.2639 F   0  0  0  0  0  0  0  0  0  0  0  0
    4.8535   -1.5747    0.8904 C   0  0  0  0  0  0  0  0  0  0  0  0
    3.6989   -0.8895    0.8284 N   0  0  0  0  0  0  0  0  0  0  0  0
    3.3199   -0.2195   -0.2724 C   0  0  0  0  0  0  0  0  0  0  0  0
    2.0529    0.5082   -0.2819 C   0  0  0  0  0  0  0  0  0  0  0  0
    1.6483    1.1504   -1.2798 O   0  0  0  0  0  0  0  0  0  0  0  0
    1.2008    0.5191    0.8738 N   0  0  0  0  0  0  0  0  0  0  0  0
   -0.0217    1.2307    0.8419 C   0  0  0  0  0  0  0  0  0  0  0  0
   -0.0353    2.5479    1.2316 C   0  0  0  0  0  0  0  0  0  0  0  0
   -1.2316    3.2393    1.1991 C   0  0  0  0  0  0  0  0  0  0  0  0
   -2.4133    2.6384    0.7845 C   0  0  0  0  0  0  0  0  0  0  0  0
   -3.5479    3.3849    0.7868 F   0  0  0  0  0  0  0  0  0  0  0  0
   -2.3954    1.3209    0.3954 C   0  0  0  0  0  0  0  0  0  0  0  0
   -3.5997    0.6003   -0.0664 C   0  0  1  0  0  0  0  0  0  0  0  0
   -4.1607    1.1523   -1.3737 C   0  0  0  0  0  0  0  0  0  0  0  0
   -4.5350    2.4522   -1.3171 F   0  0  0  0  0  0  0  0  0  0  0  0
   -5.2893    0.3949   -1.6506 F   0  0  0  0  0  0  0  0  0  0  0  0
   -3.2124   -0.7564   -0.3823 N   0  0  0  0  0  0  0  0  0  0  0  0
   -3.1881   -1.6918    0.4908 C   0  0  0  0  0  0  0  0  0  0  0  0
   -2.7952   -3.0356    0.1382 N   0  0  0  0  0  0  0  0  0  0  0  0
   -3.5513   -1.3738    1.7875 O   0  0  0  0  0  0  0  0  0  0  0  0
   -4.4945   -0.3833    2.0574 C   0  0  2  0  0  0  0  0  0  0  0  0
   -5.7230   -0.3549    1.1236 C   0  0  0  0  0  0  0  0  0  0  0  0
   -4.6278    0.6617    1.0331 C   0  0  2  0  0  0  0  0  0  0  0  0
   -1.1941    0.6488    0.4348 C   0  0  0  0  0  0  0  0  0  0  0  0
    3.6261    1.6212   -2.4404 H   0  0  0  0  0  0  0  0  0  0  0  0
    4.5498    0.4208   -3.3672 H   0  0  0  0  0  0  0  0  0  0  0  0
    2.8265    0.0910   -3.1088 H   0  0  0  0  0  0  0  0  0  0  0  0
    5.9380   -0.9163   -2.2121 H   0  0  0  0  0  0  0  0  0  0  0  0
    5.1553   -2.1182    1.7913 H   0  0  0  0  0  0  0  0  0  0  0  0
    1.4949    0.0005    1.7249 H   0  0  0  0  0  0  0  0  0  0  0  0
    0.8432    3.0781    1.5647 H   0  0  0  0  0  0  0  0  0  0  0  0
   -1.2678    4.2919    1.5055 H   0  0  0  0  0  0  0  0  0  0  0  0
   -3.4345    0.9247   -2.1797 H   0  0  0  0  0  0  0  0  0  0  0  0
   -3.1377   -3.5218   -0.7079 H   0  0  0  0  0  0  0  0  0  0  0  0
   -2.1389   -3.5283    0.7682 H   0  0  0  0  0  0  0  0  0  0  0  0
   -4.6590   -0.0885    3.1141 H   0  0  0  0  0  0  0  0  0  0  0  0
   -6.6909   -0.0824    1.5696 H   0  0  0  0  0  0  0  0  0  0  0  0
   -5.7657   -1.1623    0.3516 H   0  0  0  0  0  0  0  0  0  0  0  0
   -4.9255    1.6695    1.3766 H   0  0  0  0  0  0  0  0  0  0  0  0
   -1.1156   -0.4089    0.1352 H   0  0  0  0  0  0  0  0  0  0  0  0
  1  2  1  0
  2  3  2  0
  3  4  1  0
  4  5  1  0
  5  6  1  0
  5  7  1  0
  5  8  1  0
  4  9  2  0
  9 10  1  0
 10 11  2  0
 11 12  1  0
 12 13  2  0
 12 14  1  0
 14 15  1  0
 15 16  2  0
 16 17  1  0
 17 18  2  0
 18 19  1  0
 18 20  1  0
 20 21  1  0
 21 22  1  6
 22 23  1  0
 22 24  1  0
 21 25  1  0
 25 26  2  0
 26 27  1  0
 26 28  1  0
 28 29  1  0
 29 30  1  0
 30 31  1  0
 20 32  2  0
 11  2  1  0
 32 15  1  0
 31 21  1  0
 31 29  1  0
  1 33  1  0
  1 34  1  0
  1 35  1  0
  3 36  1  0
  9 37  1  0
 14 38  1  0
 16 39  1  0
 17 40  1  0
 22 41  1  0
 27 42  1  0
 27 43  1  0
 29 44  1  1
 30 45  1  0
 30 46  1  0
 31 47  1  1
 32 48  1  0
M  END
$$$$
