@<TRIPOS>MOLECULE
*****
 48 51 0 0 0
SMALL
GASTEIGER

@<TRIPOS>ATOM
      1 C           3.7200    0.5213   -2.6257 C.3     1  UNL1       -0.0375
      2 C           4.1071   -0.2097   -1.3879 C.ar    1  UNL1       -0.0194
      3 C           5.3088   -0.9192   -1.3326 C.ar    1  UNL1       -0.0436
      4 C           5.6966   -1.6068   -0.2011 C.ar    1  UNL1        0.0731
      5 C           6.9899   -2.3678   -0.1473 C.3     1  UNL1        0.4188
      6 F           7.7135   -2.0062   -1.2679 F       1  UNL1       -0.1658
      7 F           7.6750   -2.1277    1.0085 F       1  UNL1       -0.1658
      8 F           6.7328   -3.7255   -0.2639 F       1  UNL1       -0.1658
      9 C           4.8535   -1.5747    0.8904 C.ar    1  UNL1        0.0401
     10 N           3.6989   -0.8895    0.8284 N.ar    1  UNL1       -0.2495
     11 C           3.3199   -0.2195   -0.2724 C.ar    1  UNL1        0.1286
     12 C           2.0529    0.5082   -0.2819 C.2     1  UNL1        0.2668
     13 O           1.6483    1.1504   -1.2798 O.2     1  UNL1       -0.2682
     14 N           1.2008    0.5191    0.8738 N.am    1  UNL1       -0.2802
     15 C          -0.0217    1.2307    0.8419 C.ar    1  UNL1        0.0342
     16 C          -0.0353    2.5479    1.2316 C.ar    1  UNL1       -0.0377
     17 C          -1.2316    3.2393    1.1991 C.ar    1  UNL1       -0.0243
     18 C          -2.4133    2.6384    0.7845 C.ar    1  UNL1        0.1292
     19 F          -3.5479    3.3849    0.7868 F       1  UNL1       -0.2051
     20 C          -2.3954    1.3209    0.3954 C.ar    1  UNL1        0.0228
     21 C          -3.5997    0.6003   -0.0664 C.3     1  UNL1        0.1603
     22 C          -4.1607    1.1523   -1.3737 C.3     1  UNL1        0.2686
     23 F          -4.5350    2.4522   -1.3171 F       1  UNL1       -0.2062
     24 F          -5.2893    0.3949   -1.6506 F       1  UNL1       -0.2062
     25 N          -3.2124   -0.7564   -0.3823 N.2     1  UNL1       -0.2194
     26 C          -3.1881   -1.6918    0.4908 C.2     1  UNL1        0.2764
     27 N          -2.7952   -3.0356    0.1382 N.pl3   1  UNL1       -0.3134
     28 O          -3.5513   -1.3738    1.7875 O.2     1  UNL1       -0.4622
     29 C          -4.4945   -0.3833    2.0574 C.3     1  UNL1        0.1091
     30 C          -5.7230   -0.3549    1.1236 C.3     1  UNL1       -0.0064
     31 C          -4.6278    0.6617    1.0331 C.3     1  UNL1        0.0344
     32 C          -1.1941    0.6488    0.4348 C.ar    1  UNL1       -0.0321
     33 H           3.6261    1.6212   -2.4404 H       1  UNL1        0.0278
     34 H           4.5498    0.4208   -3.3672 H       1  UNL1        0.0278
     35 H           2.8265    0.0910   -3.1088 H       1  UNL1        0.0278
     36 H           5.9380   -0.9163   -2.2121 H       1  UNL1        0.0627
     37 H           5.1553   -2.1182    1.7913 H       1  UNL1        0.0835
     38 H           1.4949    0.0005    1.7249 H       1  UNL1        0.1552
     39 H           0.8432    3.0781    1.5647 H       1  UNL1        0.0637
     40 H          -1.2678    4.2919    1.5055 H       1  UNL1        0.0647
     41 H          -3.4345    0.9247   -2.1797 H       1  UNL1        0.1047
     42 H          -3.1377   -3.5218   -0.7079 H       1  UNL1        0.1466
     43 H          -2.1389   -3.5283    0.7682 H       1  UNL1        0.1466
     44 H          -4.6590   -0.0885    3.1141 H       1  UNL1        0.0737
     45 H          -6.6909   -0.0824    1.5696 H       1  UNL1        0.0306
     46 H          -5.7657   -1.1623    0.3516 H       1  UNL1        0.0306
     47 H          -4.9255    1.6695    1.3766 H       1  UNL1        0.0366
     48 H          -1.1156   -0.4089    0.1352 H       1  UNL1        0.0640
@<TRIPOS>BOND
     1     1     2    1
     2     2     3   ar
     3     3     4   ar
     4     4     5    1
     5     5     6    1
     6     5     7    1
     7     5     8    1
     8     4     9   ar
     9     9    10   ar
    10    10    11   ar
    11    11    12    1
    12    12    13    2
    13    12    14   am
    14    14    15    1
    15    15    16   ar
    16    16    17   ar
    17    17    18   ar
    18    18    19    1
    19    18    20   ar
    20    20    21    1
    21    21    22    1
    22    22    23    1
    23    22    24    1
    24    21    25    1
    25    25    26    2
    26    26    27    1
    27    26    28    1
    28    28    29    1
    29    29    30    1
    30    30    31    1
    31    20    32   ar
    32    11     2   ar
    33    32    15   ar
    34    31    21    1
    35    31    29    1
    36     1    33    1
    37     1    34    1
    38     1    35    1
    39     3    36    1
    40     9    37    1
    41    14    38    1
    42    16    39    1
    43    17    40    1
    44    22    41    1
    45    27    42    1
    46    27    43    1
    47    29    44    1
    48    30    45    1
    49    30    46    1
    50    31    47    1
    51    32    48    1
