@<TRIPOS>MOLECULE
*****
 63 66 0 0 0
SMALL
GASTEIGER

@<TRIPOS>ATOM
      1 C           8.1335   -2.6916   -2.2772 C.3     1  UNL1       -0.0223
      2 C           7.6359   -1.6393   -1.3841 C.ar    1  UNL1        0.0393
      3 C           6.3163   -1.1864   -1.4040 C.ar    1  UNL1       -0.0337
      4 C           5.8842   -0.1962   -0.5497 C.ar    1  UNL1        0.0004
      5 C           4.4853    0.2856   -0.5661 C.3     1  UNL1        0.1153
      6 O           3.7247   -0.2025    0.4963 O.3     1  UNL1       -0.4874
      7 C           2.3945    0.1668    0.6065 C.ar    1  UNL1        0.1211
      8 C           1.8181    1.0029   -0.3109 C.ar    1  UNL1       -0.0181
      9 C           0.4829    1.3508   -0.1682 C.ar    1  UNL1       -0.0334
     10 C          -0.2881    0.8810    0.8711 C.ar    1  UNL1        0.0885
     11 S          -1.9565    1.3549    0.9883 S.O2    1  UNL1       -0.0010
     12 O          -2.1525    2.7133    0.3470 O.2     1  UNL1       -0.1693
     13 O          -2.4108    1.4971    2.4155 O.2     1  UNL1       -0.1693
     14 C          -2.9223    0.1879    0.0996 C.3     1  UNL1        0.0952
     15 C          -4.4161    0.5054    0.1387 C.3     1  UNL1        0.0906
     16 C          -5.1038   -0.5541   -0.6445 C.2     1  UNL1       -0.0605
     17 C          -6.3314   -0.4386   -1.0910 C.2     1  UNL1       -0.0673
     18 C          -7.1688    0.7770   -0.8566 C.3     1  UNL1       -0.0081
     19 C          -8.3608    0.3078   -0.0489 C.3     1  UNL1        0.0513
     20 O          -8.5672   -1.0634   -0.1935 O.3     1  UNL1       -0.3791
     21 C          -8.4709   -1.4970   -1.4969 C.3     1  UNL1        0.0513
     22 C          -7.0076   -1.5267   -1.8832 C.3     1  UNL1       -0.0081
     23 N          -4.8013    0.5071    1.5438 N.am    1  UNL1       -0.1779
     24 O          -5.2966    1.6682    2.0674 O.3     1  UNL1       -0.2921
     25 C          -4.6708   -0.6404    2.3451 C.2     1  UNL1        0.2256
     26 O          -4.2407   -1.7465    1.9909 O.2     1  UNL1       -0.2772
     27 C           0.2893    0.0416    1.7927 C.ar    1  UNL1       -0.0334
     28 C           1.6170   -0.3051    1.6520 C.ar    1  UNL1       -0.0181
     29 C           6.8184    0.3222    0.3224 C.ar    1  UNL1        0.0068
     30 C           6.4641    1.3095    1.2019 C.ar    1  UNL1       -0.0522
     31 C           7.3589    1.8501    2.0818 C.ar    1  UNL1       -0.0611
     32 C           8.6569    1.4024    2.0991 C.ar    1  UNL1       -0.0597
     33 C           9.0323    0.4084    1.2206 C.ar    1  UNL1       -0.0357
     34 C           8.1293   -0.1323    0.3376 C.ar    1  UNL1        0.0716
     35 N           8.5276   -1.0985   -0.5046 N.ar    1  UNL1       -0.2519
     36 H           9.1347   -2.4173   -2.7064 H       1  UNL1        0.0292
     37 H           8.3009   -3.6259   -1.6897 H       1  UNL1        0.0292
     38 H           7.4524   -2.8694   -3.1486 H       1  UNL1        0.0292
     39 H           5.6563   -1.6513   -2.1213 H       1  UNL1        0.0639
     40 H           3.9844   -0.0405   -1.5145 H       1  UNL1        0.0748
     41 H           4.4679    1.4101   -0.6234 H       1  UNL1        0.0748
     42 H           2.3418    1.4210   -1.1579 H       1  UNL1        0.0655
     43 H           0.0066    2.0134   -0.8854 H       1  UNL1        0.0638
     44 H          -2.5868    0.2408   -0.9710 H       1  UNL1        0.0527
     45 H          -2.7778   -0.8350    0.4459 H       1  UNL1        0.0527
     46 H          -4.6090    1.5027   -0.3126 H       1  UNL1        0.0585
     47 H          -4.5881   -1.5030   -0.8833 H       1  UNL1        0.0591
     48 H          -7.5184    1.2165   -1.8324 H       1  UNL1        0.0332
     49 H          -6.6458    1.5684   -0.3163 H       1  UNL1        0.0332
     50 H          -9.2906    0.8235   -0.2960 H       1  UNL1        0.0563
     51 H          -8.1193    0.4928    1.0165 H       1  UNL1        0.0563
     52 H          -9.0102   -0.8549   -2.2216 H       1  UNL1        0.0563
     53 H          -8.9390   -2.4998   -1.5693 H       1  UNL1        0.0563
     54 H          -6.9353   -1.3167   -2.9704 H       1  UNL1        0.0332
     55 H          -6.5392   -2.5087   -1.6827 H       1  UNL1        0.0332
     56 H          -5.9892    1.4781    2.7257 H       1  UNL1        0.2417
     57 H          -4.9775   -0.5668    3.3971 H       1  UNL1        0.1274
     58 H          -0.3363   -0.3144    2.6001 H       1  UNL1        0.0638
     59 H           2.0237   -0.9747    2.4129 H       1  UNL1        0.0655
     60 H           5.4368    1.6471    1.1711 H       1  UNL1        0.0624
     61 H           7.0007    2.6372    2.7552 H       1  UNL1        0.0618
     62 H           9.3906    1.8322    2.8071 H       1  UNL1        0.0618
     63 H          10.0629    0.0733    1.2553 H       1  UNL1        0.0639
@<TRIPOS>BOND
     1     1     2    1
     2     2     3   ar
     3     3     4   ar
     4     4     5    1
     5     5     6    1
     6     6     7    1
     7     7     8   ar
     8     8     9   ar
     9     9    10   ar
    10    10    11    1
    11    11    12    2
    12    11    13    2
    13    11    14    1
    14    14    15    1
    15    15    16    1
    16    16    17    2
    17    17    18    1
    18    18    19    1
    19    19    20    1
    20    20    21    1
    21    21    22    1
    22    15    23    1
    23    23    24    1
    24    23    25   am
    25    25    26    2
    26    10    27   ar
    27    27    28   ar
    28     4    29   ar
    29    29    30   ar
    30    30    31   ar
    31    31    32   ar
    32    32    33   ar
    33    33    34   ar
    34    34    35   ar
    35    35     2   ar
    36    28     7   ar
    37    34    29   ar
    38    22    17    1
    39     1    36    1
    40     1    37    1
    41     1    38    1
    42     3    39    1
    43     5    40    1
    44     5    41    1
    45     8    42    1
    46     9    43    1
    47    14    44    1
    48    14    45    1
    49    15    46    1
    50    16    47    1
    51    18    48    1
    52    18    49    1
    53    19    50    1
    54    19    51    1
    55    21    52    1
    56    21    53    1
    57    22    54    1
    58    22    55    1
    59    24    56    1
    60    25    57    1
    61    27    58    1
    62    28    59    1
    63    30    60    1
    64    31    61    1
    65    32    62    1
    66    33    63    1
