
     RDKit          3D

 63 66  0  0  0  0  0  0  0  0999 V2000
    8.1335   -2.6916   -2.2772 C   0  0  0  0  0  0  0  0  0  0  0  0
    7.6359   -1.6393   -1.3841 C   0  0  0  0  0  0  0  0  0  0  0  0
    6.3163   -1.1864   -1.4040 C   0  0  0  0  0  0  0  0  0  0  0  0
    5.8842   -0.1962   -0.5497 C   0  0  0  0  0  0  0  0  0  0  0  0
    4.4853    0.2856   -0.5661 C   0  0  0  0  0  0  0  0  0  0  0  0
    3.7247   -0.2025    0.4963 O   0  0  0  0  0  0  0  0  0  0  0  0
    2.3945    0.1668    0.6065 C   0  0  0  0  0  0  0  0  0  0  0  0
    1.8181    1.0029   -0.3109 C   0  0  0  0  0  0  0  0  0  0  0  0
    0.4829    1.3508   -0.1682 C   0  0  0  0  0  0  0  0  0  0  0  0
   -0.2881    0.8810    0.8711 C   0  0  0  0  0  0  0  0  0  0  0  0
   -1.9565    1.3549    0.9883 S   0  0  0  0  0  6  0  0  0  0  0  0
   -2.1525    2.7133    0.3470 O   0  0  0  0  0  0  0  0  0  0  0  0
   -2.4108    1.4971    2.4155 O   0  0  0  0  0  0  0  0  0  0  0  0
   -2.9223    0.1879    0.0996 C   0  0  0  0  0  0  0  0  0  0  0  0
   -4.4161    0.5054    0.1387 C   0  0  0  0  0  0  0  0  0  0  0  0
   -5.1038   -0.5541   -0.6445 C   0  0  0  0  0  0  0  0  0  0  0  0
   -6.3314   -0.4386   -1.0910 C   0  0  0  0  0  0  0  0  0  0  0  0
   -7.1688    0.7770   -0.8566 C   0  0  0  0  0  0  0  0  0  0  0  0
   -8.3608    0.3078   -0.0489 C   0  0  0  0  0  0  0  0  0  0  0  0
   -8.5672   -1.0634   -0.1935 O   0  0  0  0  0  0  0  0  0  0  0  0
   -8.4709   -1.4970   -1.4969 C   0  0  0  0  0  0  0  0  0  0  0  0
   -7.0076   -1.5267   -1.8832 C   0  0  0  0  0  0  0  0  0  0  0  0
   -4.8013    0.5071    1.5438 N   0  0  0  0  0  0  0  0  0  0  0  0
   -5.2966    1.6682    2.0674 O   0  0  0  0  0  0  0  0  0  0  0  0
   -4.6708   -0.6404    2.3451 C   0  0  0  0  0  0  0  0  0  0  0  0
   -4.2407   -1.7465    1.9909 O   0  0  0  0  0  0  0  0  0  0  0  0
    0.2893    0.0416    1.7927 C   0  0  0  0  0  0  0  0  0  0  0  0
    1.6170   -0.3051    1.6520 C   0  0  0  0  0  0  0  0  0  0  0  0
    6.8184    0.3222    0.3224 C   0  0  0  0  0  0  0  0  0  0  0  0
    6.4641    1.3095    1.2019 C   0  0  0  0  0  0  0  0  0  0  0  0
    7.3589    1.8501    2.0818 C   0  0  0  0  0  0  0  0  0  0  0  0
    8.6569    1.4024    2.0991 C   0  0  0  0  0  0  0  0  0  0  0  0
    9.0323    0.4084    1.2206 C   0  0  0  0  0  0  0  0  0  0  0  0
    8.1293   -0.1323    0.3376 C   0  0  0  0  0  0  0  0  0  0  0  0
    8.5276   -1.0985   -0.5046 N   0  0  0  0  0  0  0  0  0  0  0  0
    9.1347   -2.4173   -2.7064 H   0  0  0  0  0  0  0  0  0  0  0  0
    8.3009   -3.6259   -1.6897 H   0  0  0  0  0  0  0  0  0  0  0  0
    7.4524   -2.8694   -3.1486 H   0  0  0  0  0  0  0  0  0  0  0  0
    5.6563   -1.6513   -2.1213 H   0  0  0  0  0  0  0  0  0  0  0  0
    3.9844   -0.0405   -1.5145 H   0  0  0  0  0  0  0  0  0  0  0  0
    4.4679    1.4101   -0.6234 H   0  0  0  0  0  0  0  0  0  0  0  0
    2.3418    1.4210   -1.1579 H   0  0  0  0  0  0  0  0  0  0  0  0
    0.0066    2.0134   -0.8854 H   0  0  0  0  0  0  0  0  0  0  0  0
   -2.5868    0.2408   -0.9710 H   0  0  0  0  0  0  0  0  0  0  0  0
   -2.7778   -0.8350    0.4459 H   0  0  0  0  0  0  0  0  0  0  0  0
   -4.6090    1.5027   -0.3126 H   0  0  0  0  0  0  0  0  0  0  0  0
   -4.5881   -1.5030   -0.8833 H   0  0  0  0  0  0  0  0  0  0  0  0
   -7.5184    1.2165   -1.8324 H   0  0  0  0  0  0  0  0  0  0  0  0
   -6.6458    1.5684   -0.3163 H   0  0  0  0  0  0  0  0  0  0  0  0
   -9.2906    0.8235   -0.2960 H   0  0  0  0  0  0  0  0  0  0  0  0
   -8.1193    0.4928    1.0165 H   0  0  0  0  0  0  0  0  0  0  0  0
   -9.0102   -0.8549   -2.2216 H   0  0  0  0  0  0  0  0  0  0  0  0
   -8.9390   -2.4998   -1.5693 H   0  0  0  0  0  0  0  0  0  0  0  0
   -6.9353   -1.3167   -2.9704 H   0  0  0  0  0  0  0  0  0  0  0  0
   -6.5392   -2.5087   -1.6827 H   0  0  0  0  0  0  0  0  0  0  0  0
   -5.9892    1.4781    2.7257 H   0  0  0  0  0  0  0  0  0  0  0  0
   -4.9775   -0.5668    3.3971 H   0  0  0  0  0  0  0  0  0  0  0  0
   -0.3363   -0.3144    2.6001 H   0  0  0  0  0  0  0  0  0  0  0  0
    2.0237   -0.9747    2.4129 H   0  0  0  0  0  0  0  0  0  0  0  0
    5.4368    1.6471    1.1711 H   0  0  0  0  0  0  0  0  0  0  0  0
    7.0007    2.6372    2.7552 H   0  0  0  0  0  0  0  0  0  0  0  0
    9.3906    1.8322    2.8071 H   0  0  0  0  0  0  0  0  0  0  0  0
   10.0629    0.0733    1.2553 H   0  0  0  0  0  0  0  0  0  0  0  0
  1  2  1  0
  2  3  2  0
  3  4  1  0
  4  5  1  0
  5  6  1  0
  6  7  1  0
  7  8  2  0
  8  9  1  0
  9 10  2  0
 10 11  1  0
 11 12  2  0
 11 13  2  0
 11 14  1  0
 14 15  1  0
 15 16  1  0
 16 17  2  3
 17 18  1  0
 18 19  1  0
 19 20  1  0
 20 21  1  0
 21 22  1  0
 15 23  1  0
 23 24  1  0
 23 25  1  0
 25 26  2  0
 10 27  1  0
 27 28  2  0
  4 29  2  0
 29 30  1  0
 30 31  2  0
 31 32  1  0
 32 33  2  0
 33 34  1  0
 34 35  2  0
 35  2  1  0
 28  7  1  0
 34 29  1  0
 22 17  1  0
  1 36  1  0
  1 37  1  0
  1 38  1  0
  3 39  1  0
  5 40  1  0
  5 41  1  0
  8 42  1  0
  9 43  1  0
 14 44  1  0
 14 45  1  0
 15 46  1  0
 16 47  1  0
 18 48  1  0
 18 49  1  0
 19 50  1  0
 19 51  1  0
 21 52  1  0
 21 53  1  0
 22 54  1  0
 22 55  1  0
 24 56  1  0
 25 57  1  0
 27 58  1  0
 28 59  1  0
 30 60  1  0
 31 61  1  0
 32 62  1  0
 33 63  1  0
M  END
$$$$
