
     RDKit          3D

 58 61  0  0  0  0  0  0  0  0999 V2000
   -2.9824   -2.3218    2.4553 C   0  0  0  0  0  0  0  0  0  0  0  0
   -2.7576   -2.3966    1.0177 C   0  0  0  0  0  0  0  0  0  0  0  0
   -3.5487   -3.2183    0.2411 C   0  0  0  0  0  0  0  0  0  0  0  0
   -3.3285   -3.3010   -1.1207 C   0  0  0  0  0  0  0  0  0  0  0  0
   -2.3078   -2.5540   -1.6991 C   0  0  0  0  0  0  0  0  0  0  0  0
   -2.1038   -2.6361   -3.0218 F   0  0  0  0  0  0  0  0  0  0  0  0
   -1.5226   -1.7311   -0.8802 C   0  0  0  0  0  0  0  0  0  0  0  0
   -1.7328   -1.6422    0.4621 C   0  0  0  0  0  0  0  0  0  0  0  0
   -0.9837   -0.7509    1.3226 C   0  0  0  0  0  0  0  0  0  0  0  0
   -0.5095    0.4518    0.6818 N   0  0  0  0  0  0  0  0  0  0  0  0
    0.7228    0.6384    0.2163 C   0  0  0  0  0  0  0  0  0  0  0  0
    1.8538   -0.2256    0.2670 N   0  0  0  0  0  0  0  0  0  0  0  0
    2.6126   -0.2216    1.4976 C   0  0  0  0  0  0  0  0  0  0  0  0
    4.0206   -0.7275    1.3531 C   0  0  0  0  0  0  0  0  0  0  0  0
    3.9795   -1.9461    0.4608 C   0  0  0  0  0  0  0  0  0  0  0  0
    3.6237   -1.4471   -0.9201 C   0  0  1  0  0  0  0  0  0  0  0  0
    4.4974   -0.2815   -1.3467 C   0  0  0  0  0  0  0  0  0  0  0  0
    3.8020   -2.4820   -1.9133 N   0  0  0  0  0  0  0  0  0  0  0  0
    2.1797   -1.0111   -0.8817 C   0  0  0  0  0  0  0  0  0  0  0  0
    0.7757    1.8876   -0.3637 C   0  0  0  0  0  0  0  0  0  0  0  0
   -0.4723    2.4463   -0.2310 C   0  0  0  0  0  0  0  0  0  0  0  0
   -1.2595    1.5323    0.4252 C   0  0  0  0  0  0  0  0  0  0  0  0
   -2.5928    1.8604    0.6667 C   0  0  0  0  0  0  0  0  0  0  0  0
   -3.3264    1.0482    1.2582 O   0  0  0  0  0  0  0  0  0  0  0  0
   -3.0660    3.0507    0.2571 N   0  0  0  0  0  0  0  0  0  0  0  0
   -4.4588    3.4528    0.4701 C   0  0  0  0  0  0  0  0  0  0  0  0
   -2.2516    3.9090   -0.3790 C   0  0  0  0  0  0  0  0  0  0  0  0
   -2.6756    5.0335   -0.7717 O   0  0  0  0  0  0  0  0  0  0  0  0
   -0.9568    3.6421   -0.6388 N   0  0  0  0  0  0  0  0  0  0  0  0
   -0.0751    4.5534   -1.3181 C   0  0  0  0  0  0  0  0  0  0  0  0
   -2.0583   -2.2953    3.0723 H   0  0  0  0  0  0  0  0  0  0  0  0
   -3.5054   -3.2567    2.8161 H   0  0  0  0  0  0  0  0  0  0  0  0
   -3.6852   -1.5009    2.6875 H   0  0  0  0  0  0  0  0  0  0  0  0
   -4.3516   -3.8134    0.6572 H   0  0  0  0  0  0  0  0  0  0  0  0
   -3.9707   -3.9584   -1.7170 H   0  0  0  0  0  0  0  0  0  0  0  0
   -0.7428   -1.1675   -1.4093 H   0  0  0  0  0  0  0  0  0  0  0  0
   -1.5482   -0.3958    2.2189 H   0  0  0  0  0  0  0  0  0  0  0  0
   -0.1132   -1.3356    1.7242 H   0  0  0  0  0  0  0  0  0  0  0  0
    2.6816    0.8575    1.8410 H   0  0  0  0  0  0  0  0  0  0  0  0
    2.1135   -0.7472    2.3331 H   0  0  0  0  0  0  0  0  0  0  0  0
    4.3819   -0.9788    2.3779 H   0  0  0  0  0  0  0  0  0  0  0  0
    4.6559    0.0892    0.9071 H   0  0  0  0  0  0  0  0  0  0  0  0
    3.1029   -2.5570    0.7960 H   0  0  0  0  0  0  0  0  0  0  0  0
    4.8856   -2.5463    0.4840 H   0  0  0  0  0  0  0  0  0  0  0  0
    4.6605   -0.3306   -2.4656 H   0  0  0  0  0  0  0  0  0  0  0  0
    5.5010   -0.4697   -0.8788 H   0  0  0  0  0  0  0  0  0  0  0  0
    4.0658    0.6959   -1.0606 H   0  0  0  0  0  0  0  0  0  0  0  0
    4.5153   -3.1822   -1.6387 H   0  0  0  0  0  0  0  0  0  0  0  0
    2.9441   -2.8435   -2.3389 H   0  0  0  0  0  0  0  0  0  0  0  0
    1.4895   -1.8647   -0.9906 H   0  0  0  0  0  0  0  0  0  0  0  0
    2.0392   -0.3488   -1.7868 H   0  0  0  0  0  0  0  0  0  0  0  0
    1.6628    2.3034   -0.8202 H   0  0  0  0  0  0  0  0  0  0  0  0
   -4.8807    2.9952    1.3696 H   0  0  0  0  0  0  0  0  0  0  0  0
   -4.9852    3.1300   -0.4765 H   0  0  0  0  0  0  0  0  0  0  0  0
   -4.5083    4.5748    0.4638 H   0  0  0  0  0  0  0  0  0  0  0  0
    0.7584    3.9689   -1.7494 H   0  0  0  0  0  0  0  0  0  0  0  0
   -0.6088    5.0252   -2.1865 H   0  0  0  0  0  0  0  0  0  0  0  0
    0.3451    5.3405   -0.6785 H   0  0  0  0  0  0  0  0  0  0  0  0
  1  2  1  0
  2  3  2  0
  3  4  1  0
  4  5  2  0
  5  6  1  0
  5  7  1  0
  7  8  2  0
  8  9  1  0
  9 10  1  0
 10 11  1  0
 11 12  1  0
 12 13  1  0
 13 14  1  0
 14 15  1  0
 15 16  1  0
 16 17  1  0
 16 18  1  6
 16 19  1  0
 11 20  2  0
 20 21  1  0
 21 22  2  0
 22 23  1  0
 23 24  2  0
 23 25  1  0
 25 26  1  0
 25 27  1  0
 27 28  2  0
 27 29  1  0
 29 30  1  0
  8  2  1  0
 22 10  1  0
 19 12  1  0
 29 21  1  0
  1 31  1  0
  1 32  1  0
  1 33  1  0
  3 34  1  0
  4 35  1  0
  7 36  1  0
  9 37  1  0
  9 38  1  0
 13 39  1  0
 13 40  1  0
 14 41  1  0
 14 42  1  0
 15 43  1  0
 15 44  1  0
 17 45  1  0
 17 46  1  0
 17 47  1  0
 18 48  1  0
 18 49  1  0
 19 50  1  0
 19 51  1  0
 20 52  1  0
 26 53  1  0
 26 54  1  0
 26 55  1  0
 30 56  1  0
 30 57  1  0
 30 58  1  0
M  END
$$$$
