@<TRIPOS>MOLECULE
*****
 58 61 0 0 0
SMALL
GASTEIGER

@<TRIPOS>ATOM
      1 C          -2.9824   -2.3218    2.4553 C.3     1  UNL1       -0.0394
      2 C          -2.7576   -2.3966    1.0177 C.ar    1  UNL1       -0.0454
      3 C          -3.5487   -3.2183    0.2411 C.ar    1  UNL1       -0.0558
      4 C          -3.3285   -3.3010   -1.1207 C.ar    1  UNL1       -0.0262
      5 C          -2.3078   -2.5540   -1.6991 C.ar    1  UNL1        0.1237
      6 F          -2.1038   -2.6361   -3.0218 F       1  UNL1       -0.2055
      7 C          -1.5226   -1.7311   -0.8802 C.ar    1  UNL1       -0.0213
      8 C          -1.7328   -1.6422    0.4621 C.ar    1  UNL1       -0.0221
      9 C          -0.9837   -0.7509    1.3226 C.3     1  UNL1        0.0505
     10 N          -0.5095    0.4518    0.6818 N.ar    1  UNL1       -0.3188
     11 C           0.7228    0.6384    0.2163 C.ar    1  UNL1        0.1043
     12 N           1.8538   -0.2256    0.2670 N.pl3   1  UNL1       -0.3147
     13 C           2.6126   -0.2216    1.4976 C.3     1  UNL1        0.0136
     14 C           4.0206   -0.7275    1.3531 C.3     1  UNL1       -0.0355
     15 C           3.9795   -1.9461    0.4608 C.3     1  UNL1       -0.0322
     16 C           3.6237   -1.4471   -0.9201 C.3     1  UNL1        0.0296
     17 C           4.4974   -0.2815   -1.3467 C.3     1  UNL1       -0.0455
     18 N           3.8020   -2.4820   -1.9133 N.3     1  UNL1       -0.3236
     19 C           2.1797   -1.0111   -0.8817 C.3     1  UNL1        0.0313
     20 C           0.7757    1.8876   -0.3637 C.ar    1  UNL1        0.0025
     21 C          -0.4723    2.4463   -0.2310 C.ar    1  UNL1        0.0780
     22 C          -1.2595    1.5323    0.4252 C.ar    1  UNL1        0.1329
     23 C          -2.5928    1.8604    0.6667 C.ar    1  UNL1        0.2806
     24 O          -3.3264    1.0482    1.2582 O.2     1  UNL1       -0.2652
     25 N          -3.0660    3.0507    0.2571 N.ar    1  UNL1       -0.2623
     26 C          -4.4588    3.4528    0.4701 C.3     1  UNL1        0.0196
     27 C          -2.2516    3.9090   -0.3790 C.ar    1  UNL1        0.3320
     28 O          -2.6756    5.0335   -0.7717 O.2     1  UNL1       -0.2463
     29 N          -0.9568    3.6421   -0.6388 N.ar    1  UNL1       -0.2947
     30 C          -0.0751    4.5534   -1.3181 C.3     1  UNL1        0.0167
     31 H          -2.0583   -2.2953    3.0723 H       1  UNL1        0.0278
     32 H          -3.5054   -3.2567    2.8161 H       1  UNL1        0.0278
     33 H          -3.6852   -1.5009    2.6875 H       1  UNL1        0.0278
     34 H          -4.3516   -3.8134    0.6572 H       1  UNL1        0.0621
     35 H          -3.9707   -3.9584   -1.7170 H       1  UNL1        0.0646
     36 H          -0.7428   -1.1675   -1.4093 H       1  UNL1        0.0649
     37 H          -1.5482   -0.3958    2.2189 H       1  UNL1        0.0542
     38 H          -0.1132   -1.3356    1.7242 H       1  UNL1        0.0542
     39 H           2.6816    0.8575    1.8410 H       1  UNL1        0.0464
     40 H           2.1135   -0.7472    2.3331 H       1  UNL1        0.0464
     41 H           4.3819   -0.9788    2.3779 H       1  UNL1        0.0281
     42 H           4.6559    0.0892    0.9071 H       1  UNL1        0.0281
     43 H           3.1029   -2.5570    0.7960 H       1  UNL1        0.0284
     44 H           4.8856   -2.5463    0.4840 H       1  UNL1        0.0284
     45 H           4.6605   -0.3306   -2.4656 H       1  UNL1        0.0248
     46 H           5.5010   -0.4697   -0.8788 H       1  UNL1        0.0248
     47 H           4.0658    0.6959   -1.0606 H       1  UNL1        0.0248
     48 H           4.5153   -3.1822   -1.6387 H       1  UNL1        0.1188
     49 H           2.9441   -2.8435   -2.3389 H       1  UNL1        0.1188
     50 H           1.4895   -1.8647   -0.9906 H       1  UNL1        0.0482
     51 H           2.0392   -0.3488   -1.7868 H       1  UNL1        0.0482
     52 H           1.6628    2.3034   -0.8202 H       1  UNL1        0.0673
     53 H          -4.8807    2.9952    1.3696 H       1  UNL1        0.0458
     54 H          -4.9852    3.1300   -0.4765 H       1  UNL1        0.0458
     55 H          -4.5083    4.5748    0.4638 H       1  UNL1        0.0458
     56 H           0.7584    3.9689   -1.7494 H       1  UNL1        0.0457
     57 H          -0.6088    5.0252   -2.1865 H       1  UNL1        0.0457
     58 H           0.3451    5.3405   -0.6785 H       1  UNL1        0.0457
@<TRIPOS>BOND
     1     1     2    1
     2     2     3   ar
     3     3     4   ar
     4     4     5   ar
     5     5     6    1
     6     5     7   ar
     7     7     8   ar
     8     8     9    1
     9     9    10    1
    10    10    11   ar
    11    11    12    1
    12    12    13    1
    13    13    14    1
    14    14    15    1
    15    15    16    1
    16    16    17    1
    17    16    18    1
    18    16    19    1
    19    11    20   ar
    20    20    21   ar
    21    21    22   ar
    22    22    23   ar
    23    23    24    2
    24    23    25   ar
    25    25    26    1
    26    25    27   ar
    27    27    28    2
    28    27    29   ar
    29    29    30    1
    30     8     2   ar
    31    22    10   ar
    32    19    12    1
    33    29    21   ar
    34     1    31    1
    35     1    32    1
    36     1    33    1
    37     3    34    1
    38     4    35    1
    39     7    36    1
    40     9    37    1
    41     9    38    1
    42    13    39    1
    43    13    40    1
    44    14    41    1
    45    14    42    1
    46    15    43    1
    47    15    44    1
    48    17    45    1
    49    17    46    1
    50    17    47    1
    51    18    48    1
    52    18    49    1
    53    19    50    1
    54    19    51    1
    55    20    52    1
    56    26    53    1
    57    26    54    1
    58    26    55    1
    59    30    56    1
    60    30    57    1
    61    30    58    1
