
     RDKit          3D

 92 93  0  0  0  0  0  0  0  0999 V2000
    1.0647   -2.2412   -0.2631 Cl  0  0  0  0  0  0  0  0  0  0  0  0
    4.0618   -0.8758   -3.4974 C   0  0  0  0  0  0  0  0  0  0  0  0
    2.8845   -1.7750   -3.0950 C   0  0  0  0  0  0  0  0  0  0  0  0
    2.9318   -1.8668   -1.6921 O   0  0  0  0  0  0  0  0  0  0  0  0
    2.0275   -2.5945   -0.9362 C   0  0  0  0  0  0  0  0  0  0  0  0
    1.5477   -2.8432   -2.0580 O   0  0  0  0  0  0  0  0  0  0  0  0
    2.2259   -2.5787    0.4931 N   0  0  0  0  0  0  0  0  0  0  0  0
    3.3364   -1.8364    1.1018 C   0  0  0  0  0  0  0  0  0  0  0  0
    2.6941   -0.7505    1.9365 C   0  0  0  0  0  0  0  0  0  0  0  0
    1.2909   -1.0769    2.2326 N   0  0  0  0  0  0  0  0  0  0  0  0
    1.0883   -2.4561    2.6204 C   0  0  0  0  0  0  0  0  0  0  0  0
    1.3307   -3.2959    1.3622 C   0  0  0  0  0  0  0  0  0  0  0  0
    0.0945   -0.3245    2.2192 C   0  0  0  0  0  0  0  0  0  0  0  0
   -1.1136   -0.5745    2.4461 O   0  0  0  0  0  0  0  0  0  0  0  0
   -0.6236    0.9847    2.0045 C   0  0  2  0  0  0  0  0  0  0  0  0
   -0.2141    2.0485    2.9733 C   0  0  0  0  0  0  0  0  0  0  0  0
    1.1677    2.4627    3.0317 C   0  0  0  0  0  0  0  0  0  0  0  0
    1.9922    1.8166    3.9646 C   0  0  0  0  0  0  0  0  0  0  0  0
    3.3327    2.0483    4.1918 C   0  0  0  0  0  0  0  0  0  0  0  0
    3.9009    3.0359    3.3935 C   0  0  0  0  0  0  0  0  0  0  0  0
    3.1547    3.7226    2.4465 C   0  0  0  0  0  0  0  0  0  0  0  0
    1.8244    3.4378    2.2764 C   0  0  0  0  0  0  0  0  0  0  0  0
    3.8144    4.7476    1.6440 C   0  0  0  0  0  0  0  0  0  0  0  0
    5.2102    4.5666    1.3763 N   0  0  0  0  0  0  0  0  0  0  0  0
    3.2525    5.8020    1.1533 N   0  0  0  0  0  0  0  0  0  0  0  0
   -2.0211    0.8296    2.1266 N   0  0  0  0  0  0  0  0  0  0  0  0
   -3.0684    1.0333    0.8399 S   0  0  0  0  0  0  0  0  0  0  0  0
   -2.9595    2.5207    0.4759 O   0  0  0  0  0  0  0  0  0  0  0  0
   -4.4872    0.9810    1.4340 O   0  0  0  0  0  0  0  0  0  0  0  0
   -2.9607    0.0359   -0.5170 C   0  0  0  0  0  0  0  0  0  0  0  0
   -2.3459    0.2243   -1.7350 C   0  0  0  0  0  0  0  0  0  0  0  0
   -2.3633   -0.7448   -2.7447 C   0  0  0  0  0  0  0  0  0  0  0  0
   -2.9983   -1.9585   -2.5900 C   0  0  0  0  0  0  0  0  0  0  0  0
   -3.6271   -2.1697   -1.3625 C   0  0  0  0  0  0  0  0  0  0  0  0
   -3.6118   -1.1959   -0.3449 C   0  0  0  0  0  0  0  0  0  0  0  0
   -4.3516   -1.7020    0.8336 C   0  0  0  0  0  0  0  0  0  0  0  0
   -5.8173   -1.4014    0.5958 C   0  0  0  0  0  0  0  0  0  0  0  0
   -4.2451   -3.1820    1.0265 C   0  0  0  0  0  0  0  0  0  0  0  0
   -3.0200   -2.9849   -3.6676 C   0  0  0  0  0  0  0  0  0  0  0  0
   -3.7598   -2.5489   -4.8987 C   0  0  0  0  0  0  0  0  0  0  0  0
   -1.6249   -3.4732   -3.9998 C   0  0  0  0  0  0  0  0  0  0  0  0
   -1.6287    1.4893   -2.0167 C   0  0  0  0  0  0  0  0  0  0  0  0
   -0.1421    1.3930   -1.8466 C   0  0  0  0  0  0  0  0  0  0  0  0
   -1.8712    1.7577   -3.5202 C   0  0  0  0  0  0  0  0  0  0  0  0
    0.3510   -1.1236   -0.5853 H   0  0  0  0  0  0  0  0  0  0  0  0
    4.2226   -0.1106   -2.6837 H   0  0  0  0  0  0  0  0  0  0  0  0
    4.9802   -1.4777   -3.5126 H   0  0  0  0  0  0  0  0  0  0  0  0
    3.8754   -0.3316   -4.4325 H   0  0  0  0  0  0  0  0  0  0  0  0
    1.9736   -1.3111   -3.4994 H   0  0  0  0  0  0  0  0  0  0  0  0
    3.0632   -2.7642   -3.5755 H   0  0  0  0  0  0  0  0  0  0  0  0
    3.9777   -2.4840    1.7035 H   0  0  0  0  0  0  0  0  0  0  0  0
    3.9628   -1.3577    0.3212 H   0  0  0  0  0  0  0  0  0  0  0  0
    3.3070   -0.6850    2.8569 H   0  0  0  0  0  0  0  0  0  0  0  0
    2.7725    0.2372    1.4419 H   0  0  0  0  0  0  0  0  0  0  0  0
    1.9044   -2.7154    3.3316 H   0  0  0  0  0  0  0  0  0  0  0  0
    0.1345   -2.6757    3.0935 H   0  0  0  0  0  0  0  0  0  0  0  0
    1.7250   -4.2705    1.7153 H   0  0  0  0  0  0  0  0  0  0  0  0
    0.3769   -3.4395    0.8188 H   0  0  0  0  0  0  0  0  0  0  0  0
   -0.3981    1.2479    0.9599 H   0  0  0  0  0  0  0  0  0  0  0  0
   -0.7834    2.9637    2.6648 H   0  0  0  0  0  0  0  0  0  0  0  0
   -0.5408    1.7004    3.9812 H   0  0  0  0  0  0  0  0  0  0  0  0
    1.5562    1.0337    4.6026 H   0  0  0  0  0  0  0  0  0  0  0  0
    3.8802    1.5082    4.9237 H   0  0  0  0  0  0  0  0  0  0  0  0
    4.9652    3.2216    3.5649 H   0  0  0  0  0  0  0  0  0  0  0  0
    1.2114    3.9414    1.5644 H   0  0  0  0  0  0  0  0  0  0  0  0
    6.0283    4.4633    0.7502 H   0  0  0  0  0  0  0  0  0  0  0  0
    5.9207    4.4655    2.1531 H   0  0  0  0  0  0  0  0  0  0  0  0
    3.7867    6.5067    0.5792 H   0  0  0  0  0  0  0  0  0  0  0  0
   -2.4162    1.2542    2.9855 H   0  0  0  0  0  0  0  0  0  0  0  0
   -1.8750   -0.5741   -3.6808 H   0  0  0  0  0  0  0  0  0  0  0  0
   -4.1059   -3.1386   -1.2965 H   0  0  0  0  0  0  0  0  0  0  0  0
   -4.0822   -1.2377    1.7914 H   0  0  0  0  0  0  0  0  0  0  0  0
   -5.9432   -0.6348   -0.2195 H   0  0  0  0  0  0  0  0  0  0  0  0
   -6.3443   -2.3143    0.1770 H   0  0  0  0  0  0  0  0  0  0  0  0
   -6.3432   -1.0328    1.4738 H   0  0  0  0  0  0  0  0  0  0  0  0
   -4.4467   -3.4326    2.0859 H   0  0  0  0  0  0  0  0  0  0  0  0
   -3.2407   -3.5859    0.7275 H   0  0  0  0  0  0  0  0  0  0  0  0
   -5.0415   -3.6669    0.4383 H   0  0  0  0  0  0  0  0  0  0  0  0
   -3.5830   -3.8919   -3.2909 H   0  0  0  0  0  0  0  0  0  0  0  0
   -3.0850   -1.9501   -5.5411 H   0  0  0  0  0  0  0  0  0  0  0  0
   -4.0663   -3.4822   -5.4434 H   0  0  0  0  0  0  0  0  0  0  0  0
   -4.6616   -2.0088   -4.5974 H   0  0  0  0  0  0  0  0  0  0  0  0
   -1.5063   -4.5726   -3.8571 H   0  0  0  0  0  0  0  0  0  0  0  0
   -0.8675   -3.0232   -3.3159 H   0  0  0  0  0  0  0  0  0  0  0  0
   -1.3372   -3.1787   -5.0512 H   0  0  0  0  0  0  0  0  0  0  0  0
   -2.0533    2.3842   -1.5485 H   0  0  0  0  0  0  0  0  0  0  0  0
    0.3251    2.3029   -1.4645 H   0  0  0  0  0  0  0  0  0  0  0  0
    0.1343    0.4775   -1.2401 H   0  0  0  0  0  0  0  0  0  0  0  0
    0.3093    1.1952   -2.8367 H   0  0  0  0  0  0  0  0  0  0  0  0
   -1.1082    1.2394   -4.1201 H   0  0  0  0  0  0  0  0  0  0  0  0
   -1.9062    2.8454   -3.7323 H   0  0  0  0  0  0  0  0  0  0  0  0
   -2.8475    1.3294   -3.8087 H   0  0  0  0  0  0  0  0  0  0  0  0
  2  3  1  0
  3  4  1  0
  4  5  1  0
  5  6  2  0
  5  7  1  0
  7  8  1  0
  8  9  1  0
  9 10  1  0
 10 11  1  0
 11 12  1  0
 10 13  1  0
 13 14  2  0
 13 15  1  0
 15 16  1  0
 16 17  1  0
 17 18  2  0
 18 19  1  0
 19 20  2  0
 20 21  1  0
 21 22  2  0
 21 23  1  0
 23 24  1  0
 23 25  2  3
 15 26  1  0
 26 27  1  0
 27 28  2  0
 27 29  2  0
 27 30  1  0
 30 31  2  0
 31 32  1  0
 32 33  2  0
 33 34  1  0
 34 35  2  0
 35 36  1  0
 36 37  1  0
 36 38  1  0
 33 39  1  0
 39 40  1  0
 39 41  1  0
 31 42  1  0
 42 43  1  0
 42 44  1  0
 12  7  1  0
 22 17  1  0
 35 30  1  0
  1 45  1  0
  2 46  1  0
  2 47  1  0
  2 48  1  0
  3 49  1  0
  3 50  1  0
  8 51  1  0
  8 52  1  0
  9 53  1  0
  9 54  1  0
 11 55  1  0
 11 56  1  0
 12 57  1  0
 12 58  1  0
 15 59  1  6
 16 60  1  0
 16 61  1  0
 18 62  1  0
 19 63  1  0
 20 64  1  0
 22 65  1  0
 24 66  1  0
 24 67  1  0
 25 68  1  0
 26 69  1  0
 32 70  1  0
 34 71  1  0
 36 72  1  0
 37 73  1  0
 37 74  1  0
 37 75  1  0
 38 76  1  0
 38 77  1  0
 38 78  1  0
 39 79  1  0
 40 80  1  0
 40 81  1  0
 40 82  1  0
 41 83  1  0
 41 84  1  0
 41 85  1  0
 42 86  1  0
 43 87  1  0
 43 88  1  0
 43 89  1  0
 44 90  1  0
 44 91  1  0
 44 92  1  0
M  END
$$$$
