@<TRIPOS>MOLECULE
*****
 92 93 0 0 0
SMALL
GASTEIGER

@<TRIPOS>ATOM
      1 CL          1.0647   -2.2412   -0.2631 Cl      1  UNL1       -0.1454
      2 C           4.0618   -0.8758   -3.4974 C.3     2  UNL2       -0.0305
      3 C           2.8845   -1.7750   -3.0950 C.3     2  UNL2        0.0913
      4 O           2.9318   -1.8668   -1.6921 O.3     2  UNL2       -0.4505
      5 C           2.0275   -2.5945   -0.9362 C.2     2  UNL2        0.4029
      6 O           1.5477   -2.8432   -2.0580 O.2     2  UNL2       -0.2263
      7 N           2.2259   -2.5787    0.4931 N.am    2  UNL2       -0.2644
      8 C           3.3364   -1.8364    1.1018 C.3     2  UNL2        0.0336
      9 C           2.6941   -0.7505    1.9365 C.3     2  UNL2        0.0307
     10 N           1.2909   -1.0769    2.2326 N.am    2  UNL2       -0.2972
     11 C           1.0883   -2.4561    2.6204 C.3     2  UNL2        0.0307
     12 C           1.3307   -3.2959    1.3622 C.3     2  UNL2        0.0336
     13 C           0.0945   -0.3245    2.2192 C.2     2  UNL2        0.2346
     14 O          -1.1136   -0.5745    2.4461 O.2     2  UNL2       -0.2738
     15 C          -0.6236    0.9847    2.0045 C.3     2  UNL2        0.1089
     16 C          -0.2141    2.0485    2.9733 C.3     2  UNL2       -0.0021
     17 C           1.1677    2.4627    3.0317 C.ar    2  UNL2       -0.0446
     18 C           1.9922    1.8166    3.9646 C.ar    2  UNL2       -0.0585
     19 C           3.3327    2.0483    4.1918 C.ar    2  UNL2       -0.0607
     20 C           3.9009    3.0359    3.3935 C.ar    2  UNL2       -0.0469
     21 C           3.1547    3.7226    2.4465 C.ar    2  UNL2        0.0650
     22 C           1.8244    3.4378    2.2764 C.ar    2  UNL2       -0.0437
     23 C           3.8144    4.7476    1.6440 C.2     2  UNL2        0.3081
     24 N           5.2102    4.5666    1.3763 N.pl3   2  UNL2       -0.2466
     25 N           3.2525    5.8020    1.1533 N.2     2  UNL2       -0.0994
     26 N          -2.0211    0.8296    2.1266 N.3     2  UNL2       -0.1777
     27 S          -3.0684    1.0333    0.8399 S.O2    2  UNL2        0.0596
     28 O          -2.9595    2.5207    0.4759 O.2     2  UNL2       -0.1530
     29 O          -4.4872    0.9810    1.4340 O.2     2  UNL2       -0.1530
     30 C          -2.9607    0.0359   -0.5170 C.ar    2  UNL2        0.1121
     31 C          -2.3459    0.2243   -1.7350 C.ar    2  UNL2       -0.0179
     32 C          -2.3633   -0.7448   -2.7447 C.ar    2  UNL2       -0.0530
     33 C          -2.9983   -1.9585   -2.5900 C.ar    2  UNL2       -0.0441
     34 C          -3.6271   -2.1697   -1.3625 C.ar    2  UNL2       -0.0530
     35 C          -3.6118   -1.1959   -0.3449 C.ar    2  UNL2       -0.0179
     36 C          -4.3516   -1.7020    0.8336 C.3     2  UNL2       -0.0196
     37 C          -5.8173   -1.4014    0.5958 C.3     2  UNL2       -0.0586
     38 C          -4.2451   -3.1820    1.0265 C.3     2  UNL2       -0.0586
     39 C          -3.0200   -2.9849   -3.6676 C.3     2  UNL2       -0.0215
     40 C          -3.7598   -2.5489   -4.8987 C.3     2  UNL2       -0.0586
     41 C          -1.6249   -3.4732   -3.9998 C.3     2  UNL2       -0.0586
     42 C          -1.6287    1.4893   -2.0167 C.3     2  UNL2       -0.0196
     43 C          -0.1421    1.3930   -1.8466 C.3     2  UNL2       -0.0586
     44 C          -1.8712    1.7577   -3.5202 C.3     2  UNL2       -0.0586
     45 H           0.3510   -1.1236   -0.5853 H       1  UNL1        0.1454
     46 H           4.2226   -0.1106   -2.6837 H       2  UNL2        0.0262
     47 H           4.9802   -1.4777   -3.5126 H       2  UNL2        0.0262
     48 H           3.8754   -0.3316   -4.4325 H       2  UNL2        0.0262
     49 H           1.9736   -1.3111   -3.4994 H       2  UNL2        0.0695
     50 H           3.0632   -2.7642   -3.5755 H       2  UNL2        0.0695
     51 H           3.9777   -2.4840    1.7035 H       2  UNL2        0.0481
     52 H           3.9628   -1.3577    0.3212 H       2  UNL2        0.0481
     53 H           3.3070   -0.6850    2.8569 H       2  UNL2        0.0480
     54 H           2.7725    0.2372    1.4419 H       2  UNL2        0.0480
     55 H           1.9044   -2.7154    3.3316 H       2  UNL2        0.0480
     56 H           0.1345   -2.6757    3.0935 H       2  UNL2        0.0480
     57 H           1.7250   -4.2705    1.7153 H       2  UNL2        0.0481
     58 H           0.3769   -3.4395    0.8188 H       2  UNL2        0.0481
     59 H          -0.3981    1.2479    0.9599 H       2  UNL2        0.0576
     60 H          -0.7834    2.9637    2.6648 H       2  UNL2        0.0334
     61 H          -0.5408    1.7004    3.9812 H       2  UNL2        0.0334
     62 H           1.5562    1.0337    4.6026 H       2  UNL2        0.0620
     63 H           3.8802    1.5082    4.9237 H       2  UNL2        0.0618
     64 H           4.9652    3.2216    3.5649 H       2  UNL2        0.0626
     65 H           1.2114    3.9414    1.5644 H       2  UNL2        0.0629
     66 H           6.0283    4.4633    0.7502 H       2  UNL2        0.2884
     67 H           5.9207    4.4655    2.1531 H       2  UNL2        0.2884
     68 H           3.7867    6.5067    0.5792 H       2  UNL2        0.3633
     69 H          -2.4162    1.2542    2.9855 H       2  UNL2        0.1489
     70 H          -1.8750   -0.5741   -3.6808 H       2  UNL2        0.0624
     71 H          -4.1059   -3.1386   -1.2965 H       2  UNL2        0.0624
     72 H          -4.0822   -1.2377    1.7914 H       2  UNL2        0.0344
     73 H          -5.9432   -0.6348   -0.2195 H       2  UNL2        0.0235
     74 H          -6.3443   -2.3143    0.1770 H       2  UNL2        0.0235
     75 H          -6.3432   -1.0328    1.4738 H       2  UNL2        0.0235
     76 H          -4.4467   -3.4326    2.0859 H       2  UNL2        0.0235
     77 H          -3.2407   -3.5859    0.7275 H       2  UNL2        0.0235
     78 H          -5.0415   -3.6669    0.4383 H       2  UNL2        0.0235
     79 H          -3.5830   -3.8919   -3.2909 H       2  UNL2        0.0343
     80 H          -3.0850   -1.9501   -5.5411 H       2  UNL2        0.0235
     81 H          -4.0663   -3.4822   -5.4434 H       2  UNL2        0.0235
     82 H          -4.6616   -2.0088   -4.5974 H       2  UNL2        0.0235
     83 H          -1.5063   -4.5726   -3.8571 H       2  UNL2        0.0235
     84 H          -0.8675   -3.0232   -3.3159 H       2  UNL2        0.0235
     85 H          -1.3372   -3.1787   -5.0512 H       2  UNL2        0.0235
     86 H          -2.0533    2.3842   -1.5485 H       2  UNL2        0.0344
     87 H           0.3251    2.3029   -1.4645 H       2  UNL2        0.0235
     88 H           0.1343    0.4775   -1.2401 H       2  UNL2        0.0235
     89 H           0.3093    1.1952   -2.8367 H       2  UNL2        0.0235
     90 H          -1.1082    1.2394   -4.1201 H       2  UNL2        0.0235
     91 H          -1.9062    2.8454   -3.7323 H       2  UNL2        0.0235
     92 H          -2.8475    1.3294   -3.8087 H       2  UNL2        0.0235
@<TRIPOS>BOND
     1     2     3    1
     2     3     4    1
     3     4     5    1
     4     5     6    2
     5     5     7   am
     6     7     8    1
     7     8     9    1
     8     9    10    1
     9    10    11    1
    10    11    12    1
    11    10    13   am
    12    13    14    2
    13    13    15    1
    14    15    16    1
    15    16    17    1
    16    17    18   ar
    17    18    19   ar
    18    19    20   ar
    19    20    21   ar
    20    21    22   ar
    21    21    23    1
    22    23    24    1
    23    23    25    2
    24    15    26    1
    25    26    27    1
    26    27    28    2
    27    27    29    2
    28    27    30    1
    29    30    31   ar
    30    31    32   ar
    31    32    33   ar
    32    33    34   ar
    33    34    35   ar
    34    35    36    1
    35    36    37    1
    36    36    38    1
    37    33    39    1
    38    39    40    1
    39    39    41    1
    40    31    42    1
    41    42    43    1
    42    42    44    1
    43    12     7    1
    44    22    17   ar
    45    35    30   ar
    46     1    45    1
    47     2    46    1
    48     2    47    1
    49     2    48    1
    50     3    49    1
    51     3    50    1
    52     8    51    1
    53     8    52    1
    54     9    53    1
    55     9    54    1
    56    11    55    1
    57    11    56    1
    58    12    57    1
    59    12    58    1
    60    15    59    1
    61    16    60    1
    62    16    61    1
    63    18    62    1
    64    19    63    1
    65    20    64    1
    66    22    65    1
    67    24    66    1
    68    24    67    1
    69    25    68    1
    70    26    69    1
    71    32    70    1
    72    34    71    1
    73    36    72    1
    74    37    73    1
    75    37    74    1
    76    37    75    1
    77    38    76    1
    78    38    77    1
    79    38    78    1
    80    39    79    1
    81    40    80    1
    82    40    81    1
    83    40    82    1
    84    41    83    1
    85    41    84    1
    86    41    85    1
    87    42    86    1
    88    43    87    1
    89    43    88    1
    90    43    89    1
    91    44    90    1
    92    44    91    1
    93    44    92    1
