@<TRIPOS>MOLECULE
*****
 53 57 0 0 0
SMALL
GASTEIGER

@<TRIPOS>ATOM
      1 C          -3.5440   -0.8139   -0.7850 C.3     1  UNL1        0.0150
      2 N          -2.8320   -0.1143    0.2836 N.ar    1  UNL1       -0.3147
      3 C          -3.2564    0.5150    1.3688 C.ar    1  UNL1        0.2007
      4 N          -4.6054    0.7349    1.7386 N.pl3   1  UNL1       -0.2850
      5 C          -5.7255    0.7717    0.8877 C.ar    1  UNL1        0.0335
      6 C          -6.9424    0.2583    1.3663 C.ar    1  UNL1       -0.0399
      7 C          -8.0819    0.3012    0.6004 C.ar    1  UNL1       -0.0484
      8 C          -8.0983    0.8432   -0.6659 C.ar    1  UNL1        0.0549
      9 C          -9.3427    0.8817   -1.4937 C.3     1  UNL1        0.4174
     10 F          -9.9980    2.0831   -1.3888 F       1  UNL1       -0.1659
     11 F          -8.9343    0.7352   -2.8099 F       1  UNL1       -0.1659
     12 F         -10.2274   -0.1082   -1.1238 F       1  UNL1       -0.1659
     13 C          -6.9000    1.3450   -1.1265 C.ar    1  UNL1       -0.0484
     14 C          -5.7445    1.3146   -0.3795 C.ar    1  UNL1       -0.0399
     15 N          -2.1622    0.9625    2.0656 N.ar    1  UNL1       -0.2141
     16 C          -1.0360    0.6211    1.4255 C.ar    1  UNL1        0.0944
     17 C           0.3167    0.8334    1.7002 C.ar    1  UNL1        0.0082
     18 C           1.2514    0.3483    0.8177 C.ar    1  UNL1        0.1306
     19 O           2.6163    0.4971    0.9751 O.3     1  UNL1       -0.4558
     20 C           3.4843   -0.5322    0.6414 C.ar    1  UNL1        0.1320
     21 C           3.0848   -1.8401    0.5775 C.ar    1  UNL1       -0.0012
     22 C           4.0066   -2.8165    0.2301 C.ar    1  UNL1        0.0318
     23 N           5.2815   -2.4941   -0.0425 N.ar    1  UNL1       -0.2517
     24 C           5.7234   -1.2306    0.0063 C.ar    1  UNL1        0.1094
     25 C           7.1112   -0.8769   -0.3121 C.ar    1  UNL1        0.1571
     26 N           8.0760   -1.7482   -0.6960 N.ar    1  UNL1       -0.2339
     27 C           9.2342   -1.1122   -0.9280 C.ar    1  UNL1        0.0579
     28 C           8.9801    0.2244   -0.6758 C.ar    1  UNL1        0.1398
     29 C           9.9771    1.3078   -0.8034 C.3     1  UNL1        0.4337
     30 F          11.0703    0.8654   -1.5281 F       1  UNL1       -0.1644
     31 F           9.3972    2.3735   -1.4350 F       1  UNL1       -0.1644
     32 F          10.4113    1.6798    0.4504 F       1  UNL1       -0.1644
     33 N           7.6970    0.3249   -0.3093 N.ar    1  UNL1       -0.3335
     34 C           4.8195   -0.2593    0.3488 C.ar    1  UNL1        0.0097
     35 C           0.7987   -0.3374   -0.3153 C.ar    1  UNL1       -0.0173
     36 C          -0.5192   -0.5412   -0.5768 C.ar    1  UNL1       -0.0326
     37 C          -1.4682   -0.0566    0.3042 C.ar    1  UNL1        0.0700
     38 H          -4.4976   -1.2313   -0.4720 H       1  UNL1        0.0457
     39 H          -2.9305   -1.7258   -1.0945 H       1  UNL1        0.0457
     40 H          -3.6309   -0.1417   -1.6367 H       1  UNL1        0.0457
     41 H          -4.7838    0.8889    2.7798 H       1  UNL1        0.1550
     42 H          -6.9335   -0.1704    2.3653 H       1  UNL1        0.0636
     43 H          -8.9791   -0.1107    1.0295 H       1  UNL1        0.0624
     44 H          -6.8886    1.7814   -2.1303 H       1  UNL1        0.0624
     45 H          -4.8105    1.7342   -0.7682 H       1  UNL1        0.0636
     46 H           0.6152    1.3670    2.5877 H       1  UNL1        0.0676
     47 H           2.0590   -2.0957    0.8070 H       1  UNL1        0.0669
     48 H           3.6682   -3.8478    0.1854 H       1  UNL1        0.0831
     49 H          10.1670   -1.5794   -1.2491 H       1  UNL1        0.0851
     50 H           7.2029    1.2094   -0.0519 H       1  UNL1        0.1674
     51 H           5.1446    0.7803    0.4002 H       1  UNL1        0.0677
     52 H           1.5166   -0.7258   -1.0305 H       1  UNL1        0.0655
     53 H          -0.8381   -1.0730   -1.4578 H       1  UNL1        0.0640
@<TRIPOS>BOND
     1     1     2    1
     2     2     3   ar
     3     3     4    1
     4     4     5    1
     5     5     6   ar
     6     6     7   ar
     7     7     8   ar
     8     8     9    1
     9     9    10    1
    10     9    11    1
    11     9    12    1
    12     8    13   ar
    13    13    14   ar
    14     3    15   ar
    15    15    16   ar
    16    16    17   ar
    17    17    18   ar
    18    18    19    1
    19    19    20    1
    20    20    21   ar
    21    21    22   ar
    22    22    23   ar
    23    23    24   ar
    24    24    25    1
    25    25    26   ar
    26    26    27   ar
    27    27    28   ar
    28    28    29    1
    29    29    30    1
    30    29    31    1
    31    29    32    1
    32    28    33   ar
    33    24    34   ar
    34    18    35   ar
    35    35    36   ar
    36    36    37   ar
    37    37     2   ar
    38    14     5   ar
    39    37    16   ar
    40    34    20   ar
    41    33    25   ar
    42     1    38    1
    43     1    39    1
    44     1    40    1
    45     4    41    1
    46     6    42    1
    47     7    43    1
    48    13    44    1
    49    14    45    1
    50    17    46    1
    51    21    47    1
    52    22    48    1
    53    27    49    1
    54    33    50    1
    55    34    51    1
    56    35    52    1
    57    36    53    1
