
     RDKit          3D

 53 57  0  0  0  0  0  0  0  0999 V2000
   -3.5440   -0.8139   -0.7850 C   0  0  0  0  0  0  0  0  0  0  0  0
   -2.8320   -0.1143    0.2836 N   0  0  0  0  0  0  0  0  0  0  0  0
   -3.2564    0.5150    1.3688 C   0  0  0  0  0  0  0  0  0  0  0  0
   -4.6054    0.7349    1.7386 N   0  0  0  0  0  0  0  0  0  0  0  0
   -5.7255    0.7717    0.8877 C   0  0  0  0  0  0  0  0  0  0  0  0
   -6.9424    0.2583    1.3663 C   0  0  0  0  0  0  0  0  0  0  0  0
   -8.0819    0.3012    0.6004 C   0  0  0  0  0  0  0  0  0  0  0  0
   -8.0983    0.8432   -0.6659 C   0  0  0  0  0  0  0  0  0  0  0  0
   -9.3427    0.8817   -1.4937 C   0  0  0  0  0  0  0  0  0  0  0  0
   -9.9980    2.0831   -1.3888 F   0  0  0  0  0  0  0  0  0  0  0  0
   -8.9343    0.7352   -2.8099 F   0  0  0  0  0  0  0  0  0  0  0  0
  -10.2274   -0.1082   -1.1238 F   0  0  0  0  0  0  0  0  0  0  0  0
   -6.9000    1.3450   -1.1265 C   0  0  0  0  0  0  0  0  0  0  0  0
   -5.7445    1.3146   -0.3795 C   0  0  0  0  0  0  0  0  0  0  0  0
   -2.1622    0.9625    2.0656 N   0  0  0  0  0  0  0  0  0  0  0  0
   -1.0360    0.6211    1.4255 C   0  0  0  0  0  0  0  0  0  0  0  0
    0.3167    0.8334    1.7002 C   0  0  0  0  0  0  0  0  0  0  0  0
    1.2514    0.3483    0.8177 C   0  0  0  0  0  0  0  0  0  0  0  0
    2.6163    0.4971    0.9751 O   0  0  0  0  0  0  0  0  0  0  0  0
    3.4843   -0.5322    0.6414 C   0  0  0  0  0  0  0  0  0  0  0  0
    3.0848   -1.8401    0.5775 C   0  0  0  0  0  0  0  0  0  0  0  0
    4.0066   -2.8165    0.2301 C   0  0  0  0  0  0  0  0  0  0  0  0
    5.2815   -2.4941   -0.0425 N   0  0  0  0  0  0  0  0  0  0  0  0
    5.7234   -1.2306    0.0063 C   0  0  0  0  0  0  0  0  0  0  0  0
    7.1112   -0.8769   -0.3121 C   0  0  0  0  0  0  0  0  0  0  0  0
    8.0760   -1.7482   -0.6960 N   0  0  0  0  0  0  0  0  0  0  0  0
    9.2342   -1.1122   -0.9280 C   0  0  0  0  0  0  0  0  0  0  0  0
    8.9801    0.2244   -0.6758 C   0  0  0  0  0  0  0  0  0  0  0  0
    9.9771    1.3078   -0.8034 C   0  0  0  0  0  0  0  0  0  0  0  0
   11.0703    0.8654   -1.5281 F   0  0  0  0  0  0  0  0  0  0  0  0
    9.3972    2.3735   -1.4350 F   0  0  0  0  0  0  0  0  0  0  0  0
   10.4113    1.6798    0.4504 F   0  0  0  0  0  0  0  0  0  0  0  0
    7.6970    0.3249   -0.3093 N   0  0  0  0  0  0  0  0  0  0  0  0
    4.8195   -0.2593    0.3488 C   0  0  0  0  0  0  0  0  0  0  0  0
    0.7987   -0.3374   -0.3153 C   0  0  0  0  0  0  0  0  0  0  0  0
   -0.5192   -0.5412   -0.5768 C   0  0  0  0  0  0  0  0  0  0  0  0
   -1.4682   -0.0566    0.3042 C   0  0  0  0  0  0  0  0  0  0  0  0
   -4.4976   -1.2313   -0.4720 H   0  0  0  0  0  0  0  0  0  0  0  0
   -2.9305   -1.7258   -1.0945 H   0  0  0  0  0  0  0  0  0  0  0  0
   -3.6309   -0.1417   -1.6367 H   0  0  0  0  0  0  0  0  0  0  0  0
   -4.7838    0.8889    2.7798 H   0  0  0  0  0  0  0  0  0  0  0  0
   -6.9335   -0.1704    2.3653 H   0  0  0  0  0  0  0  0  0  0  0  0
   -8.9791   -0.1107    1.0295 H   0  0  0  0  0  0  0  0  0  0  0  0
   -6.8886    1.7814   -2.1303 H   0  0  0  0  0  0  0  0  0  0  0  0
   -4.8105    1.7342   -0.7682 H   0  0  0  0  0  0  0  0  0  0  0  0
    0.6152    1.3670    2.5877 H   0  0  0  0  0  0  0  0  0  0  0  0
    2.0590   -2.0957    0.8070 H   0  0  0  0  0  0  0  0  0  0  0  0
    3.6682   -3.8478    0.1854 H   0  0  0  0  0  0  0  0  0  0  0  0
   10.1670   -1.5794   -1.2491 H   0  0  0  0  0  0  0  0  0  0  0  0
    7.2029    1.2094   -0.0519 H   0  0  0  0  0  0  0  0  0  0  0  0
    5.1446    0.7803    0.4002 H   0  0  0  0  0  0  0  0  0  0  0  0
    1.5166   -0.7258   -1.0305 H   0  0  0  0  0  0  0  0  0  0  0  0
   -0.8381   -1.0730   -1.4578 H   0  0  0  0  0  0  0  0  0  0  0  0
  1  2  1  0
  2  3  1  0
  3  4  1  0
  4  5  1  0
  5  6  2  0
  6  7  1  0
  7  8  2  0
  8  9  1  0
  9 10  1  0
  9 11  1  0
  9 12  1  0
  8 13  1  0
 13 14  2  0
  3 15  2  0
 15 16  1  0
 16 17  2  0
 17 18  1  0
 18 19  1  0
 19 20  1  0
 20 21  2  0
 21 22  1  0
 22 23  2  0
 23 24  1  0
 24 25  1  0
 25 26  2  0
 26 27  1  0
 27 28  2  0
 28 29  1  0
 29 30  1  0
 29 31  1  0
 29 32  1  0
 28 33  1  0
 24 34  2  0
 18 35  2  0
 35 36  1  0
 36 37  2  0
 37  2  1  0
 14  5  1  0
 37 16  1  0
 34 20  1  0
 33 25  1  0
  1 38  1  0
  1 39  1  0
  1 40  1  0
  4 41  1  0
  6 42  1  0
  7 43  1  0
 13 44  1  0
 14 45  1  0
 17 46  1  0
 21 47  1  0
 22 48  1  0
 27 49  1  0
 33 50  1  0
 34 51  1  0
 35 52  1  0
 36 53  1  0
M  END
$$$$
