
     RDKit          3D

 58 63  0  0  0  0  0  0  0  0999 V2000
   10.2043   -1.0038   -1.4664 C   0  0  0  0  0  0  0  0  0  0  0  0
    9.3708    0.1324   -1.2943 O   0  0  0  0  0  0  0  0  0  0  0  0
    8.0854   -0.0160   -0.7845 C   0  0  0  0  0  0  0  0  0  0  0  0
    7.3104    1.1201   -0.6347 C   0  0  0  0  0  0  0  0  0  0  0  0
    6.0465    0.9986   -0.1366 N   0  0  0  0  0  0  0  0  0  0  0  0
    5.5465   -0.1950    0.2079 C   0  0  0  0  0  0  0  0  0  0  0  0
    4.2024   -0.2714    0.7309 C   0  0  0  0  0  0  0  0  0  0  0  0
    3.7055   -1.4007    1.0660 O   0  0  0  0  0  0  0  0  0  0  0  0
    3.3557    0.8493    0.9100 N   0  0  0  0  0  0  0  0  0  0  0  0
    2.0255    0.7563    1.4298 C   0  0  0  0  0  0  0  0  0  0  0  0
    1.8724    0.8606    2.7856 C   0  0  0  0  0  0  0  0  0  0  0  0
    0.6282    0.7819    3.3605 C   0  0  0  0  0  0  0  0  0  0  0  0
   -0.4838    0.5956    2.5683 C   0  0  0  0  0  0  0  0  0  0  0  0
   -0.3402    0.4916    1.2364 C   0  0  0  0  0  0  0  0  0  0  0  0
    0.9243    0.5733    0.6654 C   0  0  0  0  0  0  0  0  0  0  0  0
   -1.4566    0.2653    0.2868 C   0  0  0  0  0  0  0  0  0  0  0  0
   -1.1568   -1.1114   -0.3120 C   0  0  0  0  0  0  0  0  0  0  0  0
   -1.6621   -1.3510   -1.6783 C   0  0  0  0  0  0  0  0  0  0  0  0
   -1.7126   -0.1982   -2.4859 O   0  0  0  0  0  0  0  0  0  0  0  0
   -1.5969    1.0798   -1.9456 C   0  0  0  0  0  0  0  0  0  0  0  0
   -1.6194    2.1396   -2.9226 N   0  0  0  0  0  0  0  0  0  0  0  0
   -1.4834    1.2821   -0.7148 N   0  0  0  0  0  0  0  0  0  0  0  0
   -2.7748    0.2248    0.9934 C   0  0  0  0  0  0  0  0  0  0  0  0
   -3.9425    0.0466    0.2259 C   0  0  0  0  0  0  0  0  0  0  0  0
   -5.1704   -0.0182    0.8271 C   0  0  0  0  0  0  0  0  0  0  0  0
   -6.4257   -0.2047    0.0661 C   0  0  0  0  0  0  0  0  0  0  0  0
   -6.4244   -0.3232   -1.2912 C   0  0  0  0  0  0  0  0  0  0  0  0
   -7.6324   -0.4971   -1.9608 C   0  0  0  0  0  0  0  0  0  0  0  0
   -8.7912   -0.5485   -1.2821 N   0  0  0  0  0  0  0  0  0  0  0  0
   -8.8155   -0.4344    0.0494 C   0  0  0  0  0  0  0  0  0  0  0  0
   -9.9553   -0.4794    0.7804 F   0  0  0  0  0  0  0  0  0  0  0  0
   -7.6389   -0.2628    0.7270 C   0  0  0  0  0  0  0  0  0  0  0  0
   -5.2239    0.0942    2.1729 N   0  0  0  0  0  0  0  0  0  0  0  0
   -4.1305    0.2649    2.9238 C   0  0  0  0  0  0  0  0  0  0  0  0
   -4.1892    0.3780    4.2806 F   0  0  0  0  0  0  0  0  0  0  0  0
   -2.8535    0.3367    2.3432 C   0  0  0  0  0  0  0  0  0  0  0  0
   -1.7438    0.5212    3.1699 O   0  0  0  0  0  0  0  0  0  0  0  0
    6.3281   -1.3097    0.0530 C   0  0  0  0  0  0  0  0  0  0  0  0
    7.5998   -1.2164   -0.4446 N   0  0  0  0  0  0  0  0  0  0  0  0
   11.1958   -0.6608   -1.8371 H   0  0  0  0  0  0  0  0  0  0  0  0
    9.7785   -1.7107   -2.2089 H   0  0  0  0  0  0  0  0  0  0  0  0
   10.3747   -1.4878   -0.4814 H   0  0  0  0  0  0  0  0  0  0  0  0
    7.7283    2.0771   -0.9175 H   0  0  0  0  0  0  0  0  0  0  0  0
    3.7209    1.7904    0.6495 H   0  0  0  0  0  0  0  0  0  0  0  0
    2.7262    1.0093    3.4579 H   0  0  0  0  0  0  0  0  0  0  0  0
    0.5097    0.8648    4.4352 H   0  0  0  0  0  0  0  0  0  0  0  0
    1.0652    0.4927   -0.4117 H   0  0  0  0  0  0  0  0  0  0  0  0
   -1.5368   -1.8879    0.3919 H   0  0  0  0  0  0  0  0  0  0  0  0
   -0.0320   -1.2200   -0.2746 H   0  0  0  0  0  0  0  0  0  0  0  0
   -2.6415   -1.8596   -1.6660 H   0  0  0  0  0  0  0  0  0  0  0  0
   -0.9294   -2.0557   -2.1991 H   0  0  0  0  0  0  0  0  0  0  0  0
   -2.4384    2.2464   -3.5442 H   0  0  0  0  0  0  0  0  0  0  0  0
   -0.8227    2.7925   -3.0054 H   0  0  0  0  0  0  0  0  0  0  0  0
   -3.8502   -0.0278   -0.8457 H   0  0  0  0  0  0  0  0  0  0  0  0
   -5.5283   -0.2901   -1.8915 H   0  0  0  0  0  0  0  0  0  0  0  0
   -7.6194   -0.5899   -3.0375 H   0  0  0  0  0  0  0  0  0  0  0  0
   -7.5989   -0.1645    1.8092 H   0  0  0  0  0  0  0  0  0  0  0  0
    5.9164   -2.2691    0.3336 H   0  0  0  0  0  0  0  0  0  0  0  0
  1  2  1  0
  2  3  1  0
  3  4  2  0
  4  5  1  0
  5  6  2  0
  6  7  1  0
  7  8  2  0
  7  9  1  0
  9 10  1  0
 10 11  2  0
 11 12  1  0
 12 13  2  0
 13 14  1  0
 14 15  2  0
 14 16  1  0
 16 17  1  0
 17 18  1  0
 18 19  1  0
 19 20  1  0
 20 21  1  0
 20 22  2  0
 16 23  1  0
 23 24  2  0
 24 25  1  0
 25 26  1  0
 26 27  2  0
 27 28  1  0
 28 29  2  0
 29 30  1  0
 30 31  1  0
 30 32  2  0
 25 33  2  0
 33 34  1  0
 34 35  1  0
 34 36  2  0
 36 37  1  0
  6 38  1  0
 38 39  2  0
 39  3  1  0
 15 10  1  0
 22 16  1  0
 36 23  1  0
 37 13  1  0
 32 26  1  0
  1 40  1  0
  1 41  1  0
  1 42  1  0
  4 43  1  0
  9 44  1  0
 11 45  1  0
 12 46  1  0
 15 47  1  0
 17 48  1  0
 17 49  1  0
 18 50  1  0
 18 51  1  0
 21 52  1  0
 21 53  1  0
 24 54  1  0
 27 55  1  0
 28 56  1  0
 32 57  1  0
 38 58  1  0
M  END
$$$$
