@<TRIPOS>MOLECULE
*****
 58 63 0 0 0
SMALL
GASTEIGER

@<TRIPOS>ATOM
      1 C          10.2043   -1.0038   -1.4664 C.3     1  UNL1        0.0805
      2 O           9.3708    0.1324   -1.2943 O.3     1  UNL1       -0.4786
      3 C           8.0854   -0.0160   -0.7845 C.ar    1  UNL1        0.2332
      4 C           7.3104    1.1201   -0.6347 C.ar    1  UNL1        0.0899
      5 N           6.0465    0.9986   -0.1366 N.ar    1  UNL1       -0.2435
      6 C           5.5465   -0.1950    0.2079 C.ar    1  UNL1        0.1439
      7 C           4.2024   -0.2714    0.7309 C.2     1  UNL1        0.2681
      8 O           3.7055   -1.4007    1.0660 O.2     1  UNL1       -0.2681
      9 N           3.3557    0.8493    0.9100 N.am    1  UNL1       -0.2802
     10 C           2.0255    0.7563    1.4298 C.ar    1  UNL1        0.0343
     11 C           1.8724    0.8606    2.7856 C.ar    1  UNL1       -0.0370
     12 C           0.6282    0.7819    3.3605 C.ar    1  UNL1       -0.0172
     13 C          -0.4838    0.5956    2.5683 C.ar    1  UNL1        0.1346
     14 C          -0.3402    0.4916    1.2364 C.ar    1  UNL1        0.0287
     15 C           0.9243    0.5733    0.6654 C.ar    1  UNL1       -0.0312
     16 C          -1.4566    0.2653    0.2868 C.3     1  UNL1        0.1265
     17 C          -1.1568   -1.1114   -0.3120 C.3     1  UNL1        0.0155
     18 C          -1.6621   -1.3510   -1.6783 C.3     1  UNL1        0.0953
     19 O          -1.7126   -0.1982   -2.4859 O.2     1  UNL1       -0.4658
     20 C          -1.5969    1.0798   -1.9456 C.2     1  UNL1        0.2763
     21 N          -1.6194    2.1396   -2.9226 N.pl3   1  UNL1       -0.3134
     22 N          -1.4834    1.2821   -0.7148 N.2     1  UNL1       -0.2205
     23 C          -2.7748    0.2248    0.9934 C.ar    1  UNL1        0.0334
     24 C          -3.9425    0.0466    0.2259 C.ar    1  UNL1       -0.0262
     25 C          -5.1704   -0.0182    0.8271 C.ar    1  UNL1        0.0748
     26 C          -6.4257   -0.2047    0.0661 C.ar    1  UNL1        0.0061
     27 C          -6.4244   -0.3232   -1.2912 C.ar    1  UNL1       -0.0342
     28 C          -7.6324   -0.4971   -1.9608 C.ar    1  UNL1        0.0313
     29 N          -8.7912   -0.5485   -1.2821 N.ar    1  UNL1       -0.2276
     30 C          -8.8155   -0.4344    0.0494 C.ar    1  UNL1        0.2138
     31 F          -9.9553   -0.4794    0.7804 F       1  UNL1       -0.1839
     32 C          -7.6389   -0.2628    0.7270 C.ar    1  UNL1        0.0019
     33 N          -5.2239    0.0942    2.1729 N.ar    1  UNL1       -0.2161
     34 C          -4.1305    0.2649    2.9238 C.ar    1  UNL1        0.2567
     35 F          -4.1892    0.3780    4.2806 F       1  UNL1       -0.1799
     36 C          -2.8535    0.3367    2.3432 C.ar    1  UNL1        0.1883
     37 O          -1.7438    0.5212    3.1699 O.3     1  UNL1       -0.4508
     38 C           6.3281   -1.3097    0.0530 C.ar    1  UNL1        0.0619
     39 N           7.5998   -1.2164   -0.4446 N.ar    1  UNL1       -0.2178
     40 H          11.1958   -0.6608   -1.8371 H       1  UNL1        0.0660
     41 H           9.7785   -1.7107   -2.2089 H       1  UNL1        0.0660
     42 H          10.3747   -1.4878   -0.4814 H       1  UNL1        0.0660
     43 H           7.7283    2.0771   -0.9175 H       1  UNL1        0.0884
     44 H           3.7209    1.7904    0.6495 H       1  UNL1        0.1552
     45 H           2.7262    1.0093    3.4579 H       1  UNL1        0.0637
     46 H           0.5097    0.8648    4.4352 H       1  UNL1        0.0655
     47 H           1.0652    0.4927   -0.4117 H       1  UNL1        0.0641
     48 H          -1.5368   -1.8879    0.3919 H       1  UNL1        0.0328
     49 H          -0.0320   -1.2200   -0.2746 H       1  UNL1        0.0328
     50 H          -2.6415   -1.8596   -1.6660 H       1  UNL1        0.0698
     51 H          -0.9294   -2.0557   -2.1991 H       1  UNL1        0.0698
     52 H          -2.4384    2.2464   -3.5442 H       1  UNL1        0.1466
     53 H          -0.8227    2.7925   -3.0054 H       1  UNL1        0.1466
     54 H          -3.8502   -0.0278   -0.8457 H       1  UNL1        0.0644
     55 H          -5.5283   -0.2901   -1.8915 H       1  UNL1        0.0639
     56 H          -7.6194   -0.5899   -3.0375 H       1  UNL1        0.0831
     57 H          -7.5989   -0.1645    1.8092 H       1  UNL1        0.0669
     58 H           5.9164   -2.2691    0.3336 H       1  UNL1        0.0854
@<TRIPOS>BOND
     1     1     2    1
     2     2     3    1
     3     3     4   ar
     4     4     5   ar
     5     5     6   ar
     6     6     7    1
     7     7     8    2
     8     7     9   am
     9     9    10    1
    10    10    11   ar
    11    11    12   ar
    12    12    13   ar
    13    13    14   ar
    14    14    15   ar
    15    14    16    1
    16    16    17    1
    17    17    18    1
    18    18    19    1
    19    19    20    1
    20    20    21    1
    21    20    22    2
    22    16    23    1
    23    23    24   ar
    24    24    25   ar
    25    25    26    1
    26    26    27   ar
    27    27    28   ar
    28    28    29   ar
    29    29    30   ar
    30    30    31    1
    31    30    32   ar
    32    25    33   ar
    33    33    34   ar
    34    34    35    1
    35    34    36   ar
    36    36    37    1
    37     6    38   ar
    38    38    39   ar
    39    39     3   ar
    40    15    10   ar
    41    22    16    1
    42    36    23   ar
    43    37    13    1
    44    32    26   ar
    45     1    40    1
    46     1    41    1
    47     1    42    1
    48     4    43    1
    49     9    44    1
    50    11    45    1
    51    12    46    1
    52    15    47    1
    53    17    48    1
    54    17    49    1
    55    18    50    1
    56    18    51    1
    57    21    52    1
    58    21    53    1
    59    24    54    1
    60    27    55    1
    61    28    56    1
    62    32    57    1
    63    38    58    1
