
     RDKit          3D

 28 28  0  0  0  0  0  0  0  0999 V2000
   -1.8315   -2.0417   -0.2337 N   0  0  0  0  0  0  0  0  0  0  0  0
   -0.9831   -1.1850    0.6177 C   0  0  1  0  0  0  0  0  0  0  0  0
    0.4270   -1.3035    0.2394 C   0  0  0  0  0  0  0  0  0  0  0  0
    1.0656   -0.1912   -0.4904 C   0  0  2  0  0  0  0  0  0  0  0  0
    1.1096   -0.4550   -1.8810 O   0  0  0  0  0  0  0  0  0  0  0  0
    2.5469   -0.0746   -0.0903 C   0  0  0  0  0  0  0  0  0  0  0  0
    2.5298    0.1896    1.2984 O   0  0  0  0  0  0  0  0  0  0  0  0
    0.4848    1.1533   -0.3112 C   0  0  1  0  0  0  0  0  0  0  0  0
    0.8191    1.9423   -1.4373 O   0  0  0  0  0  0  0  0  0  0  0  0
   -0.9843    1.2172   -0.1433 C   0  0  2  0  0  0  0  0  0  0  0  0
   -1.2792    2.4748    0.4362 O   0  0  0  0  0  0  0  0  0  0  0  0
   -1.5846    0.1632    0.6987 C   0  0  1  0  0  0  0  0  0  0  0  0
   -2.9505    0.0778    0.3389 O   0  0  0  0  0  0  0  0  0  0  0  0
   -1.2973   -2.7854   -0.6917 H   0  0  0  0  0  0  0  0  0  0  0  0
   -2.4491   -1.4796   -0.8215 H   0  0  0  0  0  0  0  0  0  0  0  0
   -1.1177   -1.6546    1.6405 H   0  0  0  0  0  0  0  0  0  0  0  0
    1.0764   -1.5582    1.1310 H   0  0  0  0  0  0  0  0  0  0  0  0
    0.5457   -2.2251   -0.4091 H   0  0  0  0  0  0  0  0  0  0  0  0
    1.9242   -0.9577   -2.1224 H   0  0  0  0  0  0  0  0  0  0  0  0
    2.9808   -1.0629   -0.2355 H   0  0  0  0  0  0  0  0  0  0  0  0
    3.0417    0.7506   -0.6066 H   0  0  0  0  0  0  0  0  0  0  0  0
    3.3712   -0.1009    1.7252 H   0  0  0  0  0  0  0  0  0  0  0  0
    0.9655    1.6624    0.5542 H   0  0  0  0  0  0  0  0  0  0  0  0
    0.4386    2.8435   -1.2694 H   0  0  0  0  0  0  0  0  0  0  0  0
   -1.4916    1.2520   -1.1460 H   0  0  0  0  0  0  0  0  0  0  0  0
   -2.2120    2.7194    0.3409 H   0  0  0  0  0  0  0  0  0  0  0  0
   -1.6039    0.5435    1.7634 H   0  0  0  0  0  0  0  0  0  0  0  0
   -3.5422    0.0856    1.1046 H   0  0  0  0  0  0  0  0  0  0  0  0
  1  2  1  0
  2  3  1  0
  3  4  1  0
  4  5  1  6
  4  6  1  0
  6  7  1  0
  4  8  1  0
  8  9  1  0
  8 10  1  0
 10 11  1  0
 10 12  1  0
 12 13  1  0
 12  2  1  0
  1 14  1  0
  1 15  1  0
  2 16  1  1
  3 17  1  0
  3 18  1  0
  5 19  1  0
  6 20  1  0
  6 21  1  0
  7 22  1  0
  8 23  1  1
  9 24  1  0
 10 25  1  6
 11 26  1  0
 12 27  1  1
 13 28  1  0
M  END
$$$$
