@<TRIPOS>MOLECULE
*****
 28 28 0 0 0
SMALL
GASTEIGER

@<TRIPOS>ATOM
      1 N          -1.8315   -2.0417   -0.2337 N.3     1  UNL1       -0.3250
      2 C          -0.9831   -1.1850    0.6177 C.3     1  UNL1        0.0364
      3 C           0.4270   -1.3035    0.2394 C.3     1  UNL1       -0.0016
      4 C           1.0656   -0.1912   -0.4904 C.3     1  UNL1        0.1186
      5 O           1.1096   -0.4550   -1.8810 O.3     1  UNL1       -0.3836
      6 C           2.5469   -0.0746   -0.0903 C.3     1  UNL1        0.0755
      7 O           2.5298    0.1896    1.2984 O.3     1  UNL1       -0.3921
      8 C           0.4848    1.1533   -0.3112 C.3     1  UNL1        0.1143
      9 O           0.8191    1.9423   -1.4373 O.3     1  UNL1       -0.3862
     10 C          -0.9843    1.2172   -0.1433 C.3     1  UNL1        0.1110
     11 O          -1.2792    2.4748    0.4362 O.3     1  UNL1       -0.3865
     12 C          -1.5846    0.1632    0.6987 C.3     1  UNL1        0.0987
     13 O          -2.9505    0.0778    0.3389 O.3     1  UNL1       -0.3876
     14 H          -1.2973   -2.7854   -0.6917 H       1  UNL1        0.1185
     15 H          -2.4491   -1.4796   -0.8215 H       1  UNL1        0.1185
     16 H          -1.1177   -1.6546    1.6405 H       1  UNL1        0.0485
     17 H           1.0764   -1.5582    1.1310 H       1  UNL1        0.0310
     18 H           0.5457   -2.2251   -0.4091 H       1  UNL1        0.0310
     19 H           1.9242   -0.9577   -2.1224 H       1  UNL1        0.2104
     20 H           2.9808   -1.0629   -0.2355 H       1  UNL1        0.0587
     21 H           3.0417    0.7506   -0.6066 H       1  UNL1        0.0587
     22 H           3.3712   -0.1009    1.7252 H       1  UNL1        0.2095
     23 H           0.9655    1.6624    0.5542 H       1  UNL1        0.0650
     24 H           0.4386    2.8435   -1.2694 H       1  UNL1        0.2100
     25 H          -1.4916    1.2520   -1.1460 H       1  UNL1        0.0646
     26 H          -2.2120    2.7194    0.3409 H       1  UNL1        0.2100
     27 H          -1.6039    0.5435    1.7634 H       1  UNL1        0.0635
     28 H          -3.5422    0.0856    1.1046 H       1  UNL1        0.2100
@<TRIPOS>BOND
     1     1     2    1
     2     2     3    1
     3     3     4    1
     4     4     5    1
     5     4     6    1
     6     6     7    1
     7     4     8    1
     8     8     9    1
     9     8    10    1
    10    10    11    1
    11    10    12    1
    12    12    13    1
    13    12     2    1
    14     1    14    1
    15     1    15    1
    16     2    16    1
    17     3    17    1
    18     3    18    1
    19     5    19    1
    20     6    20    1
    21     6    21    1
    22     7    22    1
    23     8    23    1
    24     9    24    1
    25    10    25    1
    26    11    26    1
    27    12    27    1
    28    13    28    1
