@<TRIPOS>MOLECULE
*****
 47 50 0 0 0
SMALL
GASTEIGER

@<TRIPOS>ATOM
      1 F           9.3857    2.7239    0.6432 F       1  UNL1       -0.2055
      2 C           8.4886    1.8118    0.2174 C.ar    1  UNL1        0.1234
      3 C           7.7382    2.0022   -0.9523 C.ar    1  UNL1       -0.0262
      4 C           6.8431    1.0494   -1.3526 C.ar    1  UNL1       -0.0554
      5 C           6.5781   -0.1119   -0.7302 C.ar    1  UNL1       -0.0384
      6 C           5.7618   -1.3079   -0.9040 C.3     1  UNL1        0.0495
      7 C           4.3222   -1.1599   -0.6043 C.2     1  UNL1        0.2247
      8 O           4.4863    0.0973   -0.7405 O.2     1  UNL1       -0.2750
      9 N           2.9595   -1.6289   -0.2699 N.am    1  UNL1       -0.2397
     10 C           1.9662   -0.6485   -0.2479 C.2     1  UNL1        0.3101
     11 O           1.9895    0.5396   -0.5181 O.2     1  UNL1       -0.2521
     12 N           0.8948   -1.5334    0.1789 N.am    1  UNL1       -0.2691
     13 C          -0.4390   -1.0042    0.2590 C.ar    1  UNL1        0.0377
     14 C          -0.8350    0.2910    0.0133 C.ar    1  UNL1       -0.0015
     15 C          -2.2068    0.5920    0.0480 C.ar    1  UNL1        0.1672
     16 F          -2.4531    1.9100   -0.2182 F       1  UNL1       -0.2016
     17 C          -3.1611   -0.3691    0.3250 C.ar    1  UNL1        0.1636
     18 O          -4.3865    0.1878    0.2804 O.3     1  UNL1       -0.4524
     19 C          -5.6443   -0.1873    0.4545 C.ar    1  UNL1        0.1406
     20 C          -6.3666   -1.3063    0.8310 C.ar    1  UNL1       -0.0005
     21 C          -7.7092   -1.4630    0.9314 C.ar    1  UNL1        0.0334
     22 N          -8.4260   -0.3765    0.6200 N.ar    1  UNL1       -0.2373
     23 C          -7.8731    0.7828    0.2336 C.ar    1  UNL1        0.1416
     24 C          -6.4869    0.8697    0.1550 C.ar    1  UNL1        0.0608
     25 C          -6.3694    2.1959   -0.2801 C.ar    1  UNL1       -0.0315
     26 C          -7.5934    2.8099   -0.4362 C.ar    1  UNL1        0.0042
     27 N          -8.5246    1.9011   -0.1073 N.ar    1  UNL1       -0.3457
     28 C          -2.7647   -1.6436    0.5747 C.ar    1  UNL1       -0.0147
     29 C          -1.4186   -1.9159    0.5315 C.ar    1  UNL1       -0.0368
     30 C           7.3483   -0.2566    0.4383 C.ar    1  UNL1       -0.0554
     31 C           8.2854    0.6570    0.9294 C.ar    1  UNL1       -0.0262
     32 H           7.8606    2.8863   -1.5485 H       1  UNL1        0.0646
     33 H           6.2109    1.1050   -2.2352 H       1  UNL1        0.0621
     34 H           5.8249   -1.5359   -2.0237 H       1  UNL1        0.0407
     35 H           6.1762   -2.2306   -0.4385 H       1  UNL1        0.0407
     36 H           3.6284   -2.2764   -0.2875 H       1  UNL1        0.1591
     37 H           0.9793   -2.5541    0.4525 H       1  UNL1        0.1564
     38 H          -0.0864    1.0217   -0.1954 H       1  UNL1        0.0666
     39 H          -5.7269   -2.1252    1.0779 H       1  UNL1        0.0670
     40 H          -8.0796   -2.4374    1.2574 H       1  UNL1        0.0831
     41 H          -5.4059    2.6813   -0.4661 H       1  UNL1        0.0640
     42 H          -7.6928    3.8424   -0.7720 H       1  UNL1        0.0807
     43 H          -9.5485    2.0550   -0.1334 H       1  UNL1        0.1668
     44 H          -3.4773   -2.3800    0.7951 H       1  UNL1        0.0656
     45 H          -1.2374   -2.9801    0.7476 H       1  UNL1        0.0637
     46 H           7.3095   -1.1116    1.1333 H       1  UNL1        0.0621
     47 H           8.8758    0.5311    1.8210 H       1  UNL1        0.0646
@<TRIPOS>BOND
     1     1     2    1
     2     2     3   ar
     3     3     4   ar
     4     4     5   ar
     5     5     6    1
     6     6     7    1
     7     7     8    2
     8     7     9   am
     9     9    10   am
    10    10    11    2
    11    10    12   am
    12    12    13    1
    13    13    14   ar
    14    14    15   ar
    15    15    16    1
    16    15    17   ar
    17    17    18    1
    18    18    19    1
    19    19    20   ar
    20    20    21   ar
    21    21    22   ar
    22    22    23   ar
    23    23    24   ar
    24    24    25   ar
    25    25    26   ar
    26    26    27   ar
    27    17    28   ar
    28    28    29   ar
    29     5    30   ar
    30    30    31   ar
    31    31     2   ar
    32    29    13   ar
    33    24    19   ar
    34    27    23   ar
    35     3    32    1
    36     4    33    1
    37     6    34    1
    38     6    35    1
    39     9    36    1
    40    12    37    1
    41    14    38    1
    42    20    39    1
    43    21    40    1
    44    25    41    1
    45    26    42    1
    46    27    43    1
    47    28    44    1
    48    29    45    1
    49    30    46    1
    50    31    47    1
