@<TRIPOS>MOLECULE
*****
 28 29 0 0 0
SMALL
GASTEIGER

@<TRIPOS>ATOM
      1 C          -2.1940   -0.0544    0.3914 C.3     1  UNL1        0.0861
      2 N          -2.4852    0.3278   -0.9557 N.3     1  UNL1       -0.3197
      3 C          -0.8154    0.4443    0.7385 C.3     1  UNL1       -0.0019
      4 C           0.1522   -0.1744   -0.2012 C.ar    1  UNL1       -0.0204
      5 C           0.0593   -1.0566   -1.2609 C.ar    1  UNL1        0.0060
      6 N           1.2873   -1.2846   -1.7730 N.ar    1  UNL1       -0.3604
      7 C           2.1721   -0.5752   -1.0749 C.ar    1  UNL1        0.0467
      8 C           1.5039    0.1292   -0.0876 C.ar    1  UNL1        0.0029
      9 C           2.2682    0.9233    0.7368 C.ar    1  UNL1       -0.0523
     10 C           3.6430    1.0309    0.6066 C.ar    1  UNL1       -0.0611
     11 C           4.3157    0.3303   -0.3770 C.ar    1  UNL1       -0.0598
     12 C           3.5419   -0.4698   -1.2069 C.ar    1  UNL1       -0.0378
     13 C          -3.2090    0.3302    1.3770 C.2     1  UNL1        0.2276
     14 N          -4.4540    1.0177    1.2914 N.am    1  UNL1       -0.3280
     15 O          -2.9612   -0.0039    2.5766 O.2     1  UNL1       -0.2743
     16 H          -2.1257   -1.1763    0.4073 H       1  UNL1        0.0557
     17 H          -3.1558   -0.3073   -1.4387 H       1  UNL1        0.1189
     18 H          -2.7063    1.3314   -1.0781 H       1  UNL1        0.1189
     19 H          -0.7796    1.5526    0.7064 H       1  UNL1        0.0334
     20 H          -0.6143    0.1505    1.8064 H       1  UNL1        0.0334
     21 H          -0.9223   -1.4308   -1.5311 H       1  UNL1        0.0810
     22 H           1.4080   -1.9333   -2.5883 H       1  UNL1        0.1653
     23 H           1.7791    1.4822    1.5124 H       1  UNL1        0.0624
     24 H           4.1708    1.6858    1.3060 H       1  UNL1        0.0618
     25 H           5.3737    0.4256   -0.4619 H       1  UNL1        0.0618
     26 H           4.0685   -1.0169   -1.9752 H       1  UNL1        0.0638
     27 H          -5.1753    0.2848    1.2656 H       1  UNL1        0.1450
     28 H          -4.1455    2.0146    1.2881 H       1  UNL1        0.1450
@<TRIPOS>BOND
     1     1     2    1
     2     1     3    1
     3     3     4    1
     4     4     5   ar
     5     5     6   ar
     6     6     7   ar
     7     7     8   ar
     8     8     9   ar
     9     9    10   ar
    10    10    11   ar
    11    11    12   ar
    12     1    13    1
    13    13    14   am
    14    13    15    2
    15     8     4   ar
    16    12     7   ar
    17     1    16    1
    18     2    17    1
    19     2    18    1
    20     3    19    1
    21     3    20    1
    22     5    21    1
    23     6    22    1
    24     9    23    1
    25    10    24    1
    26    11    25    1
    27    12    26    1
    28    14    27    1
    29    14    28    1
