@<TRIPOS>MOLECULE
*****
 48 52 0 0 0
SMALL
GASTEIGER

@<TRIPOS>ATOM
      1 CL         -3.7953    5.1989    0.6273 Cl      1  UNL1       -0.0835
      2 C          -3.2939    3.5302    0.3801 C.ar    1  UNL1        0.0410
      3 C          -2.7669    2.7706    1.4137 C.ar    1  UNL1       -0.0431
      4 C          -2.3671    1.4533    1.2339 C.ar    1  UNL1       -0.0563
      5 C          -2.4949    0.8636   -0.0230 C.ar    1  UNL1       -0.0367
      6 C          -3.0160    1.6439   -1.0074 C.ar    1  UNL1       -0.0563
      7 C          -3.4252    2.9489   -0.8798 C.ar    1  UNL1       -0.0431
      8 C          -2.0728   -0.5586   -0.2477 C.3     1  UNL1        0.0230
      9 C          -2.8816   -1.4852    0.6201 C.3     1  UNL1       -0.0267
     10 C          -3.3250   -2.7224   -0.0869 C.3     1  UNL1       -0.0030
     11 N          -2.4952   -3.2099   -1.1230 N.3     1  UNL1       -0.3159
     12 C          -1.7892   -2.2767   -1.9172 C.3     1  UNL1       -0.0030
     13 C          -2.3561   -0.8793   -1.7021 C.3     1  UNL1       -0.0267
     14 C          -0.6286   -0.5981   -0.0371 C.ar    1  UNL1       -0.0368
     15 C           0.0824    0.2632   -0.8833 C.ar    1  UNL1       -0.0571
     16 C           1.4574    0.3408   -0.8100 C.ar    1  UNL1       -0.0522
     17 C           2.1768   -0.4196    0.0908 C.ar    1  UNL1        0.0026
     18 C           1.4812   -1.2755    0.9327 C.ar    1  UNL1       -0.0522
     19 C           0.1149   -1.3306    0.8364 C.ar    1  UNL1       -0.0571
     20 C           3.6242   -0.4386    0.2768 C.ar    1  UNL1        0.1016
     21 C           4.3415    0.7468    0.3264 C.ar    1  UNL1        0.1335
     22 N           3.9673    2.0330    0.2328 N.ar    1  UNL1       -0.2321
     23 C           5.0765    2.8199    0.3470 C.ar    1  UNL1        0.0957
     24 N           6.1139    1.9785    0.5098 N.ar    1  UNL1       -0.3292
     25 C           5.7283    0.6903    0.5060 C.ar    1  UNL1        0.1614
     26 N           6.3530   -0.4923    0.6281 N.ar    1  UNL1       -0.2163
     27 C           5.6364   -1.6405    0.5773 C.ar    1  UNL1        0.1191
     28 N           4.2841   -1.6089    0.4030 N.ar    1  UNL1       -0.2331
     29 H          -2.6666    3.2383    2.4053 H       1  UNL1        0.0632
     30 H          -1.9513    0.8507    2.0450 H       1  UNL1        0.0621
     31 H          -3.1394    1.2414   -2.0044 H       1  UNL1        0.0621
     32 H          -3.8276    3.5168   -1.6849 H       1  UNL1        0.0632
     33 H          -3.8224   -0.9129    0.8858 H       1  UNL1        0.0289
     34 H          -2.4352   -1.6887    1.6163 H       1  UNL1        0.0289
     35 H          -3.3562   -3.5311    0.7030 H       1  UNL1        0.0424
     36 H          -4.4080   -2.6469   -0.3927 H       1  UNL1        0.0424
     37 H          -2.0925   -4.1434   -1.0282 H       1  UNL1        0.1219
     38 H          -0.6993   -2.2510   -1.6724 H       1  UNL1        0.0424
     39 H          -1.8741   -2.4886   -2.9975 H       1  UNL1        0.0424
     40 H          -3.4401   -0.8854   -1.9126 H       1  UNL1        0.0289
     41 H          -1.7764   -0.2266   -2.3821 H       1  UNL1        0.0289
     42 H          -0.2829    0.9388   -1.6507 H       1  UNL1        0.0621
     43 H           2.1007    0.9689   -1.4135 H       1  UNL1        0.0624
     44 H           1.9645   -1.9041    1.6649 H       1  UNL1        0.0624
     45 H          -0.4413   -1.9839    1.4746 H       1  UNL1        0.0621
     46 H           5.1484    3.9146    0.3174 H       1  UNL1        0.1027
     47 H           7.1174    2.2386    0.6292 H       1  UNL1        0.1682
     48 H           6.1524   -2.5912    0.6772 H       1  UNL1        0.1048
@<TRIPOS>BOND
     1     1     2    1
     2     2     3   ar
     3     3     4   ar
     4     4     5   ar
     5     5     6   ar
     6     6     7   ar
     7     5     8    1
     8     8     9    1
     9     9    10    1
    10    10    11    1
    11    11    12    1
    12    12    13    1
    13     8    14    1
    14    14    15   ar
    15    15    16   ar
    16    16    17   ar
    17    17    18   ar
    18    18    19   ar
    19    17    20    1
    20    20    21   ar
    21    21    22   ar
    22    22    23   ar
    23    23    24   ar
    24    24    25   ar
    25    25    26   ar
    26    26    27   ar
    27    27    28   ar
    28     7     2   ar
    29    13     8    1
    30    19    14   ar
    31    28    20   ar
    32    25    21   ar
    33     3    29    1
    34     4    30    1
    35     6    31    1
    36     7    32    1
    37     9    33    1
    38     9    34    1
    39    10    35    1
    40    10    36    1
    41    11    37    1
    42    12    38    1
    43    12    39    1
    44    13    40    1
    45    13    41    1
    46    15    42    1
    47    16    43    1
    48    18    44    1
    49    19    45    1
    50    23    46    1
    51    24    47    1
    52    27    48    1
