
     RDKit          3D

 62 64  0  0  0  0  0  0  0  0999 V2000
   -1.4080    3.8216    1.1110 C   0  0  0  0  0  0  0  0  0  0  0  0
   -2.0156    2.4453    1.3032 C   0  0  0  0  0  0  0  0  0  0  0  0
   -2.0477    1.7460   -0.0583 C   0  0  0  0  0  0  0  0  0  0  0  0
   -2.6029    0.4209    0.0408 N   0  0  0  0  0  0  0  0  0  0  0  0
   -1.7680   -0.6882    0.2921 C   0  0  0  0  0  0  0  0  0  0  0  0
   -2.3052   -1.8419    0.3630 O   0  0  0  0  0  0  0  0  0  0  0  0
   -0.3358   -0.6537    0.4837 C   0  0  0  0  0  0  0  0  0  0  0  0
    0.2469   -0.9928    1.7059 C   0  0  0  0  0  0  0  0  0  0  0  0
    1.6082   -0.9667    1.9128 C   0  0  0  0  0  0  0  0  0  0  0  0
    2.4418   -0.5839    0.8550 C   0  0  0  0  0  0  0  0  0  0  0  0
    3.9258   -0.5579    1.0674 C   0  0  0  0  0  0  0  0  0  0  0  0
    4.4367   -1.8219    0.6270 N   0  0  0  0  0  0  0  0  0  0  0  0
    6.1212   -2.0026    0.7936 S   0  0  0  0  0  6  0  0  0  0  0  0
    6.5015   -3.3768    0.2534 O   0  0  0  0  0  0  0  0  0  0  0  0
    6.4940   -1.9521    2.2410 O   0  0  0  0  0  0  0  0  0  0  0  0
    6.9549   -0.8039   -0.1727 C   0  0  0  0  0  0  0  0  0  0  0  0
    7.2416    0.4628    0.2995 C   0  0  0  0  0  0  0  0  0  0  0  0
    7.9092    1.3977   -0.4604 C   0  0  0  0  0  0  0  0  0  0  0  0
    8.3220    1.0946   -1.7436 C   0  0  0  0  0  0  0  0  0  0  0  0
    8.0446   -0.1607   -2.2285 C   0  0  0  0  0  0  0  0  0  0  0  0
    8.5479   -0.5947   -3.8465 Cl  0  0  0  0  0  0  0  0  0  0  0  0
    7.3735   -1.0953   -1.4605 C   0  0  0  0  0  0  0  0  0  0  0  0
    1.8415   -0.2558   -0.3361 C   0  0  0  0  0  0  0  0  0  0  0  0
    0.4747   -0.2794   -0.5550 C   0  0  0  0  0  0  0  0  0  0  0  0
   -4.0287    0.1926   -0.1039 C   0  0  0  0  0  0  0  0  0  0  0  0
   -4.5423   -0.2772    1.2640 C   0  0  0  0  0  0  0  0  0  0  0  0
   -6.0510   -0.1364    1.2609 C   0  0  0  0  0  0  0  0  0  0  0  0
   -6.6402   -1.2867    0.4753 C   0  0  0  0  0  0  0  0  0  0  0  0
   -6.9071   -0.9357   -0.9658 C   0  0  0  0  0  0  0  0  0  0  0  0
   -5.7176   -0.4891   -1.7366 C   0  0  0  0  0  0  0  0  0  0  0  0
   -4.3857   -0.8393   -1.1186 C   0  0  0  0  0  0  0  0  0  0  0  0
   -2.1642    4.6025    0.9058 H   0  0  0  0  0  0  0  0  0  0  0  0
   -0.7366    3.7588    0.2167 H   0  0  0  0  0  0  0  0  0  0  0  0
   -0.7984    4.0714    2.0184 H   0  0  0  0  0  0  0  0  0  0  0  0
   -3.0496    2.5170    1.6963 H   0  0  0  0  0  0  0  0  0  0  0  0
   -1.3652    1.8933    2.0074 H   0  0  0  0  0  0  0  0  0  0  0  0
   -1.0306    1.7744   -0.4460 H   0  0  0  0  0  0  0  0  0  0  0  0
   -2.6516    2.3900   -0.7663 H   0  0  0  0  0  0  0  0  0  0  0  0
   -0.4260   -1.2838    2.5073 H   0  0  0  0  0  0  0  0  0  0  0  0
    2.0654   -1.2300    2.8629 H   0  0  0  0  0  0  0  0  0  0  0  0
    4.1393   -0.3613    2.1462 H   0  0  0  0  0  0  0  0  0  0  0  0
    4.4271    0.2500    0.5034 H   0  0  0  0  0  0  0  0  0  0  0  0
    4.0169   -2.1916   -0.2260 H   0  0  0  0  0  0  0  0  0  0  0  0
    6.9072    0.6947    1.3208 H   0  0  0  0  0  0  0  0  0  0  0  0
    8.1275    2.3876   -0.0830 H   0  0  0  0  0  0  0  0  0  0  0  0
    8.8537    1.8439   -2.3437 H   0  0  0  0  0  0  0  0  0  0  0  0
    7.1491   -2.0905   -1.8359 H   0  0  0  0  0  0  0  0  0  0  0  0
    2.4898    0.0443   -1.1694 H   0  0  0  0  0  0  0  0  0  0  0  0
    0.0733   -0.0118   -1.5308 H   0  0  0  0  0  0  0  0  0  0  0  0
   -4.5415    1.1488   -0.2978 H   0  0  0  0  0  0  0  0  0  0  0  0
   -4.2943   -1.3450    1.4515 H   0  0  0  0  0  0  0  0  0  0  0  0
   -4.0895    0.3984    2.0150 H   0  0  0  0  0  0  0  0  0  0  0  0
   -6.3769   -0.2233    2.3325 H   0  0  0  0  0  0  0  0  0  0  0  0
   -6.3092    0.8513    0.8838 H   0  0  0  0  0  0  0  0  0  0  0  0
   -7.6059   -1.5721    0.9500 H   0  0  0  0  0  0  0  0  0  0  0  0
   -5.9860   -2.1746    0.5588 H   0  0  0  0  0  0  0  0  0  0  0  0
   -7.6939   -0.1537   -1.0381 H   0  0  0  0  0  0  0  0  0  0  0  0
   -7.3076   -1.8733   -1.4409 H   0  0  0  0  0  0  0  0  0  0  0  0
   -5.7657   -0.9686   -2.7607 H   0  0  0  0  0  0  0  0  0  0  0  0
   -5.7331    0.6121   -1.9697 H   0  0  0  0  0  0  0  0  0  0  0  0
   -4.4017   -1.8556   -0.6623 H   0  0  0  0  0  0  0  0  0  0  0  0
   -3.6526   -0.8923   -1.9579 H   0  0  0  0  0  0  0  0  0  0  0  0
  1  2  1  0
  2  3  1  0
  3  4  1  0
  4  5  1  0
  5  6  2  0
  5  7  1  0
  7  8  2  0
  8  9  1  0
  9 10  2  0
 10 11  1  0
 11 12  1  0
 12 13  1  0
 13 14  2  0
 13 15  2  0
 13 16  1  0
 16 17  2  0
 17 18  1  0
 18 19  2  0
 19 20  1  0
 20 21  1  0
 20 22  2  0
 10 23  1  0
 23 24  2  0
  4 25  1  0
 25 26  1  0
 26 27  1  0
 27 28  1  0
 28 29  1  0
 29 30  1  0
 30 31  1  0
 24  7  1  0
 31 25  1  0
 22 16  1  0
  1 32  1  0
  1 33  1  0
  1 34  1  0
  2 35  1  0
  2 36  1  0
  3 37  1  0
  3 38  1  0
  8 39  1  0
  9 40  1  0
 11 41  1  0
 11 42  1  0
 12 43  1  0
 17 44  1  0
 18 45  1  0
 19 46  1  0
 22 47  1  0
 23 48  1  0
 24 49  1  0
 25 50  1  0
 26 51  1  0
 26 52  1  0
 27 53  1  0
 27 54  1  0
 28 55  1  0
 28 56  1  0
 29 57  1  0
 29 58  1  0
 30 59  1  0
 30 60  1  0
 31 61  1  0
 31 62  1  0
M  END
$$$$
