@<TRIPOS>MOLECULE
*****
 62 64 0 0 0
SMALL
GASTEIGER

@<TRIPOS>ATOM
      1 C          -1.4080    3.8216    1.1110 C.3     1  UNL1       -0.0639
      2 C          -2.0156    2.4453    1.3032 C.3     1  UNL1       -0.0400
      3 C          -2.0477    1.7460   -0.0583 C.3     1  UNL1        0.0150
      4 N          -2.6029    0.4209    0.0408 N.am    1  UNL1       -0.2945
      5 C          -1.7680   -0.6882    0.2921 C.2     1  UNL1        0.2469
      6 O          -2.3052   -1.8419    0.3630 O.2     1  UNL1       -0.2700
      7 C          -0.3358   -0.6537    0.4837 C.ar    1  UNL1        0.0369
      8 C           0.2469   -0.9928    1.7059 C.ar    1  UNL1       -0.0493
      9 C           1.6082   -0.9667    1.9128 C.ar    1  UNL1       -0.0566
     10 C           2.4418   -0.5839    0.8550 C.ar    1  UNL1       -0.0319
     11 C           3.9258   -0.5579    1.0674 C.3     1  UNL1        0.0425
     12 N           4.4367   -1.8219    0.6270 N.3     1  UNL1       -0.1856
     13 S           6.1212   -2.0026    0.7936 S.O2    1  UNL1        0.0587
     14 O           6.5015   -3.3768    0.2534 O.2     1  UNL1       -0.1530
     15 O           6.4940   -1.9521    2.2410 O.2     1  UNL1       -0.1530
     16 C           6.9549   -0.8039   -0.1727 C.ar    1  UNL1        0.1066
     17 C           7.2416    0.4628    0.2995 C.ar    1  UNL1       -0.0353
     18 C           7.9092    1.3977   -0.4604 C.ar    1  UNL1       -0.0585
     19 C           8.3220    1.0946   -1.7436 C.ar    1  UNL1       -0.0433
     20 C           8.0446   -0.1607   -2.2285 C.ar    1  UNL1        0.0428
     21 CL          8.5479   -0.5947   -3.8465 Cl      1  UNL1       -0.0835
     22 C           7.3735   -1.0953   -1.4605 C.ar    1  UNL1       -0.0170
     23 C           1.8415   -0.2558   -0.3361 C.ar    1  UNL1       -0.0566
     24 C           0.4747   -0.2794   -0.5550 C.ar    1  UNL1       -0.0493
     25 C          -4.0287    0.1926   -0.1039 C.3     1  UNL1        0.0263
     26 C          -4.5423   -0.2772    1.2640 C.3     1  UNL1       -0.0343
     27 C          -6.0510   -0.1364    1.2609 C.3     1  UNL1       -0.0514
     28 C          -6.6402   -1.2867    0.4753 C.3     1  UNL1       -0.0530
     29 C          -6.9071   -0.9357   -0.9658 C.3     1  UNL1       -0.0530
     30 C          -5.7176   -0.4891   -1.7366 C.3     1  UNL1       -0.0514
     31 C          -4.3857   -0.8393   -1.1186 C.3     1  UNL1       -0.0343
     32 H          -2.1642    4.6025    0.9058 H       1  UNL1        0.0230
     33 H          -0.7366    3.7588    0.2167 H       1  UNL1        0.0230
     34 H          -0.7984    4.0714    2.0184 H       1  UNL1        0.0230
     35 H          -3.0496    2.5170    1.6963 H       1  UNL1        0.0278
     36 H          -1.3652    1.8933    2.0074 H       1  UNL1        0.0278
     37 H          -1.0306    1.7744   -0.4460 H       1  UNL1        0.0465
     38 H          -2.6516    2.3900   -0.7663 H       1  UNL1        0.0465
     39 H          -0.4260   -1.2838    2.5073 H       1  UNL1        0.0625
     40 H           2.0654   -1.2300    2.8629 H       1  UNL1        0.0621
     41 H           4.1393   -0.3613    2.1462 H       1  UNL1        0.0490
     42 H           4.4271    0.2500    0.5034 H       1  UNL1        0.0490
     43 H           4.0169   -2.1916   -0.2260 H       1  UNL1        0.1484
     44 H           6.9072    0.6947    1.3208 H       1  UNL1        0.0637
     45 H           8.1275    2.3876   -0.0830 H       1  UNL1        0.0619
     46 H           8.8537    1.8439   -2.3437 H       1  UNL1        0.0632
     47 H           7.1491   -2.0905   -1.8359 H       1  UNL1        0.0652
     48 H           2.4898    0.0443   -1.1694 H       1  UNL1        0.0621
     49 H           0.0733   -0.0118   -1.5308 H       1  UNL1        0.0625
     50 H          -4.5415    1.1488   -0.2978 H       1  UNL1        0.0500
     51 H          -4.2943   -1.3450    1.4515 H       1  UNL1        0.0283
     52 H          -4.0895    0.3984    2.0150 H       1  UNL1        0.0283
     53 H          -6.3769   -0.2233    2.3325 H       1  UNL1        0.0266
     54 H          -6.3092    0.8513    0.8838 H       1  UNL1        0.0266
     55 H          -7.6059   -1.5721    0.9500 H       1  UNL1        0.0265
     56 H          -5.9860   -2.1746    0.5588 H       1  UNL1        0.0265
     57 H          -7.6939   -0.1537   -1.0381 H       1  UNL1        0.0265
     58 H          -7.3076   -1.8733   -1.4409 H       1  UNL1        0.0265
     59 H          -5.7657   -0.9686   -2.7607 H       1  UNL1        0.0266
     60 H          -5.7331    0.6121   -1.9697 H       1  UNL1        0.0266
     61 H          -4.4017   -1.8556   -0.6623 H       1  UNL1        0.0283
     62 H          -3.6526   -0.8923   -1.9579 H       1  UNL1        0.0283
@<TRIPOS>BOND
     1     1     2    1
     2     2     3    1
     3     3     4    1
     4     4     5   am
     5     5     6    2
     6     5     7    1
     7     7     8   ar
     8     8     9   ar
     9     9    10   ar
    10    10    11    1
    11    11    12    1
    12    12    13    1
    13    13    14    2
    14    13    15    2
    15    13    16    1
    16    16    17   ar
    17    17    18   ar
    18    18    19   ar
    19    19    20   ar
    20    20    21    1
    21    20    22   ar
    22    10    23   ar
    23    23    24   ar
    24     4    25    1
    25    25    26    1
    26    26    27    1
    27    27    28    1
    28    28    29    1
    29    29    30    1
    30    30    31    1
    31    24     7   ar
    32    31    25    1
    33    22    16   ar
    34     1    32    1
    35     1    33    1
    36     1    34    1
    37     2    35    1
    38     2    36    1
    39     3    37    1
    40     3    38    1
    41     8    39    1
    42     9    40    1
    43    11    41    1
    44    11    42    1
    45    12    43    1
    46    17    44    1
    47    18    45    1
    48    19    46    1
    49    22    47    1
    50    23    48    1
    51    24    49    1
    52    25    50    1
    53    26    51    1
    54    26    52    1
    55    27    53    1
    56    27    54    1
    57    28    55    1
    58    28    56    1
    59    29    57    1
    60    29    58    1
    61    30    59    1
    62    30    60    1
    63    31    61    1
    64    31    62    1
