@<TRIPOS>MOLECULE
*****
 43 43 0 0 0
SMALL
GASTEIGER

@<TRIPOS>ATOM
      1 C          -3.2315   -1.1100    0.5683 C.3     1  UNL1        0.0647
      2 N          -2.9910   -0.0334    1.5152 N.3     1  UNL1       -0.3229
      3 C          -3.9519   -0.6255   -0.6629 C.3     1  UNL1        0.1012
      4 O          -5.2127   -0.1464   -0.3265 O.3     1  UNL1       -0.3875
      5 C          -3.1341    0.3152   -1.4560 C.3     1  UNL1        0.1120
      6 C          -3.7336    1.7153   -1.2639 C.3     1  UNL1        0.0730
      7 O          -3.5289    2.1612    0.0417 O.3     1  UNL1       -0.3924
      8 O          -1.8163    0.4218   -1.1980 O.3     1  UNL1       -0.3406
      9 C          -1.1234   -0.6225   -0.6897 C.3     1  UNL1        0.1869
     10 O          -0.2539   -0.0655    0.2808 O.3     1  UNL1       -0.3487
     11 C           1.0854   -0.3661   -0.0026 C.3     1  UNL1        0.0508
     12 C           1.9306    0.2646    1.0778 C.3     1  UNL1       -0.0294
     13 C           3.3793   -0.0134    0.8639 C.3     1  UNL1       -0.0510
     14 C           3.8800    0.5222   -0.4410 C.3     1  UNL1       -0.0532
     15 C           5.3600    0.1883   -0.5334 C.3     1  UNL1       -0.0559
     16 C           6.0063    0.8811    0.6664 C.3     1  UNL1       -0.0653
     17 C          -1.9108   -1.6601    0.0545 C.3     1  UNL1        0.1234
     18 O          -2.1965   -2.7234   -0.8019 O.3     1  UNL1       -0.3851
     19 H          -3.7620   -1.9353    1.0662 H       1  UNL1        0.0512
     20 H          -2.0118   -0.1464    1.8457 H       1  UNL1        0.1186
     21 H          -3.6780   -0.1332    2.2982 H       1  UNL1        0.1186
     22 H          -4.1593   -1.5566   -1.2656 H       1  UNL1        0.0636
     23 H          -5.7272   -0.0556   -1.1819 H       1  UNL1        0.2100
     24 H          -3.3111    0.0922   -2.5488 H       1  UNL1        0.0646
     25 H          -3.2436    2.4690   -1.9166 H       1  UNL1        0.0584
     26 H          -4.8087    1.7472   -1.4680 H       1  UNL1        0.0584
     27 H          -4.3366    2.5893    0.4422 H       1  UNL1        0.2095
     28 H          -0.4254   -1.1401   -1.3912 H       1  UNL1        0.0937
     29 H           1.1550   -1.4659    0.0722 H       1  UNL1        0.0561
     30 H           1.3709    0.0054   -0.9970 H       1  UNL1        0.0561
     31 H           1.6600   -0.1308    2.0877 H       1  UNL1        0.0287
     32 H           1.7429    1.3748    1.1341 H       1  UNL1        0.0287
     33 H           3.5270   -1.1218    0.9368 H       1  UNL1        0.0266
     34 H           3.9402    0.4073    1.7348 H       1  UNL1        0.0266
     35 H           3.7603    1.6164   -0.4907 H       1  UNL1        0.0265
     36 H           3.3477    0.0164   -1.2773 H       1  UNL1        0.0265
     37 H           5.7633    0.5573   -1.4914 H       1  UNL1        0.0263
     38 H           5.4751   -0.9071   -0.3833 H       1  UNL1        0.0263
     39 H           6.1138    0.1800    1.5163 H       1  UNL1        0.0230
     40 H           5.4129    1.7905    0.9446 H       1  UNL1        0.0230
     41 H           7.0028    1.2184    0.3572 H       1  UNL1        0.0230
     42 H          -1.3871   -2.1002    0.9208 H       1  UNL1        0.0660
     43 H          -1.9780   -2.4744   -1.7512 H       1  UNL1        0.2101
@<TRIPOS>BOND
     1     1     2    1
     2     1     3    1
     3     3     4    1
     4     3     5    1
     5     5     6    1
     6     6     7    1
     7     5     8    1
     8     8     9    1
     9     9    10    1
    10    10    11    1
    11    11    12    1
    12    12    13    1
    13    13    14    1
    14    14    15    1
    15    15    16    1
    16     9    17    1
    17    17    18    1
    18    17     1    1
    19     1    19    1
    20     2    20    1
    21     2    21    1
    22     3    22    1
    23     4    23    1
    24     5    24    1
    25     6    25    1
    26     6    26    1
    27     7    27    1
    28     9    28    1
    29    11    29    1
    30    11    30    1
    31    12    31    1
    32    12    32    1
    33    13    33    1
    34    13    34    1
    35    14    35    1
    36    14    36    1
    37    15    37    1
    38    15    38    1
    39    16    39    1
    40    16    40    1
    41    16    41    1
    42    17    42    1
    43    18    43    1
