
     RDKit          3D

 43 43  0  0  0  0  0  0  0  0999 V2000
   -3.2315   -1.1100    0.5683 C   0  0  1  0  0  0  0  0  0  0  0  0
   -2.9910   -0.0334    1.5152 N   0  0  0  0  0  0  0  0  0  0  0  0
   -3.9519   -0.6255   -0.6629 C   0  0  1  0  0  0  0  0  0  0  0  0
   -5.2127   -0.1464   -0.3265 O   0  0  0  0  0  0  0  0  0  0  0  0
   -3.1341    0.3152   -1.4560 C   0  0  1  0  0  0  0  0  0  0  0  0
   -3.7336    1.7153   -1.2639 C   0  0  0  0  0  0  0  0  0  0  0  0
   -3.5289    2.1612    0.0417 O   0  0  0  0  0  0  0  0  0  0  0  0
   -1.8163    0.4218   -1.1980 O   0  0  0  0  0  0  0  0  0  0  0  0
   -1.1234   -0.6225   -0.6897 C   0  0  1  0  0  0  0  0  0  0  0  0
   -0.2539   -0.0655    0.2808 O   0  0  0  0  0  0  0  0  0  0  0  0
    1.0854   -0.3661   -0.0026 C   0  0  0  0  0  0  0  0  0  0  0  0
    1.9306    0.2646    1.0778 C   0  0  0  0  0  0  0  0  0  0  0  0
    3.3793   -0.0134    0.8639 C   0  0  0  0  0  0  0  0  0  0  0  0
    3.8800    0.5222   -0.4410 C   0  0  0  0  0  0  0  0  0  0  0  0
    5.3600    0.1883   -0.5334 C   0  0  0  0  0  0  0  0  0  0  0  0
    6.0063    0.8811    0.6664 C   0  0  0  0  0  0  0  0  0  0  0  0
   -1.9108   -1.6601    0.0545 C   0  0  2  0  0  0  0  0  0  0  0  0
   -2.1965   -2.7234   -0.8019 O   0  0  0  0  0  0  0  0  0  0  0  0
   -3.7620   -1.9353    1.0662 H   0  0  0  0  0  0  0  0  0  0  0  0
   -2.0118   -0.1464    1.8457 H   0  0  0  0  0  0  0  0  0  0  0  0
   -3.6780   -0.1332    2.2982 H   0  0  0  0  0  0  0  0  0  0  0  0
   -4.1593   -1.5566   -1.2656 H   0  0  0  0  0  0  0  0  0  0  0  0
   -5.7272   -0.0556   -1.1819 H   0  0  0  0  0  0  0  0  0  0  0  0
   -3.3111    0.0922   -2.5488 H   0  0  0  0  0  0  0  0  0  0  0  0
   -3.2436    2.4690   -1.9166 H   0  0  0  0  0  0  0  0  0  0  0  0
   -4.8087    1.7472   -1.4680 H   0  0  0  0  0  0  0  0  0  0  0  0
   -4.3366    2.5893    0.4422 H   0  0  0  0  0  0  0  0  0  0  0  0
   -0.4254   -1.1401   -1.3912 H   0  0  0  0  0  0  0  0  0  0  0  0
    1.1550   -1.4659    0.0722 H   0  0  0  0  0  0  0  0  0  0  0  0
    1.3709    0.0054   -0.9970 H   0  0  0  0  0  0  0  0  0  0  0  0
    1.6600   -0.1308    2.0877 H   0  0  0  0  0  0  0  0  0  0  0  0
    1.7429    1.3748    1.1341 H   0  0  0  0  0  0  0  0  0  0  0  0
    3.5270   -1.1218    0.9368 H   0  0  0  0  0  0  0  0  0  0  0  0
    3.9402    0.4073    1.7348 H   0  0  0  0  0  0  0  0  0  0  0  0
    3.7603    1.6164   -0.4907 H   0  0  0  0  0  0  0  0  0  0  0  0
    3.3477    0.0164   -1.2773 H   0  0  0  0  0  0  0  0  0  0  0  0
    5.7633    0.5573   -1.4914 H   0  0  0  0  0  0  0  0  0  0  0  0
    5.4751   -0.9071   -0.3833 H   0  0  0  0  0  0  0  0  0  0  0  0
    6.1138    0.1800    1.5163 H   0  0  0  0  0  0  0  0  0  0  0  0
    5.4129    1.7905    0.9446 H   0  0  0  0  0  0  0  0  0  0  0  0
    7.0028    1.2184    0.3572 H   0  0  0  0  0  0  0  0  0  0  0  0
   -1.3871   -2.1002    0.9208 H   0  0  0  0  0  0  0  0  0  0  0  0
   -1.9780   -2.4744   -1.7512 H   0  0  0  0  0  0  0  0  0  0  0  0
  1  2  1  0
  1  3  1  0
  3  4  1  0
  3  5  1  0
  5  6  1  0
  6  7  1  0
  5  8  1  0
  8  9  1  0
  9 10  1  0
 10 11  1  0
 11 12  1  0
 12 13  1  0
 13 14  1  0
 14 15  1  0
 15 16  1  0
  9 17  1  0
 17 18  1  0
 17  1  1  0
  1 19  1  1
  2 20  1  0
  2 21  1  0
  3 22  1  6
  4 23  1  0
  5 24  1  6
  6 25  1  0
  6 26  1  0
  7 27  1  0
  9 28  1  6
 11 29  1  0
 11 30  1  0
 12 31  1  0
 12 32  1  0
 13 33  1  0
 13 34  1  0
 14 35  1  0
 14 36  1  0
 15 37  1  0
 15 38  1  0
 16 39  1  0
 16 40  1  0
 16 41  1  0
 17 42  1  1
 18 43  1  0
M  END
$$$$
