
     RDKit          3D

 47 51  0  0  0  0  0  0  0  0999 V2000
    7.6493    3.4406   -0.7354 C   0  0  0  0  0  0  0  0  0  0  0  0
    6.6400    2.4100   -0.2296 C   0  0  0  0  0  0  0  0  0  0  0  0
    7.1238    1.4560    0.6288 N   0  0  0  0  0  0  0  0  0  0  0  0
    5.5695    0.4961    0.9382 S   0  0  0  0  0  0  0  0  0  0  0  0
    4.5880    1.4936   -0.0873 C   0  0  0  0  0  0  0  0  0  0  0  0
    3.1142    1.2984   -0.3333 C   0  0  0  0  0  0  0  0  0  0  0  0
    2.2154    2.2679   -0.5166 N   0  0  0  0  0  0  0  0  0  0  0  0
    1.0068    1.7129   -0.7092 N   0  0  0  0  0  0  0  0  0  0  0  0
    1.1330    0.4036   -0.6491 C   0  0  0  0  0  0  0  0  0  0  0  0
    2.4422    0.1439   -0.4153 N   0  0  0  0  0  0  0  0  0  0  0  0
    2.9152   -1.2224   -0.2929 C   0  0  0  0  0  0  0  0  0  0  0  0
    1.9432   -2.0934    0.4943 C   0  0  0  0  0  0  0  0  0  0  0  0
    0.5887   -1.6177    0.3656 N   0  0  0  0  0  0  0  0  0  0  0  0
   -0.4016   -1.9231    1.3064 C   0  0  0  0  0  0  0  0  0  0  0  0
   -0.1342   -2.6309    2.2991 O   0  0  0  0  0  0  0  0  0  0  0  0
   -1.7603   -1.4247    1.1492 C   0  0  0  0  0  0  0  0  0  0  0  0
   -2.8131   -2.2901    0.8714 C   0  0  0  0  0  0  0  0  0  0  0  0
   -4.0982   -1.8364    0.7032 C   0  0  0  0  0  0  0  0  0  0  0  0
   -4.3484   -0.4943    0.8114 C   0  0  0  0  0  0  0  0  0  0  0  0
   -5.6970   -0.0114    0.6061 C   0  0  0  0  0  0  0  0  0  0  0  0
   -6.2740    1.2184    0.6533 C   0  0  0  0  0  0  0  0  0  0  0  0
   -7.5707    1.3517    0.4051 C   0  0  0  0  0  0  0  0  0  0  0  0
   -8.3533    0.2699    0.1007 C   0  0  0  0  0  0  0  0  0  0  0  0
   -7.1069   -1.0703    0.1782 S   0  0  0  0  0  0  0  0  0  0  0  0
   -3.3089    0.3613    1.0876 C   0  0  0  0  0  0  0  0  0  0  0  0
   -2.0222   -0.0747    1.2592 C   0  0  0  0  0  0  0  0  0  0  0  0
    0.2390   -0.7934   -0.7695 C   0  0  2  0  0  0  0  0  0  0  0  0
    0.5901   -1.4471   -2.1000 C   0  0  0  0  0  0  0  0  0  0  0  0
    5.3897    2.3461   -0.5198 N   0  0  0  0  0  0  0  0  0  0  0  0
    7.4316    3.5744   -1.8343 H   0  0  0  0  0  0  0  0  0  0  0  0
    8.6788    3.1035   -0.5839 H   0  0  0  0  0  0  0  0  0  0  0  0
    7.4853    4.4128   -0.2403 H   0  0  0  0  0  0  0  0  0  0  0  0
    3.0748   -1.7187   -1.2558 H   0  0  0  0  0  0  0  0  0  0  0  0
    3.8916   -1.2617    0.2367 H   0  0  0  0  0  0  0  0  0  0  0  0
    2.2945   -2.1341    1.5578 H   0  0  0  0  0  0  0  0  0  0  0  0
    1.9997   -3.1493    0.1350 H   0  0  0  0  0  0  0  0  0  0  0  0
   -2.5627   -3.3401    0.7944 H   0  0  0  0  0  0  0  0  0  0  0  0
   -4.9117   -2.5393    0.4859 H   0  0  0  0  0  0  0  0  0  0  0  0
   -5.5834    2.0843    0.9119 H   0  0  0  0  0  0  0  0  0  0  0  0
   -8.0606    2.3768    0.4376 H   0  0  0  0  0  0  0  0  0  0  0  0
   -9.3609    0.1415   -0.1240 H   0  0  0  0  0  0  0  0  0  0  0  0
   -3.5578    1.4309    1.1672 H   0  0  0  0  0  0  0  0  0  0  0  0
   -1.2119    0.6278    1.4783 H   0  0  0  0  0  0  0  0  0  0  0  0
   -0.8182   -0.5324   -0.7921 H   0  0  0  0  0  0  0  0  0  0  0  0
    0.9314   -2.4798   -2.0021 H   0  0  0  0  0  0  0  0  0  0  0  0
   -0.3209   -1.4600   -2.7716 H   0  0  0  0  0  0  0  0  0  0  0  0
    1.3411   -0.8769   -2.6743 H   0  0  0  0  0  0  0  0  0  0  0  0
  1  2  1  0
  2  3  2  0
  3  4  1  0
  4  5  1  0
  5  6  1  0
  6  7  2  0
  7  8  1  0
  8  9  2  0
  9 10  1  0
 10 11  1  0
 11 12  1  0
 12 13  1  0
 13 14  1  0
 14 15  2  0
 14 16  1  0
 16 17  2  0
 17 18  1  0
 18 19  2  0
 19 20  1  0
 20 21  2  0
 21 22  1  0
 22 23  2  0
 23 24  1  0
 19 25  1  0
 25 26  2  0
 13 27  1  0
 27 28  1  0
  5 29  2  0
 29  2  1  0
 10  6  1  0
 26 16  1  0
 27  9  1  0
 24 20  1  0
  1 30  1  0
  1 31  1  0
  1 32  1  0
 11 33  1  0
 11 34  1  0
 12 35  1  0
 12 36  1  0
 17 37  1  0
 18 38  1  0
 21 39  1  0
 22 40  1  0
 23 41  1  0
 25 42  1  0
 26 43  1  0
 27 44  1  6
 28 45  1  0
 28 46  1  0
 28 47  1  0
M  END
$$$$
