@<TRIPOS>MOLECULE
*****
 47 51 0 0 0
SMALL
GASTEIGER

@<TRIPOS>ATOM
      1 C           7.6493    3.4406   -0.7354 C.3     1  UNL1       -0.0039
      2 C           6.6400    2.4100   -0.2296 C.ar    1  UNL1        0.1359
      3 N           7.1238    1.4560    0.6288 N.ar    1  UNL1       -0.1939
      4 S           5.5695    0.4961    0.9382 S.2     1  UNL1        0.0369
      5 C           4.5880    1.4936   -0.0873 C.ar    1  UNL1        0.1652
      6 C           3.1142    1.2984   -0.3333 C.ar    1  UNL1        0.1910
      7 N           2.2154    2.2679   -0.5166 N.ar    1  UNL1       -0.1269
      8 N           1.0068    1.7129   -0.7092 N.ar    1  UNL1       -0.1320
      9 C           1.1330    0.4036   -0.6491 C.ar    1  UNL1        0.1542
     10 N           2.4422    0.1439   -0.4153 N.ar    1  UNL1       -0.3062
     11 C           2.9152   -1.2224   -0.2929 C.3     1  UNL1        0.0423
     12 C           1.9432   -2.0934    0.4943 C.3     1  UNL1        0.0338
     13 N           0.5887   -1.6177    0.3656 N.am    1  UNL1       -0.2860
     14 C          -0.4016   -1.9231    1.3064 C.2     1  UNL1        0.2472
     15 O          -0.1342   -2.6309    2.2991 O.2     1  UNL1       -0.2700
     16 C          -1.7603   -1.4247    1.1492 C.ar    1  UNL1        0.0370
     17 C          -2.8131   -2.2901    0.8714 C.ar    1  UNL1       -0.0490
     18 C          -4.0982   -1.8364    0.7032 C.ar    1  UNL1       -0.0528
     19 C          -4.3484   -0.4943    0.8114 C.ar    1  UNL1       -0.0113
     20 C          -5.6970   -0.0114    0.6061 C.ar    1  UNL1        0.0193
     21 C          -6.2740    1.2184    0.6533 C.ar    1  UNL1       -0.0469
     22 C          -7.5707    1.3517    0.4051 C.ar    1  UNL1       -0.0541
     23 C          -8.3533    0.2699    0.1007 C.ar    1  UNL1       -0.0237
     24 S          -7.1069   -1.0703    0.1782 S.2     1  UNL1       -0.0967
     25 C          -3.3089    0.3613    1.0876 C.ar    1  UNL1       -0.0528
     26 C          -2.0222   -0.0747    1.2592 C.ar    1  UNL1       -0.0490
     27 C           0.2390   -0.7934   -0.7695 C.3     1  UNL1        0.0834
     28 C           0.5901   -1.4471   -2.1000 C.3     1  UNL1       -0.0393
     29 N           5.3897    2.3461   -0.5198 N.ar    1  UNL1       -0.2199
     30 H           7.4316    3.5744   -1.8343 H       1  UNL1        0.0308
     31 H           8.6788    3.1035   -0.5839 H       1  UNL1        0.0308
     32 H           7.4853    4.4128   -0.2403 H       1  UNL1        0.0308
     33 H           3.0748   -1.7187   -1.2558 H       1  UNL1        0.0508
     34 H           3.8916   -1.2617    0.2367 H       1  UNL1        0.0508
     35 H           2.2945   -2.1341    1.5578 H       1  UNL1        0.0482
     36 H           1.9997   -3.1493    0.1350 H       1  UNL1        0.0482
     37 H          -2.5627   -3.3401    0.7944 H       1  UNL1        0.0625
     38 H          -4.9117   -2.5393    0.4859 H       1  UNL1        0.0624
     39 H          -5.5834    2.0843    0.9119 H       1  UNL1        0.0629
     40 H          -8.0606    2.3768    0.4376 H       1  UNL1        0.0623
     41 H          -9.3609    0.1415   -0.1240 H       1  UNL1        0.0693
     42 H          -3.5578    1.4309    1.1672 H       1  UNL1        0.0624
     43 H          -1.2119    0.6278    1.4783 H       1  UNL1        0.0625
     44 H          -0.8182   -0.5324   -0.7921 H       1  UNL1        0.0579
     45 H           0.9314   -2.4798   -2.0021 H       1  UNL1        0.0252
     46 H          -0.3209   -1.4600   -2.7716 H       1  UNL1        0.0252
     47 H           1.3411   -0.8769   -2.6743 H       1  UNL1        0.0252
@<TRIPOS>BOND
     1     1     2    1
     2     2     3   ar
     3     3     4   ar
     4     4     5   ar
     5     5     6    1
     6     6     7   ar
     7     7     8   ar
     8     8     9   ar
     9     9    10   ar
    10    10    11    1
    11    11    12    1
    12    12    13    1
    13    13    14   am
    14    14    15    2
    15    14    16    1
    16    16    17   ar
    17    17    18   ar
    18    18    19   ar
    19    19    20    1
    20    20    21   ar
    21    21    22   ar
    22    22    23   ar
    23    23    24   ar
    24    19    25   ar
    25    25    26   ar
    26    13    27    1
    27    27    28    1
    28     5    29   ar
    29    29     2   ar
    30    10     6   ar
    31    26    16   ar
    32    27     9    1
    33    24    20   ar
    34     1    30    1
    35     1    31    1
    36     1    32    1
    37    11    33    1
    38    11    34    1
    39    12    35    1
    40    12    36    1
    41    17    37    1
    42    18    38    1
    43    21    39    1
    44    22    40    1
    45    23    41    1
    46    25    42    1
    47    26    43    1
    48    27    44    1
    49    28    45    1
    50    28    46    1
    51    28    47    1
