
     RDKit          3D

 65 68  0  0  0  0  0  0  0  0999 V2000
   -5.9457   -0.7825    1.1779 O   0  0  0  0  0  0  0  0  0  0  0  0
   -5.0155   -1.0162    0.3364 C   0  0  0  0  0  0  0  0  0  0  0  0
   -3.6875   -0.9240    0.8614 N   0  0  0  0  0  0  0  0  0  0  0  0
   -3.4419   -0.5830    2.2613 C   0  0  1  0  0  0  0  0  0  0  0  0
   -3.0989   -1.8032    3.0871 C   0  0  0  0  0  0  0  0  0  0  0  0
   -1.4040   -1.9678    3.5349 S   0  0  0  0  0  0  0  0  0  0  0  0
   -0.6699   -0.5880    4.3852 C   0  0  0  0  0  0  0  0  0  0  0  0
   -1.6059    0.4826    4.8275 C   0  0  0  0  0  0  0  0  0  0  0  0
   -2.5424    1.0429    3.8432 C   0  0  0  0  0  0  0  0  0  0  0  0
   -2.4654    0.5439    2.4377 C   0  0  1  0  0  0  0  0  0  0  0  0
   -1.1760    0.2462    2.0001 O   0  0  0  0  0  0  0  0  0  0  0  0
   -0.5948    0.9214    0.9463 C   0  0  0  0  0  0  0  0  0  0  0  0
   -1.2882    1.8396    0.3847 O   0  0  0  0  0  0  0  0  0  0  0  0
    0.7517    0.6568    0.4316 C   0  0  0  0  0  0  0  0  0  0  0  0
    1.5871   -0.2967    0.9672 C   0  0  0  0  0  0  0  0  0  0  0  0
    2.8441   -0.5202    0.4520 C   0  0  0  0  0  0  0  0  0  0  0  0
    3.6993   -1.4919    0.9950 O   0  0  0  0  0  0  0  0  0  0  0  0
    3.3498    0.2018   -0.6419 C   0  0  0  0  0  0  0  0  0  0  0  0
    4.6392   -0.1687   -1.1986 C   0  0  0  0  0  0  0  0  0  0  0  0
    5.0421   -1.3924   -0.9508 O   0  0  0  0  0  0  0  0  0  0  0  0
    5.5469    0.5925   -1.9924 C   0  0  0  0  0  0  0  0  0  0  0  0
    6.1936   -0.1073   -3.0233 C   0  0  0  0  0  0  0  0  0  0  0  0
    5.9266   -1.4514   -3.2474 O   0  0  0  0  0  0  0  0  0  0  0  0
    7.1175    0.4951   -3.8591 C   0  0  0  0  0  0  0  0  0  0  0  0
    7.3961    1.8218   -3.6565 C   0  0  0  0  0  0  0  0  0  0  0  0
    6.7874    2.5160   -2.6671 C   0  0  0  0  0  0  0  0  0  0  0  0
    5.8535    1.9009   -1.8186 C   0  0  0  0  0  0  0  0  0  0  0  0
    5.4270    2.7087   -0.6510 C   0  0  0  0  0  0  0  0  0  0  0  0
    5.6766    3.9459   -0.6519 O   0  0  0  0  0  0  0  0  0  0  0  0
    4.7863    2.2121    0.4459 O   0  0  0  0  0  0  0  0  0  0  0  0
    2.4985    1.1507   -1.1662 C   0  0  0  0  0  0  0  0  0  0  0  0
    2.9052    1.9122   -2.2556 O   0  0  0  0  0  0  0  0  0  0  0  0
    1.2331    1.3704   -0.6403 C   0  0  0  0  0  0  0  0  0  0  0  0
   -5.3216   -1.3482   -1.0468 C   0  0  0  0  0  0  0  0  0  0  0  0
   -4.3782   -1.6051   -2.0191 C   0  0  0  0  0  0  0  0  0  0  0  0
   -4.7475   -1.9127   -3.3222 C   0  0  0  0  0  0  0  0  0  0  0  0
   -6.0757   -1.9739   -3.6957 C   0  0  0  0  0  0  0  0  0  0  0  0
   -6.3959   -2.2871   -5.0120 O   0  0  0  0  0  0  0  0  0  0  0  0
   -7.0149   -1.7185   -2.7285 C   0  0  0  0  0  0  0  0  0  0  0  0
   -6.6399   -1.4115   -1.4295 C   0  0  0  0  0  0  0  0  0  0  0  0
   -2.9182   -1.1109    0.1748 H   0  0  0  0  0  0  0  0  0  0  0  0
   -4.4169   -0.2477    2.6717 H   0  0  0  0  0  0  0  0  0  0  0  0
   -3.7471   -1.8823    4.0104 H   0  0  0  0  0  0  0  0  0  0  0  0
   -3.4051   -2.6787    2.4738 H   0  0  0  0  0  0  0  0  0  0  0  0
    0.2474   -0.1755    3.8665 H   0  0  0  0  0  0  0  0  0  0  0  0
   -0.2189   -1.0134    5.3380 H   0  0  0  0  0  0  0  0  0  0  0  0
   -0.9739    1.2585    5.3484 H   0  0  0  0  0  0  0  0  0  0  0  0
   -2.2026    0.0415    5.6802 H   0  0  0  0  0  0  0  0  0  0  0  0
   -3.6114    0.9251    4.1875 H   0  0  0  0  0  0  0  0  0  0  0  0
   -2.4070    2.1662    3.8577 H   0  0  0  0  0  0  0  0  0  0  0  0
   -2.8406    1.3691    1.7807 H   0  0  0  0  0  0  0  0  0  0  0  0
    1.2416   -0.8800    1.8090 H   0  0  0  0  0  0  0  0  0  0  0  0
    3.3221   -2.3464    1.3864 H   0  0  0  0  0  0  0  0  0  0  0  0
    5.1578   -1.6926   -3.8934 H   0  0  0  0  0  0  0  0  0  0  0  0
    7.6227   -0.0319   -4.6562 H   0  0  0  0  0  0  0  0  0  0  0  0
    8.1210    2.2916   -4.3172 H   0  0  0  0  0  0  0  0  0  0  0  0
    7.0350    3.5724   -2.5330 H   0  0  0  0  0  0  0  0  0  0  0  0
    4.9841    2.6533    1.3468 H   0  0  0  0  0  0  0  0  0  0  0  0
    2.6109    2.8915   -2.2636 H   0  0  0  0  0  0  0  0  0  0  0  0
    0.5755    2.1317   -1.0750 H   0  0  0  0  0  0  0  0  0  0  0  0
   -3.3470   -1.5583   -1.7514 H   0  0  0  0  0  0  0  0  0  0  0  0
   -4.0014   -2.1114   -4.1051 H   0  0  0  0  0  0  0  0  0  0  0  0
   -7.0975   -1.8232   -5.5623 H   0  0  0  0  0  0  0  0  0  0  0  0
   -8.0680   -1.7517   -2.9672 H   0  0  0  0  0  0  0  0  0  0  0  0
   -7.4142   -1.2082   -0.6686 H   0  0  0  0  0  0  0  0  0  0  0  0
  1  2  2  0
  2  3  1  0
  3  4  1  0
  4  5  1  0
  5  6  1  0
  6  7  1  0
  7  8  1  0
  8  9  1  0
  9 10  1  0
 10 11  1  0
 11 12  1  0
 12 13  2  0
 12 14  1  0
 14 15  2  0
 15 16  1  0
 16 17  1  0
 16 18  2  0
 18 19  1  0
 19 20  2  0
 19 21  1  0
 21 22  2  0
 22 23  1  0
 22 24  1  0
 24 25  2  0
 25 26  1  0
 26 27  2  0
 27 28  1  0
 28 29  2  0
 28 30  1  0
 18 31  1  0
 31 32  1  0
 31 33  2  0
  2 34  1  0
 34 35  2  0
 35 36  1  0
 36 37  2  0
 37 38  1  0
 37 39  1  0
 39 40  2  0
 10  4  1  0
 33 14  1  0
 40 34  1  0
 27 21  1  0
  3 41  1  0
  4 42  1  1
  5 43  1  0
  5 44  1  0
  7 45  1  0
  7 46  1  0
  8 47  1  0
  8 48  1  0
  9 49  1  0
  9 50  1  0
 10 51  1  6
 15 52  1  0
 17 53  1  0
 23 54  1  0
 24 55  1  0
 25 56  1  0
 26 57  1  0
 30 58  1  0
 32 59  1  0
 33 60  1  0
 35 61  1  0
 36 62  1  0
 38 63  1  0
 39 64  1  0
 40 65  1  0
M  END
$$$$
