@<TRIPOS>MOLECULE
*****
 65 68 0 0 0
SMALL
GASTEIGER

@<TRIPOS>ATOM
      1 O          -5.9457   -0.7825    1.1779 O.2     1  UNL1       -0.2702
      2 C          -5.0155   -1.0162    0.3364 C.2     1  UNL1        0.2444
      3 N          -3.6875   -0.9240    0.8614 N.am    1  UNL1       -0.3042
      4 C          -3.4419   -0.5830    2.2613 C.3     1  UNL1        0.0693
      5 C          -3.0989   -1.8032    3.0871 C.3     1  UNL1        0.0156
      6 S          -1.4040   -1.9678    3.5349 S.3     1  UNL1       -0.1588
      7 C          -0.6699   -0.5880    4.3852 C.3     1  UNL1       -0.0061
      8 C          -1.6059    0.4826    4.8275 C.3     1  UNL1       -0.0406
      9 C          -2.5424    1.0429    3.8432 C.3     1  UNL1       -0.0131
     10 C          -2.4654    0.5439    2.4377 C.3     1  UNL1        0.1224
     11 O          -1.1760    0.2462    2.0001 O.3     1  UNL1       -0.4560
     12 C          -0.5948    0.9214    0.9463 C.2     1  UNL1        0.3397
     13 O          -1.2882    1.8396    0.3847 O.2     1  UNL1       -0.2449
     14 C           0.7517    0.6568    0.4316 C.ar    1  UNL1        0.0659
     15 C           1.5871   -0.2967    0.9672 C.ar    1  UNL1       -0.0053
     16 C           2.8441   -0.5202    0.4520 C.ar    1  UNL1        0.1320
     17 O           3.6993   -1.4919    0.9950 O.3     1  UNL1       -0.5059
     18 C           3.3498    0.2018   -0.6419 C.ar    1  UNL1        0.1050
     19 C           4.6392   -0.1687   -1.1986 C.2     1  UNL1        0.2044
     20 O           5.0421   -1.3924   -0.9508 O.2     1  UNL1       -0.2863
     21 C           5.5469    0.5925   -1.9924 C.ar    1  UNL1        0.0778
     22 C           6.1936   -0.1073   -3.0233 C.ar    1  UNL1        0.1285
     23 O           5.9266   -1.4514   -3.2474 O.3     1  UNL1       -0.5060
     24 C           7.1175    0.4951   -3.8591 C.ar    1  UNL1       -0.0194
     25 C           7.3961    1.8218   -3.6565 C.ar    1  UNL1       -0.0575
     26 C           6.7874    2.5160   -2.6671 C.ar    1  UNL1       -0.0468
     27 C           5.8535    1.9009   -1.8186 C.ar    1  UNL1        0.0731
     28 C           5.4270    2.7087   -0.6510 C.2     1  UNL1        0.3376
     29 O           5.6766    3.9459   -0.6519 O.2     1  UNL1       -0.2451
     30 O           4.7863    2.2121    0.4459 O.3     1  UNL1       -0.4771
     31 C           2.4985    1.1507   -1.1662 C.ar    1  UNL1        0.1320
     32 O           2.9052    1.9122   -2.2556 O.3     1  UNL1       -0.5059
     33 C           1.2331    1.3704   -0.6403 C.ar    1  UNL1       -0.0053
     34 C          -5.3216   -1.3482   -1.0468 C.ar    1  UNL1        0.0369
     35 C          -4.3782   -1.6051   -2.0191 C.ar    1  UNL1       -0.0462
     36 C          -4.7475   -1.9127   -3.3222 C.ar    1  UNL1       -0.0195
     37 C          -6.0757   -1.9739   -3.6957 C.ar    1  UNL1        0.1169
     38 O          -6.3959   -2.2871   -5.0120 O.3     1  UNL1       -0.5068
     39 C          -7.0149   -1.7185   -2.7285 C.ar    1  UNL1       -0.0195
     40 C          -6.6399   -1.4115   -1.4295 C.ar    1  UNL1       -0.0462
     41 H          -2.9182   -1.1109    0.1748 H       1  UNL1        0.1495
     42 H          -4.4169   -0.2477    2.6717 H       1  UNL1        0.0543
     43 H          -3.7471   -1.8823    4.0104 H       1  UNL1        0.0396
     44 H          -3.4051   -2.6787    2.4738 H       1  UNL1        0.0396
     45 H           0.2474   -0.1755    3.8665 H       1  UNL1        0.0376
     46 H          -0.2189   -1.0134    5.3380 H       1  UNL1        0.0376
     47 H          -0.9739    1.2585    5.3484 H       1  UNL1        0.0274
     48 H          -2.2026    0.0415    5.6802 H       1  UNL1        0.0274
     49 H          -3.6114    0.9251    4.1875 H       1  UNL1        0.0302
     50 H          -2.4070    2.1662    3.8577 H       1  UNL1        0.0302
     51 H          -2.8406    1.3691    1.7807 H       1  UNL1        0.0753
     52 H           1.2416   -0.8800    1.8090 H       1  UNL1        0.0662
     53 H           3.3221   -2.3464    1.3864 H       1  UNL1        0.2922
     54 H           5.1578   -1.6926   -3.8934 H       1  UNL1        0.2922
     55 H           7.6227   -0.0319   -4.6562 H       1  UNL1        0.0654
     56 H           8.1210    2.2916   -4.3172 H       1  UNL1        0.0619
     57 H           7.0350    3.5724   -2.5330 H       1  UNL1        0.0626
     58 H           4.9841    2.6533    1.3468 H       1  UNL1        0.2954
     59 H           2.6109    2.8915   -2.2636 H       1  UNL1        0.2922
     60 H           0.5755    2.1317   -1.0750 H       1  UNL1        0.0662
     61 H          -3.3470   -1.5583   -1.7514 H       1  UNL1        0.0626
     62 H          -4.0014   -2.1114   -4.1051 H       1  UNL1        0.0654
     63 H          -7.0975   -1.8232   -5.5623 H       1  UNL1        0.2921
     64 H          -8.0680   -1.7517   -2.9672 H       1  UNL1        0.0654
     65 H          -7.4142   -1.2082   -0.6686 H       1  UNL1        0.0626
@<TRIPOS>BOND
     1     1     2    2
     2     2     3   am
     3     3     4    1
     4     4     5    1
     5     5     6    1
     6     6     7    1
     7     7     8    1
     8     8     9    1
     9     9    10    1
    10    10    11    1
    11    11    12    1
    12    12    13    2
    13    12    14    1
    14    14    15   ar
    15    15    16   ar
    16    16    17    1
    17    16    18   ar
    18    18    19    1
    19    19    20    2
    20    19    21    1
    21    21    22   ar
    22    22    23    1
    23    22    24   ar
    24    24    25   ar
    25    25    26   ar
    26    26    27   ar
    27    27    28    1
    28    28    29    2
    29    28    30    1
    30    18    31   ar
    31    31    32    1
    32    31    33   ar
    33     2    34    1
    34    34    35   ar
    35    35    36   ar
    36    36    37   ar
    37    37    38    1
    38    37    39   ar
    39    39    40   ar
    40    10     4    1
    41    33    14   ar
    42    40    34   ar
    43    27    21   ar
    44     3    41    1
    45     4    42    1
    46     5    43    1
    47     5    44    1
    48     7    45    1
    49     7    46    1
    50     8    47    1
    51     8    48    1
    52     9    49    1
    53     9    50    1
    54    10    51    1
    55    15    52    1
    56    17    53    1
    57    23    54    1
    58    24    55    1
    59    25    56    1
    60    26    57    1
    61    30    58    1
    62    32    59    1
    63    33    60    1
    64    35    61    1
    65    36    62    1
    66    38    63    1
    67    39    64    1
    68    40    65    1
