
     RDKit          3D

 28 30  0  0  0  0  0  0  0  0999 V2000
   -3.2742   -1.7435    1.0335 O   0  0  0  0  0  0  0  0  0  0  0  0
   -2.9238   -0.5463    0.4429 C   0  0  0  0  0  0  0  0  0  0  0  0
   -3.9046    0.3808    0.0746 C   0  0  0  0  0  0  0  0  0  0  0  0
   -3.5352    1.5742   -0.5156 C   0  0  0  0  0  0  0  0  0  0  0  0
   -2.2225    1.8718   -0.7495 C   0  0  0  0  0  0  0  0  0  0  0  0
   -1.2207    0.9923   -0.4052 C   0  0  0  0  0  0  0  0  0  0  0  0
   -1.6183   -0.1936    0.1835 C   0  0  0  0  0  0  0  0  0  0  0  0
   -0.6076   -1.1856    0.5802 C   0  0  0  0  0  0  0  0  0  0  0  0
   -0.9211   -2.2764    1.1180 O   0  0  0  0  0  0  0  0  0  0  0  0
    0.7963   -0.8807    0.3360 C   0  0  0  0  0  0  0  0  0  0  0  0
    1.8101   -1.7516    0.6756 C   0  0  0  0  0  0  0  0  0  0  0  0
    1.4342   -2.9485    1.2682 O   0  0  0  0  0  0  0  0  0  0  0  0
    3.1611   -1.5506    0.4844 C   0  0  0  0  0  0  0  0  0  0  0  0
    3.5340   -0.3631   -0.1035 C   0  0  0  0  0  0  0  0  0  0  0  0
    2.5128    0.5005   -0.4392 C   0  0  0  0  0  0  0  0  0  0  0  0
    1.1591    0.3107   -0.2530 C   0  0  0  0  0  0  0  0  0  0  0  0
    0.1765    1.3102   -0.6551 C   0  0  0  0  0  0  0  0  0  0  0  0
    0.5323    2.3916   -1.1915 O   0  0  0  0  0  0  0  0  0  0  0  0
    2.9183    1.7152   -1.0426 N   0  0  0  0  0  4  0  0  0  0  0  0
    4.1409    2.2944   -0.7037 O   0  0  0  0  0  1  0  0  0  0  0  0
    3.2179    2.7702   -1.5988 O   0  0  0  0  0  0  0  0  0  0  0  0
   -3.3499   -1.8625    2.0178 H   0  0  0  0  0  0  0  0  0  0  0  0
   -4.9351    0.1878    0.2387 H   0  0  0  0  0  0  0  0  0  0  0  0
   -4.3316    2.2829   -0.7934 H   0  0  0  0  0  0  0  0  0  0  0  0
   -1.9684    2.8154   -1.2136 H   0  0  0  0  0  0  0  0  0  0  0  0
    0.9842   -3.6705    0.7131 H   0  0  0  0  0  0  0  0  0  0  0  0
    3.8719   -2.2940    0.7849 H   0  0  0  0  0  0  0  0  0  0  0  0
    4.5633   -0.1310   -0.2868 H   0  0  0  0  0  0  0  0  0  0  0  0
  1  2  1  0
  2  3  2  0
  3  4  1  0
  4  5  2  0
  5  6  1  0
  6  7  2  0
  7  8  1  0
  8  9  2  0
  8 10  1  0
 10 11  2  0
 11 12  1  0
 11 13  1  0
 13 14  2  0
 14 15  1  0
 15 16  2  0
 16 17  1  0
 17 18  2  0
 15 19  1  0
 19 20  1  0
 19 21  2  0
  7  2  1  0
 16 10  1  0
 17  6  1  0
  1 22  1  0
  3 23  1  0
  4 24  1  0
  5 25  1  0
 12 26  1  0
 13 27  1  0
 14 28  1  0
M  CHG  2  19   1  20  -1
M  END
$$$$
