@<TRIPOS>MOLECULE
*****
 28 30 0 0 0
SMALL
GASTEIGER

@<TRIPOS>ATOM
      1 O          -3.2742   -1.7435    1.0335 O.3     1  UNL1       -0.5060
      2 C          -2.9238   -0.5463    0.4429 C.ar    1  UNL1        0.1283
      3 C          -3.9046    0.3808    0.0746 C.ar    1  UNL1       -0.0194
      4 C          -3.5352    1.5742   -0.5156 C.ar    1  UNL1       -0.0576
      5 C          -2.2225    1.8718   -0.7495 C.ar    1  UNL1       -0.0500
      6 C          -1.2207    0.9923   -0.4052 C.ar    1  UNL1        0.0368
      7 C          -1.6183   -0.1936    0.1835 C.ar    1  UNL1        0.0745
      8 C          -0.6076   -1.1856    0.5802 C.2     1  UNL1        0.2017
      9 O          -0.9211   -2.2764    1.1180 O.2     1  UNL1       -0.2864
     10 C           0.7963   -0.8807    0.3360 C.ar    1  UNL1        0.0811
     11 C           1.8101   -1.7516    0.6756 C.ar    1  UNL1        0.1288
     12 O           1.4342   -2.9485    1.2682 O.3     1  UNL1       -0.5060
     13 C           3.1611   -1.5506    0.4844 C.ar    1  UNL1       -0.0130
     14 C           3.5340   -0.3631   -0.1035 C.ar    1  UNL1        0.0198
     15 C           2.5128    0.5005   -0.4392 C.ar    1  UNL1        0.2848
     16 C           1.1591    0.3107   -0.2530 C.ar    1  UNL1        0.1135
     17 C           0.1765    1.3102   -0.6551 C.2     1  UNL1        0.2012
     18 O           0.5323    2.3916   -1.1915 O.2     1  UNL1       -0.2864
     19 N           2.9183    1.7152   -1.0426 N.pl3   1  UNL1        0.0804
     20 O           4.1409    2.2944   -0.7037 O.co2   1  UNL1       -0.5760
     21 O           3.2179    2.7702   -1.5988 O.2     1  UNL1        0.0415
     22 H          -3.3499   -1.8625    2.0178 H       1  UNL1        0.2922
     23 H          -4.9351    0.1878    0.2387 H       1  UNL1        0.0654
     24 H          -4.3316    2.2829   -0.7934 H       1  UNL1        0.0619
     25 H          -1.9684    2.8154   -1.2136 H       1  UNL1        0.0625
     26 H           0.9842   -3.6705    0.7131 H       1  UNL1        0.2922
     27 H           3.8719   -2.2940    0.7849 H       1  UNL1        0.0656
     28 H           4.5633   -0.1310   -0.2868 H       1  UNL1        0.0687
@<TRIPOS>UNITY_ATOM_ATTR
19 1
charge 1
20 1
charge -1
@<TRIPOS>BOND
     1     1     2    1
     2     2     3   ar
     3     3     4   ar
     4     4     5   ar
     5     5     6   ar
     6     6     7   ar
     7     7     8    1
     8     8     9    2
     9     8    10    1
    10    10    11   ar
    11    11    12    1
    12    11    13   ar
    13    13    14   ar
    14    14    15   ar
    15    15    16   ar
    16    16    17    1
    17    17    18    2
    18    15    19    1
    19    19    20    1
    20    19    21    2
    21     7     2   ar
    22    16    10   ar
    23    17     6    1
    24     1    22    1
    25     3    23    1
    26     4    24    1
    27     5    25    1
    28    12    26    1
    29    13    27    1
    30    14    28    1
