@<TRIPOS>MOLECULE
*****
 41 43 0 0 0
SMALL
GASTEIGER

@<TRIPOS>ATOM
      1 O           2.1726    2.5008    0.5393 O.2     1  UNL1       -0.2524
      2 C           1.9646    1.1971    0.4917 C.2     1  UNL1        0.3050
      3 N           3.0524    0.3791    0.2228 N.am    1  UNL1       -0.2811
      4 C           2.9930   -1.0475    0.1241 C.3     1  UNL1        0.0396
      5 C           4.2668   -1.5672   -0.5751 C.3     1  UNL1        0.0635
      6 O           4.5502   -0.6613   -1.5860 O.3     1  UNL1       -0.3767
      7 C           5.1833    0.4219   -1.0111 C.3     1  UNL1        0.0635
      8 C           4.3531    1.0655    0.0390 C.3     1  UNL1        0.0396
      9 N           0.6432    0.8305    0.7257 N.am    1  UNL1       -0.2825
     10 C          -0.3632    1.9150    0.9765 C.3     1  UNL1        0.0319
     11 C          -1.5856    1.5550    0.1610 C.3     1  UNL1        0.0281
     12 N          -2.0763    0.2222    0.5402 N.pl3   1  UNL1       -0.3269
     13 C          -3.2947   -0.2233    0.0355 C.ar    1  UNL1        0.0298
     14 C          -4.0286    0.5694   -0.8476 C.ar    1  UNL1       -0.0396
     15 C          -5.2402    0.1650   -1.3686 C.ar    1  UNL1       -0.0460
     16 C          -5.7785   -1.0558   -1.0307 C.ar    1  UNL1        0.0180
     17 BR         -7.4521   -1.6289   -1.7424 Br      1  UNL1       -0.0503
     18 C          -5.0715   -1.8544   -0.1608 C.ar    1  UNL1       -0.0460
     19 C          -3.8490   -1.4361    0.3593 C.ar    1  UNL1       -0.0396
     20 C          -1.2227   -0.5249    1.4285 C.3     1  UNL1        0.0281
     21 C           0.1794   -0.5245    0.7454 C.3     1  UNL1        0.0319
     22 H           2.1810   -1.3898   -0.5359 H       1  UNL1        0.0488
     23 H           3.0288   -1.4884    1.1283 H       1  UNL1        0.0488
     24 H           5.1041   -1.6749    0.1176 H       1  UNL1        0.0575
     25 H           4.0380   -2.5582   -1.0055 H       1  UNL1        0.0575
     26 H           6.1249    0.0524   -0.5378 H       1  UNL1        0.0575
     27 H           5.4382    1.1943   -1.7839 H       1  UNL1        0.0575
     28 H           4.1226    2.1125   -0.2229 H       1  UNL1        0.0488
     29 H           4.8264    1.0140    1.0546 H       1  UNL1        0.0488
     30 H          -0.5810    1.9782    2.0483 H       1  UNL1        0.0480
     31 H           0.0408    2.8523    0.5556 H       1  UNL1        0.0480
     32 H          -1.2747    1.5726   -0.9037 H       1  UNL1        0.0479
     33 H          -2.4047    2.2789    0.3382 H       1  UNL1        0.0479
     34 H          -3.6289    1.5281   -1.1271 H       1  UNL1        0.0636
     35 H          -5.7641    0.8302   -2.0533 H       1  UNL1        0.0629
     36 H          -5.4766   -2.8322    0.1258 H       1  UNL1        0.0629
     37 H          -3.3384   -2.1047    1.0390 H       1  UNL1        0.0636
     38 H          -1.0406    0.0404    2.3861 H       1  UNL1        0.0479
     39 H          -1.5042   -1.5601    1.6048 H       1  UNL1        0.0479
     40 H          -0.0559   -0.9056   -0.2829 H       1  UNL1        0.0480
     41 H           0.7681   -1.2379    1.3144 H       1  UNL1        0.0480
@<TRIPOS>BOND
     1     1     2    2
     2     2     3   am
     3     3     4    1
     4     4     5    1
     5     5     6    1
     6     6     7    1
     7     7     8    1
     8     2     9   am
     9     9    10    1
    10    10    11    1
    11    11    12    1
    12    12    13    1
    13    13    14   ar
    14    14    15   ar
    15    15    16   ar
    16    16    17    1
    17    16    18   ar
    18    18    19   ar
    19    12    20    1
    20    20    21    1
    21     8     3    1
    22    21     9    1
    23    19    13   ar
    24     4    22    1
    25     4    23    1
    26     5    24    1
    27     5    25    1
    28     7    26    1
    29     7    27    1
    30     8    28    1
    31     8    29    1
    32    10    30    1
    33    10    31    1
    34    11    32    1
    35    11    33    1
    36    14    34    1
    37    15    35    1
    38    18    36    1
    39    19    37    1
    40    20    38    1
    41    20    39    1
    42    21    40    1
    43    21    41    1
