
     RDKit          3D

 41 43  0  0  0  0  0  0  0  0999 V2000
    2.1726    2.5008    0.5393 O   0  0  0  0  0  0  0  0  0  0  0  0
    1.9646    1.1971    0.4917 C   0  0  0  0  0  0  0  0  0  0  0  0
    3.0524    0.3791    0.2228 N   0  0  0  0  0  0  0  0  0  0  0  0
    2.9930   -1.0475    0.1241 C   0  0  0  0  0  0  0  0  0  0  0  0
    4.2668   -1.5672   -0.5751 C   0  0  0  0  0  0  0  0  0  0  0  0
    4.5502   -0.6613   -1.5860 O   0  0  0  0  0  0  0  0  0  0  0  0
    5.1833    0.4219   -1.0111 C   0  0  0  0  0  0  0  0  0  0  0  0
    4.3531    1.0655    0.0390 C   0  0  0  0  0  0  0  0  0  0  0  0
    0.6432    0.8305    0.7257 N   0  0  0  0  0  0  0  0  0  0  0  0
   -0.3632    1.9150    0.9765 C   0  0  0  0  0  0  0  0  0  0  0  0
   -1.5856    1.5550    0.1610 C   0  0  0  0  0  0  0  0  0  0  0  0
   -2.0763    0.2222    0.5402 N   0  0  0  0  0  0  0  0  0  0  0  0
   -3.2947   -0.2233    0.0355 C   0  0  0  0  0  0  0  0  0  0  0  0
   -4.0286    0.5694   -0.8476 C   0  0  0  0  0  0  0  0  0  0  0  0
   -5.2402    0.1650   -1.3686 C   0  0  0  0  0  0  0  0  0  0  0  0
   -5.7785   -1.0558   -1.0307 C   0  0  0  0  0  0  0  0  0  0  0  0
   -7.4521   -1.6289   -1.7424 Br  0  0  0  0  0  0  0  0  0  0  0  0
   -5.0715   -1.8544   -0.1608 C   0  0  0  0  0  0  0  0  0  0  0  0
   -3.8490   -1.4361    0.3593 C   0  0  0  0  0  0  0  0  0  0  0  0
   -1.2227   -0.5249    1.4285 C   0  0  0  0  0  0  0  0  0  0  0  0
    0.1794   -0.5245    0.7454 C   0  0  0  0  0  0  0  0  0  0  0  0
    2.1810   -1.3898   -0.5359 H   0  0  0  0  0  0  0  0  0  0  0  0
    3.0288   -1.4884    1.1283 H   0  0  0  0  0  0  0  0  0  0  0  0
    5.1041   -1.6749    0.1176 H   0  0  0  0  0  0  0  0  0  0  0  0
    4.0380   -2.5582   -1.0055 H   0  0  0  0  0  0  0  0  0  0  0  0
    6.1249    0.0524   -0.5378 H   0  0  0  0  0  0  0  0  0  0  0  0
    5.4382    1.1943   -1.7839 H   0  0  0  0  0  0  0  0  0  0  0  0
    4.1226    2.1125   -0.2229 H   0  0  0  0  0  0  0  0  0  0  0  0
    4.8264    1.0140    1.0546 H   0  0  0  0  0  0  0  0  0  0  0  0
   -0.5810    1.9782    2.0483 H   0  0  0  0  0  0  0  0  0  0  0  0
    0.0408    2.8523    0.5556 H   0  0  0  0  0  0  0  0  0  0  0  0
   -1.2747    1.5726   -0.9037 H   0  0  0  0  0  0  0  0  0  0  0  0
   -2.4047    2.2789    0.3382 H   0  0  0  0  0  0  0  0  0  0  0  0
   -3.6289    1.5281   -1.1271 H   0  0  0  0  0  0  0  0  0  0  0  0
   -5.7641    0.8302   -2.0533 H   0  0  0  0  0  0  0  0  0  0  0  0
   -5.4766   -2.8322    0.1258 H   0  0  0  0  0  0  0  0  0  0  0  0
   -3.3384   -2.1047    1.0390 H   0  0  0  0  0  0  0  0  0  0  0  0
   -1.0406    0.0404    2.3861 H   0  0  0  0  0  0  0  0  0  0  0  0
   -1.5042   -1.5601    1.6048 H   0  0  0  0  0  0  0  0  0  0  0  0
   -0.0559   -0.9056   -0.2829 H   0  0  0  0  0  0  0  0  0  0  0  0
    0.7681   -1.2379    1.3144 H   0  0  0  0  0  0  0  0  0  0  0  0
  1  2  2  0
  2  3  1  0
  3  4  1  0
  4  5  1  0
  5  6  1  0
  6  7  1  0
  7  8  1  0
  2  9  1  0
  9 10  1  0
 10 11  1  0
 11 12  1  0
 12 13  1  0
 13 14  2  0
 14 15  1  0
 15 16  2  0
 16 17  1  0
 16 18  1  0
 18 19  2  0
 12 20  1  0
 20 21  1  0
  8  3  1  0
 21  9  1  0
 19 13  1  0
  4 22  1  0
  4 23  1  0
  5 24  1  0
  5 25  1  0
  7 26  1  0
  7 27  1  0
  8 28  1  0
  8 29  1  0
 10 30  1  0
 10 31  1  0
 11 32  1  0
 11 33  1  0
 14 34  1  0
 15 35  1  0
 18 36  1  0
 19 37  1  0
 20 38  1  0
 20 39  1  0
 21 40  1  0
 21 41  1  0
M  END
$$$$
