@<TRIPOS>MOLECULE
*****
 53 55 0 0 0
SMALL
GASTEIGER

@<TRIPOS>ATOM
      1 C           2.3011   -1.9093   -3.8428 C.2     0  UNK0       -0.0951
      2 C           1.3848   -1.2215   -3.1479 C.2     0  UNK0       -0.0472
      3 C           0.0482   -1.1996   -3.7369 C.3     0  UNK0       -0.0396
      4 C           1.7250   -0.6727   -1.8552 C.ar    0  UNK0        0.0166
      5 C           2.8273   -1.2665   -1.1810 C.ar    0  UNK0        0.0374
      6 N           3.3063   -0.8294   -0.0324 N.ar    0  UNK0       -0.2542
      7 C           2.7844    0.2409    0.6215 C.ar    0  UNK0        0.0755
      8 C           3.3960    0.6414    1.8958 C.ar    0  UNK0        0.0369
      9 C           4.4859   -0.0969    2.3760 C.ar    0  UNK0       -0.0314
     10 C           5.1238    0.1991    3.5549 C.ar    0  UNK0        0.0418
     11 CL          6.4896   -0.7486    4.1292 Cl      0  UNK0       -0.0835
     12 C           4.6967    1.2587    4.3165 C.ar    0  UNK0       -0.0406
     13 C           3.6354    2.0062    3.8841 C.ar    0  UNK0       -0.0244
     14 C           2.9999    1.6855    2.6778 C.ar    0  UNK0        0.1326
     15 F           1.9389    2.4694    2.2906 F       0  UNK0       -0.2048
     16 C           1.7415    0.8343    0.0228 C.ar    0  UNK0       -0.0138
     17 C           1.1691    0.4070   -1.2352 C.ar    0  UNK0        0.0423
     18 N           0.1418    1.1871   -1.7171 N.pl3   0  UNK0       -0.3133
     19 C          -1.1693    1.1332   -2.1435 C.ar    0  UNK0        0.0465
     20 C          -1.4617    1.7340   -3.4197 C.ar    0  UNK0       -0.0217
     21 C          -2.7209    1.7424   -3.9104 C.ar    0  UNK0        0.0293
     22 N          -3.7086    1.1832   -3.1971 N.ar    0  UNK0       -0.2624
     23 C          -3.4678    0.6136   -2.0021 C.ar    0  UNK0        0.0415
     24 C          -2.1848    0.5673   -1.4300 C.ar    0  UNK0        0.0758
     25 C          -2.0175   -0.1023   -0.1476 C.2     0  UNK0        0.2476
     26 O          -0.9201   -0.2960    0.3777 O.2     0  UNK0       -0.2701
     27 N          -3.1173   -0.6024    0.6328 N.am    1  ALA1       -0.3065
     28 CA         -2.9260   -1.2679    1.9086 C.3     1  ALA1        0.0437
     29 CB         -3.5305   -2.6518    1.9164 C.3     1  ALA1       -0.0445
     30 C          -3.6600   -0.4194    2.9533 C.3     1  ALA1        0.0623
     31 O          -5.0225   -0.3367    2.6384 O.3     1  ALA1       -0.3932
     32 H           3.2952   -1.9729   -3.4864 H       0  UNK0        0.0538
     33 H           2.0518   -2.4036   -4.7677 H       0  UNK0        0.0538
     34 H          -0.7847   -1.3681   -3.0378 H       0  UNK0        0.0278
     35 H           0.0188   -2.0900   -4.4922 H       0  UNK0        0.0278
     36 H          -0.0934   -0.3488   -4.3883 H       0  UNK0        0.0278
     37 H           3.2504   -2.1367   -1.6614 H       0  UNK0        0.0836
     38 H           4.8459   -0.9354    1.8014 H       0  UNK0        0.0639
     39 H           5.2241    1.4690    5.2489 H       0  UNK0        0.0633
     40 H           3.2881    2.8324    4.4598 H       0  UNK0        0.0647
     41 H           1.2656    1.6788    0.4587 H       0  UNK0        0.0658
     42 H           0.5427    2.2748   -1.7909 H       0  UNK0        0.1522
     43 H          -0.6059    2.1761   -3.9556 H       0  UNK0        0.0651
     44 H          -2.8940    2.2108   -4.8847 H       0  UNK0        0.0830
     45 H          -4.2713    0.1600   -1.4319 H       0  UNK0        0.0838
     46 H          -4.0834   -0.5009    0.3116 H       1  ALA1        0.1494
     47 HA         -1.8857   -1.3509    2.2146 H       1  ALA1        0.0518
     48 HB1        -4.3214   -2.7659    1.1470 H       1  ALA1        0.0248
     49 HB2        -3.9655   -2.8289    2.9188 H       1  ALA1        0.0248
     50 HB3        -2.7183   -3.4031    1.7826 H       1  ALA1        0.0248
     51 H1         -3.5983   -0.8794    3.9611 H       1  ALA1        0.0575
     52 H2         -3.2742    0.6173    2.9577 H       1  ALA1        0.0575
     53 H          -5.5752   -0.1905    3.4368 H       1  ALA1        0.2095
@<TRIPOS>BOND
     1     1     2    2
     2     2     3    1
     3     2     4    1
     4     4     5   ar
     5     5     6   ar
     6     6     7   ar
     7     7     8    1
     8     8     9   ar
     9     9    10   ar
    10    10    11    1
    11    10    12   ar
    12    12    13   ar
    13    13    14   ar
    14    14    15    1
    15     7    16   ar
    16    16    17   ar
    17    17    18    1
    18    18    19    1
    19    19    20   ar
    20    20    21   ar
    21    21    22   ar
    22    22    23   ar
    23    23    24   ar
    24    24    25    1
    25    25    26    2
    26    25    27   am
    27    27    28    1
    28    28    29    1
    29    28    30    1
    30    30    31    1
    31    17     4   ar
    32    24    19   ar
    33    14     8   ar
    34     1    32    1
    35     1    33    1
    36     3    34    1
    37     3    35    1
    38     3    36    1
    39     5    37    1
    40     9    38    1
    41    12    39    1
    42    13    40    1
    43    16    41    1
    44    18    42    1
    45    20    43    1
    46    21    44    1
    47    23    45    1
    48    27    46    1
    49    28    47    1
    50    29    48    1
    51    29    49    1
    52    29    50    1
    53    30    51    1
    54    30    52    1
    55    31    53    1
