
     RDKit          3D

 53 55  0  0  0  0  0  0  0  0999 V2000
    2.3011   -1.9093   -3.8428 C   0  0  0  0  0  0  0  0  0  0  0  0
    1.3848   -1.2215   -3.1479 C   0  0  0  0  0  0  0  0  0  0  0  0
    0.0482   -1.1996   -3.7369 C   0  0  0  0  0  0  0  0  0  0  0  0
    1.7250   -0.6727   -1.8552 C   0  0  0  0  0  0  0  0  0  0  0  0
    2.8273   -1.2665   -1.1810 C   0  0  0  0  0  0  0  0  0  0  0  0
    3.3063   -0.8294   -0.0324 N   0  0  0  0  0  0  0  0  0  0  0  0
    2.7844    0.2409    0.6215 C   0  0  0  0  0  0  0  0  0  0  0  0
    3.3960    0.6414    1.8958 C   0  0  0  0  0  0  0  0  0  0  0  0
    4.4859   -0.0969    2.3760 C   0  0  0  0  0  0  0  0  0  0  0  0
    5.1238    0.1991    3.5549 C   0  0  0  0  0  0  0  0  0  0  0  0
    6.4896   -0.7486    4.1292 Cl  0  0  0  0  0  0  0  0  0  0  0  0
    4.6967    1.2587    4.3165 C   0  0  0  0  0  0  0  0  0  0  0  0
    3.6354    2.0062    3.8841 C   0  0  0  0  0  0  0  0  0  0  0  0
    2.9999    1.6855    2.6778 C   0  0  0  0  0  0  0  0  0  0  0  0
    1.9389    2.4694    2.2906 F   0  0  0  0  0  0  0  0  0  0  0  0
    1.7415    0.8343    0.0228 C   0  0  0  0  0  0  0  0  0  0  0  0
    1.1691    0.4070   -1.2352 C   0  0  0  0  0  0  0  0  0  0  0  0
    0.1418    1.1871   -1.7171 N   0  0  0  0  0  0  0  0  0  0  0  0
   -1.1693    1.1332   -2.1435 C   0  0  0  0  0  0  0  0  0  0  0  0
   -1.4617    1.7340   -3.4197 C   0  0  0  0  0  0  0  0  0  0  0  0
   -2.7209    1.7424   -3.9104 C   0  0  0  0  0  0  0  0  0  0  0  0
   -3.7086    1.1832   -3.1971 N   0  0  0  0  0  0  0  0  0  0  0  0
   -3.4678    0.6136   -2.0021 C   0  0  0  0  0  0  0  0  0  0  0  0
   -2.1848    0.5673   -1.4300 C   0  0  0  0  0  0  0  0  0  0  0  0
   -2.0175   -0.1023   -0.1476 C   0  0  0  0  0  0  0  0  0  0  0  0
   -0.9201   -0.2960    0.3777 O   0  0  0  0  0  0  0  0  0  0  0  0
   -3.1173   -0.6024    0.6328 N   0  0  0  0  0  0  0  0  0  0  0  0
   -2.9260   -1.2679    1.9086 C   0  0  2  0  0  0  0  0  0  0  0  0
   -3.5305   -2.6518    1.9164 C   0  0  0  0  0  0  0  0  0  0  0  0
   -3.6600   -0.4194    2.9533 C   0  0  0  0  0  0  0  0  0  0  0  0
   -5.0225   -0.3367    2.6384 O   0  0  0  0  0  0  0  0  0  0  0  0
    3.2952   -1.9729   -3.4864 H   0  0  0  0  0  0  0  0  0  0  0  0
    2.0518   -2.4036   -4.7677 H   0  0  0  0  0  0  0  0  0  0  0  0
   -0.7847   -1.3681   -3.0378 H   0  0  0  0  0  0  0  0  0  0  0  0
    0.0188   -2.0900   -4.4922 H   0  0  0  0  0  0  0  0  0  0  0  0
   -0.0934   -0.3488   -4.3883 H   0  0  0  0  0  0  0  0  0  0  0  0
    3.2504   -2.1367   -1.6614 H   0  0  0  0  0  0  0  0  0  0  0  0
    4.8459   -0.9354    1.8014 H   0  0  0  0  0  0  0  0  0  0  0  0
    5.2241    1.4690    5.2489 H   0  0  0  0  0  0  0  0  0  0  0  0
    3.2881    2.8324    4.4598 H   0  0  0  0  0  0  0  0  0  0  0  0
    1.2656    1.6788    0.4587 H   0  0  0  0  0  0  0  0  0  0  0  0
    0.5427    2.2748   -1.7909 H   0  0  0  0  0  0  0  0  0  0  0  0
   -0.6059    2.1761   -3.9556 H   0  0  0  0  0  0  0  0  0  0  0  0
   -2.8940    2.2108   -4.8847 H   0  0  0  0  0  0  0  0  0  0  0  0
   -4.2713    0.1600   -1.4319 H   0  0  0  0  0  0  0  0  0  0  0  0
   -4.0834   -0.5009    0.3116 H   0  0  0  0  0  0  0  0  0  0  0  0
   -1.8857   -1.3509    2.2146 H   0  0  0  0  0  0  0  0  0  0  0  0
   -4.3214   -2.7659    1.1470 H   0  0  0  0  0  0  0  0  0  0  0  0
   -3.9655   -2.8289    2.9188 H   0  0  0  0  0  0  0  0  0  0  0  0
   -2.7183   -3.4031    1.7826 H   0  0  0  0  0  0  0  0  0  0  0  0
   -3.5983   -0.8794    3.9611 H   0  0  0  0  0  0  0  0  0  0  0  0
   -3.2742    0.6173    2.9577 H   0  0  0  0  0  0  0  0  0  0  0  0
   -5.5752   -0.1905    3.4368 H   0  0  0  0  0  0  0  0  0  0  0  0
  1  2  2  3
  2  3  1  0
  2  4  1  0
  4  5  2  0
  5  6  1  0
  6  7  2  0
  7  8  1  0
  8  9  2  0
  9 10  1  0
 10 11  1  0
 10 12  2  0
 12 13  1  0
 13 14  2  0
 14 15  1  0
  7 16  1  0
 16 17  2  0
 17 18  1  0
 18 19  1  0
 19 20  2  0
 20 21  1  0
 21 22  2  0
 22 23  1  0
 23 24  2  0
 24 25  1  0
 25 26  2  0
 25 27  1  0
 27 28  1  0
 28 29  1  0
 28 30  1  0
 30 31  1  0
 17  4  1  0
 24 19  1  0
 14  8  1  0
  1 32  1  0
  1 33  1  0
  3 34  1  0
  3 35  1  0
  3 36  1  0
  5 37  1  0
  9 38  1  0
 12 39  1  0
 13 40  1  0
 16 41  1  0
 18 42  1  0
 20 43  1  0
 21 44  1  0
 23 45  1  0
 27 46  1  0
 28 47  1  1
 29 48  1  0
 29 49  1  0
 29 50  1  0
 30 51  1  0
 30 52  1  0
 31 53  1  0
M  END
$$$$
