
     RDKit          3D

 42 45  0  0  0  0  0  0  0  0999 V2000
    5.5296   -3.8500   -0.2021 C   0  0  0  0  0  0  0  0  0  0  0  0
    4.6480   -3.0614   -0.9591 O   0  0  0  0  0  0  0  0  0  0  0  0
    3.4768   -2.5949   -0.3789 C   0  0  0  0  0  0  0  0  0  0  0  0
    2.6171   -1.8349   -1.2328 C   0  0  0  0  0  0  0  0  0  0  0  0
    1.4680   -1.3720   -0.7022 C   0  0  0  0  0  0  0  0  0  0  0  0
    1.0334   -1.5559    0.5903 C   0  0  0  0  0  0  0  0  0  0  0  0
   -0.2664   -1.1690    1.1198 C   0  0  0  0  0  0  0  0  0  0  0  0
   -0.9423   -2.1377    1.8780 N   0  0  0  0  0  0  0  0  0  0  0  0
   -2.1032   -1.5932    2.2234 C   0  0  0  0  0  0  0  0  0  0  0  0
   -2.2187   -0.3609    1.7430 N   0  0  0  0  0  0  0  0  0  0  0  0
   -3.3404    0.5599    1.8088 C   0  0  0  0  0  0  0  0  0  0  0  0
   -4.3182    0.0900    0.7095 C   0  0  0  0  0  0  0  0  0  0  0  0
   -5.4143    0.9019    0.6632 F   0  0  0  0  0  0  0  0  0  0  0  0
   -3.6677   -0.0786   -0.4679 F   0  0  0  0  0  0  0  0  0  0  0  0
   -1.0556   -0.0981    1.0528 C   0  0  0  0  0  0  0  0  0  0  0  0
   -0.8139    1.2007    0.4400 C   0  0  0  0  0  0  0  0  0  0  0  0
   -0.1808    2.2138    1.1464 C   0  0  0  0  0  0  0  0  0  0  0  0
    0.0089    3.4899    0.7219 C   0  0  0  0  0  0  0  0  0  0  0  0
   -0.4908    3.7804   -0.5644 C   0  0  0  0  0  0  0  0  0  0  0  0
   -0.4681    4.9478   -1.2627 N   0  0  0  0  0  0  0  0  0  0  0  0
   -1.0815    4.6964   -2.4127 C   0  0  0  0  0  0  0  0  0  0  0  0
   -1.4805    3.3903   -2.4373 C   0  0  0  0  0  0  0  0  0  0  0  0
   -2.1500    2.7430   -3.4605 C   0  0  0  0  0  0  0  0  0  0  0  0
   -2.7616    2.1198   -4.4211 N   0  0  0  0  0  0  0  0  0  0  0  0
   -1.1014    2.7942   -1.2476 N   0  0  0  0  0  0  0  0  0  0  0  0
   -1.2562    1.5729   -0.7804 N   0  0  0  0  0  0  0  0  0  0  0  0
    1.9072   -2.2962    1.3851 C   0  0  0  0  0  0  0  0  0  0  0  0
    3.1264   -2.8067    0.8771 C   0  0  0  0  0  0  0  0  0  0  0  0
    4.9418   -4.4821    0.4933 H   0  0  0  0  0  0  0  0  0  0  0  0
    6.1716   -3.2351    0.4434 H   0  0  0  0  0  0  0  0  0  0  0  0
    6.1342   -4.4672   -0.9251 H   0  0  0  0  0  0  0  0  0  0  0  0
    2.9687   -1.7005   -2.2342 H   0  0  0  0  0  0  0  0  0  0  0  0
    0.7989   -0.7734   -1.3657 H   0  0  0  0  0  0  0  0  0  0  0  0
   -2.8673   -2.0989    2.8315 H   0  0  0  0  0  0  0  0  0  0  0  0
   -3.0605    1.5753    1.5048 H   0  0  0  0  0  0  0  0  0  0  0  0
   -3.8762    0.5586    2.7721 H   0  0  0  0  0  0  0  0  0  0  0  0
   -4.7054   -0.9362    0.9875 H   0  0  0  0  0  0  0  0  0  0  0  0
    0.1882    1.9477    2.1363 H   0  0  0  0  0  0  0  0  0  0  0  0
    0.5047    4.2747    1.2825 H   0  0  0  0  0  0  0  0  0  0  0  0
   -1.2341    5.4150   -3.2153 H   0  0  0  0  0  0  0  0  0  0  0  0
    1.6090   -2.4327    2.4132 H   0  0  0  0  0  0  0  0  0  0  0  0
    3.7227   -3.3366    1.6126 H   0  0  0  0  0  0  0  0  0  0  0  0
  1  2  1  0
  2  3  1  0
  3  4  2  0
  4  5  1  0
  5  6  2  0
  6  7  1  0
  7  8  1  0
  8  9  2  0
  9 10  1  0
 10 11  1  0
 11 12  1  0
 12 13  1  0
 12 14  1  0
 10 15  1  0
 15 16  1  0
 16 17  1  0
 17 18  2  0
 18 19  1  0
 19 20  2  0
 20 21  1  0
 21 22  2  0
 22 23  1  0
 23 24  3  0
 22 25  1  0
 25 26  1  0
  6 27  1  0
 27 28  2  0
 28  3  1  0
 15  7  2  0
 26 16  2  0
 25 19  1  0
  1 29  1  0
  1 30  1  0
  1 31  1  0
  4 32  1  0
  5 33  1  0
  9 34  1  0
 11 35  1  0
 11 36  1  0
 12 37  1  0
 17 38  1  0
 18 39  1  0
 21 40  1  0
 27 41  1  0
 28 42  1  0
M  END
$$$$
