@<TRIPOS>MOLECULE
*****
 42 45 0 0 0
SMALL
GASTEIGER

@<TRIPOS>ATOM
      1 C           5.5296   -3.8500   -0.2021 C.3     1  UNL1        0.0788
      2 O           4.6480   -3.0614   -0.9591 O.3     1  UNL1       -0.4951
      3 C           3.4768   -2.5949   -0.3789 C.ar    1  UNL1        0.1201
      4 C           2.6171   -1.8349   -1.2328 C.ar    1  UNL1       -0.0193
      5 C           1.4680   -1.3720   -0.7022 C.ar    1  UNL1       -0.0490
      6 C           1.0334   -1.5559    0.5903 C.ar    1  UNL1        0.0027
      7 C          -0.2664   -1.1690    1.1198 C.ar    1  UNL1        0.0982
      8 N          -0.9423   -2.1377    1.8780 N.ar    1  UNL1       -0.2351
      9 C          -2.1032   -1.5932    2.2234 C.ar    1  UNL1        0.0973
     10 N          -2.2187   -0.3609    1.7430 N.ar    1  UNL1       -0.3229
     11 C          -3.3404    0.5599    1.8088 C.3     1  UNL1        0.0852
     12 C          -4.3182    0.0900    0.7095 C.3     1  UNL1        0.2569
     13 F          -5.4143    0.9019    0.6632 F       1  UNL1       -0.2073
     14 F          -3.6677   -0.0786   -0.4679 F       1  UNL1       -0.2073
     15 C          -1.0556   -0.0981    1.0528 C.ar    1  UNL1        0.0968
     16 C          -0.8139    1.2007    0.4400 C.ar    1  UNL1        0.1103
     17 C          -0.1808    2.2138    1.1464 C.ar    1  UNL1       -0.0290
     18 C           0.0089    3.4899    0.7219 C.ar    1  UNL1       -0.0153
     19 C          -0.4908    3.7804   -0.5644 C.ar    1  UNL1        0.1555
     20 N          -0.4681    4.9478   -1.2627 N.ar    1  UNL1       -0.2333
     21 C          -1.0815    4.6964   -2.4127 C.ar    1  UNL1        0.0659
     22 C          -1.4805    3.3903   -2.4373 C.ar    1  UNL1        0.1618
     23 C          -2.1500    2.7430   -3.4605 C.1     1  UNL1        0.1208
     24 N          -2.7616    2.1198   -4.4211 N.1     1  UNL1       -0.1892
     25 N          -1.1014    2.7942   -1.2476 N.ar    1  UNL1       -0.2023
     26 N          -1.2562    1.5729   -0.7804 N.ar    1  UNL1       -0.1623
     27 C           1.9072   -2.2962    1.3851 C.ar    1  UNL1       -0.0490
     28 C           3.1264   -2.8067    0.8771 C.ar    1  UNL1       -0.0193
     29 H           4.9418   -4.4821    0.4933 H       1  UNL1        0.0660
     30 H           6.1716   -3.2351    0.4434 H       1  UNL1        0.0660
     31 H           6.1342   -4.4672   -0.9251 H       1  UNL1        0.0660
     32 H           2.9687   -1.7005   -2.2342 H       1  UNL1        0.0654
     33 H           0.7989   -0.7734   -1.3657 H       1  UNL1        0.0625
     34 H          -2.8673   -2.0989    2.8315 H       1  UNL1        0.1029
     35 H          -3.0605    1.5753    1.5048 H       1  UNL1        0.0548
     36 H          -3.8762    0.5586    2.7721 H       1  UNL1        0.0548
     37 H          -4.7054   -0.9362    0.9875 H       1  UNL1        0.1037
     38 H           0.1882    1.9477    2.1363 H       1  UNL1        0.0641
     39 H           0.5047    4.2747    1.2825 H       1  UNL1        0.0655
     40 H          -1.2341    5.4150   -3.2153 H       1  UNL1        0.0859
     41 H           1.6090   -2.4327    2.4132 H       1  UNL1        0.0625
     42 H           3.7227   -3.3366    1.6126 H       1  UNL1        0.0654
@<TRIPOS>BOND
     1     1     2    1
     2     2     3    1
     3     3     4   ar
     4     4     5   ar
     5     5     6   ar
     6     6     7    1
     7     7     8   ar
     8     8     9   ar
     9     9    10   ar
    10    10    11    1
    11    11    12    1
    12    12    13    1
    13    12    14    1
    14    10    15   ar
    15    15    16    1
    16    16    17   ar
    17    17    18   ar
    18    18    19   ar
    19    19    20   ar
    20    20    21   ar
    21    21    22   ar
    22    22    23    1
    23    23    24    3
    24    22    25   ar
    25    25    26   ar
    26     6    27   ar
    27    27    28   ar
    28    28     3   ar
    29    15     7   ar
    30    26    16   ar
    31    25    19   ar
    32     1    29    1
    33     1    30    1
    34     1    31    1
    35     4    32    1
    36     5    33    1
    37     9    34    1
    38    11    35    1
    39    11    36    1
    40    12    37    1
    41    17    38    1
    42    18    39    1
    43    21    40    1
    44    27    41    1
    45    28    42    1
