
     RDKit          3D

 57 59  0  0  0  0  0  0  0  0999 V2000
   -4.9298    0.6946   -1.4078 C   0  0  0  0  0  0  0  0  0  0  0  0
   -4.4726   -0.0748   -0.2147 C   0  0  0  0  0  0  0  0  0  0  0  0
   -3.0513    0.2379    0.1763 C   0  0  0  0  0  0  0  0  0  0  0  0
   -2.0878   -0.6581    0.1708 C   0  0  0  0  0  0  0  0  0  0  0  0
   -2.4428   -2.0354   -0.2489 C   0  0  0  0  0  0  0  0  0  0  0  0
   -2.1372   -3.0550    0.6415 C   0  0  0  0  0  0  0  0  0  0  0  0
   -2.4176   -4.3483    0.2699 C   0  0  0  0  0  0  0  0  0  0  0  0
   -2.9884   -4.6644   -0.9499 C   0  0  0  0  0  0  0  0  0  0  0  0
   -3.2713   -3.6178   -1.7956 C   0  0  0  0  0  0  0  0  0  0  0  0
   -3.0063   -2.3056   -1.4639 C   0  0  0  0  0  0  0  0  0  0  0  0
   -0.7046   -0.3721    0.5390 C   0  0  0  0  0  0  0  0  0  0  0  0
   -0.2493   -0.1849    1.8036 C   0  0  0  0  0  0  0  0  0  0  0  0
    1.0439    0.1513    2.1202 C   0  0  0  0  0  0  0  0  0  0  0  0
    1.9764    0.3152    1.0734 C   0  0  0  0  0  0  0  0  0  0  0  0
    3.2251    0.6478    1.4744 O   0  0  0  0  0  0  0  0  0  0  0  0
    4.4268    0.8941    0.8836 C   0  0  0  0  0  0  0  0  0  0  0  0
    4.9667   -0.3118    0.1646 C   0  0  0  0  0  0  0  0  0  0  0  0
    6.2358   -0.0346   -0.4502 N   0  0  0  0  0  0  0  0  0  0  0  0
    6.7329   -1.1424   -1.1821 C   0  0  0  0  0  0  0  0  0  0  0  0
    6.3172    1.2136   -1.1272 C   0  0  0  0  0  0  0  0  0  0  0  0
    1.5350    0.1277   -0.2164 C   0  0  0  0  0  0  0  0  0  0  0  0
    0.2147   -0.2109   -0.4827 C   0  0  0  0  0  0  0  0  0  0  0  0
   -2.7388    1.6049    0.6034 C   0  0  0  0  0  0  0  0  0  0  0  0
   -2.7013    2.5841   -0.3592 C   0  0  0  0  0  0  0  0  0  0  0  0
   -2.4608    3.9212   -0.0087 C   0  0  0  0  0  0  0  0  0  0  0  0
   -2.2643    4.2352    1.3004 C   0  0  0  0  0  0  0  0  0  0  0  0
   -2.2974    3.2718    2.2819 C   0  0  0  0  0  0  0  0  0  0  0  0
   -2.5401    1.9443    1.9074 C   0  0  0  0  0  0  0  0  0  0  0  0
   -5.8865    0.2059   -1.7475 H   0  0  0  0  0  0  0  0  0  0  0  0
   -5.1361    1.7409   -1.0909 H   0  0  0  0  0  0  0  0  0  0  0  0
   -4.2184    0.6604   -2.2340 H   0  0  0  0  0  0  0  0  0  0  0  0
   -4.6362   -1.1451   -0.2596 H   0  0  0  0  0  0  0  0  0  0  0  0
   -5.0967    0.2650    0.6925 H   0  0  0  0  0  0  0  0  0  0  0  0
   -1.6975   -2.8166    1.5827 H   0  0  0  0  0  0  0  0  0  0  0  0
   -2.2057   -5.2055    0.9261 H   0  0  0  0  0  0  0  0  0  0  0  0
   -3.2003   -5.7103   -1.2145 H   0  0  0  0  0  0  0  0  0  0  0  0
   -3.7236   -3.7967   -2.7778 H   0  0  0  0  0  0  0  0  0  0  0  0
   -3.2196   -1.4877   -2.1325 H   0  0  0  0  0  0  0  0  0  0  0  0
   -0.9437   -0.3348    2.6347 H   0  0  0  0  0  0  0  0  0  0  0  0
    1.3305    0.2831    3.1346 H   0  0  0  0  0  0  0  0  0  0  0  0
    4.3033    1.7643    0.1783 H   0  0  0  0  0  0  0  0  0  0  0  0
    5.2146    1.2010    1.6496 H   0  0  0  0  0  0  0  0  0  0  0  0
    4.2318   -0.7145   -0.5123 H   0  0  0  0  0  0  0  0  0  0  0  0
    5.1985   -1.0590    0.9921 H   0  0  0  0  0  0  0  0  0  0  0  0
    6.1763   -2.0971   -1.0057 H   0  0  0  0  0  0  0  0  0  0  0  0
    7.8021   -1.3592   -0.9333 H   0  0  0  0  0  0  0  0  0  0  0  0
    6.6464   -0.9234   -2.2888 H   0  0  0  0  0  0  0  0  0  0  0  0
    6.3963    2.0798   -0.4314 H   0  0  0  0  0  0  0  0  0  0  0  0
    5.4493    1.4079   -1.7990 H   0  0  0  0  0  0  0  0  0  0  0  0
    7.2161    1.1858   -1.7904 H   0  0  0  0  0  0  0  0  0  0  0  0
    2.2375    0.2627   -1.0319 H   0  0  0  0  0  0  0  0  0  0  0  0
   -0.0749   -0.3488   -1.5141 H   0  0  0  0  0  0  0  0  0  0  0  0
   -2.8441    2.4241   -1.4142 H   0  0  0  0  0  0  0  0  0  0  0  0
   -2.4335    4.6901   -0.7806 H   0  0  0  0  0  0  0  0  0  0  0  0
   -2.0706    5.2656    1.6260 H   0  0  0  0  0  0  0  0  0  0  0  0
   -2.1426    3.5003    3.3325 H   0  0  0  0  0  0  0  0  0  0  0  0
   -2.5852    1.2344    2.7061 H   0  0  0  0  0  0  0  0  0  0  0  0
  1  2  1  0
  2  3  1  0
  3  4  2  0
  4  5  1  0
  5  6  2  0
  6  7  1  0
  7  8  2  0
  8  9  1  0
  9 10  2  0
  4 11  1  0
 11 12  2  0
 12 13  1  0
 13 14  2  0
 14 15  1  0
 15 16  1  0
 16 17  1  0
 17 18  1  0
 18 19  1  0
 18 20  1  0
 14 21  1  0
 21 22  2  0
  3 23  1  0
 23 24  2  0
 24 25  1  0
 25 26  2  0
 26 27  1  0
 27 28  2  0
 10  5  1  0
 22 11  1  0
 28 23  1  0
  1 29  1  0
  1 30  1  0
  1 31  1  0
  2 32  1  0
  2 33  1  0
  6 34  1  0
  7 35  1  0
  8 36  1  0
  9 37  1  0
 10 38  1  0
 12 39  1  0
 13 40  1  0
 16 41  1  0
 16 42  1  0
 17 43  1  0
 17 44  1  0
 19 45  1  0
 19 46  1  0
 19 47  1  0
 20 48  1  0
 20 49  1  0
 20 50  1  0
 21 51  1  0
 22 52  1  0
 24 53  1  0
 25 54  1  0
 26 55  1  0
 27 56  1  0
 28 57  1  0
M  END
$$$$
