@<TRIPOS>MOLECULE
*****
 57 59 0 0 0
SMALL
GASTEIGER

@<TRIPOS>ATOM
      1 C          -4.9298    0.6946   -1.4078 C.3     1  UNL1       -0.0612
      2 C          -4.4726   -0.0748   -0.2147 C.3     1  UNL1       -0.0294
      3 C          -3.0513    0.2379    0.1763 C.2     1  UNL1       -0.0322
      4 C          -2.0878   -0.6581    0.1708 C.2     1  UNL1       -0.0070
      5 C          -2.4428   -2.0354   -0.2489 C.ar    1  UNL1       -0.0170
      6 C          -2.1372   -3.0550    0.6415 C.ar    1  UNL1       -0.0540
      7 C          -2.4176   -4.3483    0.2699 C.ar    1  UNL1       -0.0612
      8 C          -2.9884   -4.6644   -0.9499 C.ar    1  UNL1       -0.0617
      9 C          -3.2713   -3.6178   -1.7956 C.ar    1  UNL1       -0.0612
     10 C          -3.0063   -2.3056   -1.4639 C.ar    1  UNL1       -0.0540
     11 C          -0.7046   -0.3721    0.5390 C.ar    1  UNL1       -0.0168
     12 C          -0.2493   -0.1849    1.8036 C.ar    1  UNL1       -0.0506
     13 C           1.0439    0.1513    2.1202 C.ar    1  UNL1       -0.0194
     14 C           1.9764    0.3152    1.0734 C.ar    1  UNL1        0.1206
     15 O           3.2251    0.6478    1.4744 O.3     1  UNL1       -0.4907
     16 C           4.4268    0.8941    0.8836 C.3     1  UNL1        0.1022
     17 C           4.9667   -0.3118    0.1646 C.3     1  UNL1        0.0325
     18 N           6.2358   -0.0346   -0.4502 N.3     1  UNL1       -0.3051
     19 C           6.7329   -1.1424   -1.1821 C.3     1  UNL1       -0.0129
     20 C           6.3172    1.2136   -1.1272 C.3     1  UNL1       -0.0129
     21 C           1.5350    0.1277   -0.2164 C.ar    1  UNL1       -0.0194
     22 C           0.2147   -0.2109   -0.4827 C.ar    1  UNL1       -0.0506
     23 C          -2.7388    1.6049    0.6034 C.ar    1  UNL1       -0.0213
     24 C          -2.7013    2.5841   -0.3592 C.ar    1  UNL1       -0.0543
     25 C          -2.4608    3.9212   -0.0087 C.ar    1  UNL1       -0.0612
     26 C          -2.2643    4.2352    1.3004 C.ar    1  UNL1       -0.0617
     27 C          -2.2974    3.2718    2.2819 C.ar    1  UNL1       -0.0612
     28 C          -2.5401    1.9443    1.9074 C.ar    1  UNL1       -0.0543
     29 H          -5.8865    0.2059   -1.7475 H       1  UNL1        0.0233
     30 H          -5.1361    1.7409   -1.0909 H       1  UNL1        0.0233
     31 H          -4.2184    0.6604   -2.2340 H       1  UNL1        0.0233
     32 H          -4.6362   -1.1451   -0.2596 H       1  UNL1        0.0311
     33 H          -5.0967    0.2650    0.6925 H       1  UNL1        0.0311
     34 H          -1.6975   -2.8166    1.5827 H       1  UNL1        0.0624
     35 H          -2.2057   -5.2055    0.9261 H       1  UNL1        0.0618
     36 H          -3.2003   -5.7103   -1.2145 H       1  UNL1        0.0618
     37 H          -3.7236   -3.7967   -2.7778 H       1  UNL1        0.0618
     38 H          -3.2196   -1.4877   -2.1325 H       1  UNL1        0.0624
     39 H          -0.9437   -0.3348    2.6347 H       1  UNL1        0.0625
     40 H           1.3305    0.2831    3.1346 H       1  UNL1        0.0654
     41 H           4.3033    1.7643    0.1783 H       1  UNL1        0.0709
     42 H           5.2146    1.2010    1.6496 H       1  UNL1        0.0709
     43 H           4.2318   -0.7145   -0.5123 H       1  UNL1        0.0460
     44 H           5.1985   -1.0590    0.9921 H       1  UNL1        0.0460
     45 H           6.1763   -2.0971   -1.0057 H       1  UNL1        0.0391
     46 H           7.8021   -1.3592   -0.9333 H       1  UNL1        0.0391
     47 H           6.6464   -0.9234   -2.2888 H       1  UNL1        0.0391
     48 H           6.3963    2.0798   -0.4314 H       1  UNL1        0.0391
     49 H           5.4493    1.4079   -1.7990 H       1  UNL1        0.0391
     50 H           7.2161    1.1858   -1.7904 H       1  UNL1        0.0391
     51 H           2.2375    0.2627   -1.0319 H       1  UNL1        0.0654
     52 H          -0.0749   -0.3488   -1.5141 H       1  UNL1        0.0625
     53 H          -2.8441    2.4241   -1.4142 H       1  UNL1        0.0624
     54 H          -2.4335    4.6901   -0.7806 H       1  UNL1        0.0618
     55 H          -2.0706    5.2656    1.6260 H       1  UNL1        0.0618
     56 H          -2.1426    3.5003    3.3325 H       1  UNL1        0.0618
     57 H          -2.5852    1.2344    2.7061 H       1  UNL1        0.0624
@<TRIPOS>BOND
     1     1     2    1
     2     2     3    1
     3     3     4    2
     4     4     5    1
     5     5     6   ar
     6     6     7   ar
     7     7     8   ar
     8     8     9   ar
     9     9    10   ar
    10     4    11    1
    11    11    12   ar
    12    12    13   ar
    13    13    14   ar
    14    14    15    1
    15    15    16    1
    16    16    17    1
    17    17    18    1
    18    18    19    1
    19    18    20    1
    20    14    21   ar
    21    21    22   ar
    22     3    23    1
    23    23    24   ar
    24    24    25   ar
    25    25    26   ar
    26    26    27   ar
    27    27    28   ar
    28    10     5   ar
    29    22    11   ar
    30    28    23   ar
    31     1    29    1
    32     1    30    1
    33     1    31    1
    34     2    32    1
    35     2    33    1
    36     6    34    1
    37     7    35    1
    38     8    36    1
    39     9    37    1
    40    10    38    1
    41    12    39    1
    42    13    40    1
    43    16    41    1
    44    16    42    1
    45    17    43    1
    46    17    44    1
    47    19    45    1
    48    19    46    1
    49    19    47    1
    50    20    48    1
    51    20    49    1
    52    20    50    1
    53    21    51    1
    54    22    52    1
    55    24    53    1
    56    25    54    1
    57    26    55    1
    58    27    56    1
    59    28    57    1
