@<TRIPOS>MOLECULE
*****
 55 58 0 0 0
SMALL
GASTEIGER

@<TRIPOS>ATOM
      1 C           8.3928   -1.6610   -0.2767 C.3     1  UNL1        0.0183
      2 N           8.1219   -0.2902   -0.6670 N.ar    1  UNL1       -0.2772
      3 C           9.0517    0.5939   -1.0745 C.ar    1  UNL1        0.4210
      4 O          10.2924    0.4303   -1.1984 O.2     1  UNL1       -0.2226
      5 O           8.4155    1.7224   -1.3377 O.2     1  UNL1       -0.4074
      6 C           7.1282    1.5792   -1.1115 C.ar    1  UNL1        0.1570
      7 C           6.0347    2.3954   -1.2135 C.ar    1  UNL1       -0.0165
      8 C           4.7446    2.0082   -0.9100 C.ar    1  UNL1       -0.0504
      9 C           4.5190    0.6963   -0.4672 C.ar    1  UNL1       -0.0157
     10 C           3.1531    0.3360   -0.1462 C.ar    1  UNL1       -0.0178
     11 C           2.2545    1.2820    0.3482 C.ar    1  UNL1       -0.0538
     12 C           0.9654    0.9382    0.6808 C.ar    1  UNL1       -0.0579
     13 C           0.4920   -0.3593    0.5449 C.ar    1  UNL1       -0.0446
     14 C          -0.8754   -0.7052    0.9223 C.3     1  UNL1        0.0041
     15 C          -1.8981   -0.6037   -0.1994 C.3     1  UNL1        0.1142
     16 C          -1.5705   -1.4509   -1.2355 C.1     1  UNL1        0.0852
     17 N          -1.2965   -2.2113   -2.1725 N.1     1  UNL1       -0.1946
     18 N          -3.1713   -0.9583    0.4610 N.am    1  UNL1       -0.2974
     19 C          -4.1148    0.0333    0.8140 C.2     1  UNL1        0.2441
     20 O          -3.8231    1.2117    0.5339 O.2     1  UNL1       -0.2729
     21 C          -5.3828   -0.3175    1.4876 C.3     1  UNL1        0.1466
     22 C          -6.0925   -1.4807    0.8187 C.3     1  UNL1        0.0308
     23 N          -6.8058   -1.1368   -0.3685 N.3     1  UNL1       -0.3130
     24 C          -7.7691   -0.0597   -0.1647 C.3     1  UNL1       -0.0019
     25 C          -7.0084    1.2349   -0.3479 C.3     1  UNL1       -0.0169
     26 C          -6.5479    1.6830    1.0216 C.3     1  UNL1        0.0499
     27 O          -6.1979    0.6846    1.8471 O.3     1  UNL1       -0.3660
     28 C           1.3635   -1.3131    0.0562 C.ar    1  UNL1       -0.0579
     29 C           2.6514   -0.9394   -0.2696 C.ar    1  UNL1       -0.0538
     30 C           5.6103   -0.1141   -0.3675 C.ar    1  UNL1       -0.0267
     31 C           6.9029    0.2698   -0.6692 C.ar    1  UNL1        0.0904
     32 H           9.4403   -1.9350   -0.5181 H       1  UNL1        0.0458
     33 H           8.1952   -1.7630    0.7955 H       1  UNL1        0.0458
     34 H           7.7216   -2.3040   -0.8735 H       1  UNL1        0.0458
     35 H           6.2409    3.4200   -1.5616 H       1  UNL1        0.0655
     36 H           3.9205    2.6946   -1.0116 H       1  UNL1        0.0625
     37 H           2.6090    2.2949    0.4616 H       1  UNL1        0.0624
     38 H           0.2962    1.7221    1.0647 H       1  UNL1        0.0620
     39 H          -1.2192    0.0924    1.6648 H       1  UNL1        0.0341
     40 H          -0.8956   -1.6453    1.4682 H       1  UNL1        0.0341
     41 H          -1.9692    0.4868   -0.4334 H       1  UNL1        0.0660
     42 H          -3.3687   -1.9467    0.6656 H       1  UNL1        0.1500
     43 H          -5.0392   -0.7914    2.4889 H       1  UNL1        0.0706
     44 H          -5.4010   -2.2983    0.5812 H       1  UNL1        0.0454
     45 H          -6.8268   -1.8599    1.5748 H       1  UNL1        0.0454
     46 H          -7.3630   -1.9732   -0.6423 H       1  UNL1        0.1220
     47 H          -8.6256   -0.1494   -0.8732 H       1  UNL1        0.0425
     48 H          -8.1973   -0.0602    0.8432 H       1  UNL1        0.0425
     49 H          -6.1171    1.0452   -0.9912 H       1  UNL1        0.0300
     50 H          -7.6391    2.0045   -0.8455 H       1  UNL1        0.0300
     51 H          -7.4196    2.2792    1.4462 H       1  UNL1        0.0560
     52 H          -5.6941    2.4004    0.8743 H       1  UNL1        0.0560
     53 H           1.0463   -2.3597   -0.0732 H       1  UNL1        0.0620
     54 H           3.3265   -1.7251   -0.6545 H       1  UNL1        0.0624
     55 H           5.4391   -1.1269   -0.0268 H       1  UNL1        0.0645
@<TRIPOS>BOND
     1     1     2    1
     2     2     3   ar
     3     3     4    2
     4     3     5   ar
     5     5     6   ar
     6     6     7   ar
     7     7     8   ar
     8     8     9   ar
     9     9    10    1
    10    10    11   ar
    11    11    12   ar
    12    12    13   ar
    13    13    14    1
    14    14    15    1
    15    15    16    1
    16    16    17    3
    17    15    18    1
    18    18    19   am
    19    19    20    2
    20    19    21    1
    21    21    22    1
    22    22    23    1
    23    23    24    1
    24    24    25    1
    25    25    26    1
    26    26    27    1
    27    13    28   ar
    28    28    29   ar
    29     9    30   ar
    30    30    31   ar
    31    31     2   ar
    32    31     6   ar
    33    29    10   ar
    34    27    21    1
    35     1    32    1
    36     1    33    1
    37     1    34    1
    38     7    35    1
    39     8    36    1
    40    11    37    1
    41    12    38    1
    42    14    39    1
    43    14    40    1
    44    15    41    1
    45    18    42    1
    46    21    43    1
    47    22    44    1
    48    22    45    1
    49    23    46    1
    50    24    47    1
    51    24    48    1
    52    25    49    1
    53    25    50    1
    54    26    51    1
    55    26    52    1
    56    28    53    1
    57    29    54    1
    58    30    55    1
