
     RDKit          3D

 55 58  0  0  0  0  0  0  0  0999 V2000
    8.3928   -1.6610   -0.2767 C   0  0  0  0  0  0  0  0  0  0  0  0
    8.1219   -0.2902   -0.6670 N   0  0  0  0  0  0  0  0  0  0  0  0
    9.0517    0.5939   -1.0745 C   0  0  0  0  0  0  0  0  0  0  0  0
   10.2924    0.4303   -1.1984 O   0  0  0  0  0  0  0  0  0  0  0  0
    8.4155    1.7224   -1.3377 O   0  0  0  0  0  0  0  0  0  0  0  0
    7.1282    1.5792   -1.1115 C   0  0  0  0  0  0  0  0  0  0  0  0
    6.0347    2.3954   -1.2135 C   0  0  0  0  0  0  0  0  0  0  0  0
    4.7446    2.0082   -0.9100 C   0  0  0  0  0  0  0  0  0  0  0  0
    4.5190    0.6963   -0.4672 C   0  0  0  0  0  0  0  0  0  0  0  0
    3.1531    0.3360   -0.1462 C   0  0  0  0  0  0  0  0  0  0  0  0
    2.2545    1.2820    0.3482 C   0  0  0  0  0  0  0  0  0  0  0  0
    0.9654    0.9382    0.6808 C   0  0  0  0  0  0  0  0  0  0  0  0
    0.4920   -0.3593    0.5449 C   0  0  0  0  0  0  0  0  0  0  0  0
   -0.8754   -0.7052    0.9223 C   0  0  0  0  0  0  0  0  0  0  0  0
   -1.8981   -0.6037   -0.1994 C   0  0  1  0  0  0  0  0  0  0  0  0
   -1.5705   -1.4509   -1.2355 C   0  0  0  0  0  0  0  0  0  0  0  0
   -1.2965   -2.2113   -2.1725 N   0  0  0  0  0  0  0  0  0  0  0  0
   -3.1713   -0.9583    0.4610 N   0  0  0  0  0  0  0  0  0  0  0  0
   -4.1148    0.0333    0.8140 C   0  0  0  0  0  0  0  0  0  0  0  0
   -3.8231    1.2117    0.5339 O   0  0  0  0  0  0  0  0  0  0  0  0
   -5.3828   -0.3175    1.4876 C   0  0  2  0  0  0  0  0  0  0  0  0
   -6.0925   -1.4807    0.8187 C   0  0  0  0  0  0  0  0  0  0  0  0
   -6.8058   -1.1368   -0.3685 N   0  0  0  0  0  0  0  0  0  0  0  0
   -7.7691   -0.0597   -0.1647 C   0  0  0  0  0  0  0  0  0  0  0  0
   -7.0084    1.2349   -0.3479 C   0  0  0  0  0  0  0  0  0  0  0  0
   -6.5479    1.6830    1.0216 C   0  0  0  0  0  0  0  0  0  0  0  0
   -6.1979    0.6846    1.8471 O   0  0  0  0  0  0  0  0  0  0  0  0
    1.3635   -1.3131    0.0562 C   0  0  0  0  0  0  0  0  0  0  0  0
    2.6514   -0.9394   -0.2696 C   0  0  0  0  0  0  0  0  0  0  0  0
    5.6103   -0.1141   -0.3675 C   0  0  0  0  0  0  0  0  0  0  0  0
    6.9029    0.2698   -0.6692 C   0  0  0  0  0  0  0  0  0  0  0  0
    9.4403   -1.9350   -0.5181 H   0  0  0  0  0  0  0  0  0  0  0  0
    8.1952   -1.7630    0.7955 H   0  0  0  0  0  0  0  0  0  0  0  0
    7.7216   -2.3040   -0.8735 H   0  0  0  0  0  0  0  0  0  0  0  0
    6.2409    3.4200   -1.5616 H   0  0  0  0  0  0  0  0  0  0  0  0
    3.9205    2.6946   -1.0116 H   0  0  0  0  0  0  0  0  0  0  0  0
    2.6090    2.2949    0.4616 H   0  0  0  0  0  0  0  0  0  0  0  0
    0.2962    1.7221    1.0647 H   0  0  0  0  0  0  0  0  0  0  0  0
   -1.2192    0.0924    1.6648 H   0  0  0  0  0  0  0  0  0  0  0  0
   -0.8956   -1.6453    1.4682 H   0  0  0  0  0  0  0  0  0  0  0  0
   -1.9692    0.4868   -0.4334 H   0  0  0  0  0  0  0  0  0  0  0  0
   -3.3687   -1.9467    0.6656 H   0  0  0  0  0  0  0  0  0  0  0  0
   -5.0392   -0.7914    2.4889 H   0  0  0  0  0  0  0  0  0  0  0  0
   -5.4010   -2.2983    0.5812 H   0  0  0  0  0  0  0  0  0  0  0  0
   -6.8268   -1.8599    1.5748 H   0  0  0  0  0  0  0  0  0  0  0  0
   -7.3630   -1.9732   -0.6423 H   0  0  0  0  0  0  0  0  0  0  0  0
   -8.6256   -0.1494   -0.8732 H   0  0  0  0  0  0  0  0  0  0  0  0
   -8.1973   -0.0602    0.8432 H   0  0  0  0  0  0  0  0  0  0  0  0
   -6.1171    1.0452   -0.9912 H   0  0  0  0  0  0  0  0  0  0  0  0
   -7.6391    2.0045   -0.8455 H   0  0  0  0  0  0  0  0  0  0  0  0
   -7.4196    2.2792    1.4462 H   0  0  0  0  0  0  0  0  0  0  0  0
   -5.6941    2.4004    0.8743 H   0  0  0  0  0  0  0  0  0  0  0  0
    1.0463   -2.3597   -0.0732 H   0  0  0  0  0  0  0  0  0  0  0  0
    3.3265   -1.7251   -0.6545 H   0  0  0  0  0  0  0  0  0  0  0  0
    5.4391   -1.1269   -0.0268 H   0  0  0  0  0  0  0  0  0  0  0  0
  1  2  1  0
  2  3  1  0
  3  4  2  0
  3  5  1  0
  5  6  1  0
  6  7  2  0
  7  8  1  0
  8  9  2  0
  9 10  1  0
 10 11  2  0
 11 12  1  0
 12 13  2  0
 13 14  1  0
 14 15  1  0
 15 16  1  0
 16 17  3  0
 15 18  1  0
 18 19  1  0
 19 20  2  0
 19 21  1  0
 21 22  1  0
 22 23  1  0
 23 24  1  0
 24 25  1  0
 25 26  1  0
 26 27  1  0
 13 28  1  0
 28 29  2  0
  9 30  1  0
 30 31  2  0
 31  2  1  0
 31  6  1  0
 29 10  1  0
 27 21  1  0
  1 32  1  0
  1 33  1  0
  1 34  1  0
  7 35  1  0
  8 36  1  0
 11 37  1  0
 12 38  1  0
 14 39  1  0
 14 40  1  0
 15 41  1  6
 18 42  1  0
 21 43  1  1
 22 44  1  0
 22 45  1  0
 23 46  1  0
 24 47  1  0
 24 48  1  0
 25 49  1  0
 25 50  1  0
 26 51  1  0
 26 52  1  0
 28 53  1  0
 29 54  1  0
 30 55  1  0
M  END
$$$$
