
     RDKit          3D

 60 65  0  0  0  0  0  0  0  0999 V2000
    7.8227   -1.7139    0.0450 C   0  0  0  0  0  0  0  0  0  0  0  0
    6.8017   -1.1739    0.9710 C   0  0  0  0  0  0  0  0  0  0  0  0
    7.0922   -0.9932    2.1851 O   0  0  0  0  0  0  0  0  0  0  0  0
    5.5051   -0.8629    0.4900 N   0  0  0  0  0  0  0  0  0  0  0  0
    4.2626   -0.3366    1.0401 C   0  0  0  0  0  0  0  0  0  0  0  0
    3.5435   -0.9924   -0.1134 C   0  0  0  0  0  0  0  0  0  0  0  0
    2.4639   -0.1960   -0.7206 C   0  0  0  0  0  0  0  0  0  0  0  0
    2.5918    0.6979   -1.7681 C   0  0  0  0  0  0  0  0  0  0  0  0
    1.3686    1.2470   -2.0508 N   0  0  0  0  0  0  0  0  0  0  0  0
    1.1288    2.2107   -3.1106 C   0  0  0  0  0  0  0  0  0  0  0  0
    0.4636    0.7286   -1.2066 C   0  0  0  0  0  0  0  0  0  0  0  0
    1.1281   -0.1609   -0.3956 C   0  0  0  0  0  0  0  0  0  0  0  0
    0.1035   -0.8616    0.4089 C   0  0  0  0  0  0  0  0  0  0  0  0
    0.3606   -1.7309    1.2727 O   0  0  0  0  0  0  0  0  0  0  0  0
   -1.2030   -0.3820    0.0353 N   0  0  0  0  0  0  0  0  0  0  0  0
   -2.4334   -1.0220    0.3450 C   0  0  0  0  0  0  0  0  0  0  0  0
   -2.5851   -2.0864    1.1957 C   0  0  0  0  0  0  0  0  0  0  0  0
   -3.7822   -2.7253    1.4449 C   0  0  0  0  0  0  0  0  0  0  0  0
   -3.8949   -3.8704    2.3719 C   0  0  0  0  0  0  0  0  0  0  0  0
   -4.8980   -2.2406    0.7776 C   0  0  0  0  0  0  0  0  0  0  0  0
   -6.1874   -2.6165    0.7858 N   0  0  0  0  0  0  0  0  0  0  0  0
   -6.8446   -1.8156   -0.0366 N   0  0  0  0  0  0  0  0  0  0  0  0
   -6.0129   -0.9341   -0.5741 C   0  0  0  0  0  0  0  0  0  0  0  0
   -6.2861    0.1617   -1.5518 C   0  0  0  0  0  0  0  0  0  0  0  0
   -4.7908   -1.1978   -0.0656 N   0  0  0  0  0  0  0  0  0  0  0  0
   -3.6067   -0.6014   -0.2825 C   0  0  0  0  0  0  0  0  0  0  0  0
   -0.9600    0.8230   -0.7210 C   0  0  0  0  0  0  0  0  0  0  0  0
   -0.9952    2.0266    0.1809 C   0  0  0  0  0  0  0  0  0  0  0  0
   -2.0574    2.3201    1.0043 C   0  0  0  0  0  0  0  0  0  0  0  0
   -2.0570    3.4358    1.8469 C   0  0  0  0  0  0  0  0  0  0  0  0
   -0.9866    4.2895    1.8855 C   0  0  0  0  0  0  0  0  0  0  0  0
   -0.9750    5.7040    2.9469 Cl  0  0  0  0  0  0  0  0  0  0  0  0
    0.0733    4.0094    1.0739 C   0  0  0  0  0  0  0  0  0  0  0  0
    0.0729    2.8919    0.2303 C   0  0  0  0  0  0  0  0  0  0  0  0
    4.8654   -0.9464   -0.7964 C   0  0  0  0  0  0  0  0  0  0  0  0
    7.4700   -1.5985   -1.0116 H   0  0  0  0  0  0  0  0  0  0  0  0
    7.9808   -2.7858    0.2796 H   0  0  0  0  0  0  0  0  0  0  0  0
    8.7574   -1.1447    0.2217 H   0  0  0  0  0  0  0  0  0  0  0  0
    3.9576   -0.7647    2.0079 H   0  0  0  0  0  0  0  0  0  0  0  0
    4.1588    0.7534    0.9795 H   0  0  0  0  0  0  0  0  0  0  0  0
    3.2703   -2.0434    0.1325 H   0  0  0  0  0  0  0  0  0  0  0  0
    3.5039    0.9391   -2.2940 H   0  0  0  0  0  0  0  0  0  0  0  0
    1.3636    3.2425   -2.8045 H   0  0  0  0  0  0  0  0  0  0  0  0
    1.8129    1.9245   -3.9488 H   0  0  0  0  0  0  0  0  0  0  0  0
    0.1000    2.1261   -3.5203 H   0  0  0  0  0  0  0  0  0  0  0  0
   -1.7311   -2.4715    1.7203 H   0  0  0  0  0  0  0  0  0  0  0  0
   -4.1446   -4.8187    1.8577 H   0  0  0  0  0  0  0  0  0  0  0  0
   -2.8908   -4.0340    2.8361 H   0  0  0  0  0  0  0  0  0  0  0  0
   -4.5894   -3.6468    3.2044 H   0  0  0  0  0  0  0  0  0  0  0  0
   -6.8891   -0.2412   -2.4148 H   0  0  0  0  0  0  0  0  0  0  0  0
   -5.3420    0.5442   -1.9817 H   0  0  0  0  0  0  0  0  0  0  0  0
   -6.9061    0.9687   -1.0840 H   0  0  0  0  0  0  0  0  0  0  0  0
   -3.5241    0.2389   -0.9629 H   0  0  0  0  0  0  0  0  0  0  0  0
   -1.6571    0.9606   -1.5401 H   0  0  0  0  0  0  0  0  0  0  0  0
   -2.9280    1.6958    1.0253 H   0  0  0  0  0  0  0  0  0  0  0  0
   -2.9043    3.6481    2.4872 H   0  0  0  0  0  0  0  0  0  0  0  0
    0.9217    4.6731    1.0947 H   0  0  0  0  0  0  0  0  0  0  0  0
    0.9660    2.7623   -0.3566 H   0  0  0  0  0  0  0  0  0  0  0  0
    5.0945   -1.9042   -1.3343 H   0  0  0  0  0  0  0  0  0  0  0  0
    5.0568   -0.1088   -1.4854 H   0  0  0  0  0  0  0  0  0  0  0  0
  1  2  1  0
  2  3  2  0
  2  4  1  0
  4  5  1  0
  5  6  1  0
  6  7  1  0
  7  8  2  0
  8  9  1  0
  9 10  1  0
  9 11  1  0
 11 12  2  0
 12 13  1  0
 13 14  2  0
 13 15  1  0
 15 16  1  0
 16 17  1  0
 17 18  2  0
 18 19  1  0
 18 20  1  0
 20 21  2  0
 21 22  1  0
 22 23  2  0
 23 24  1  0
 23 25  1  0
 25 26  1  0
 15 27  1  0
 27 28  1  0
 28 29  2  0
 29 30  1  0
 30 31  2  0
 31 32  1  0
 31 33  1  0
 33 34  2  0
  6 35  1  0
 35  4  1  0
 12  7  1  0
 26 16  2  0
 34 28  1  0
 27 11  1  0
 25 20  1  0
  1 36  1  0
  1 37  1  0
  1 38  1  0
  5 39  1  0
  5 40  1  0
  6 41  1  0
  8 42  1  0
 10 43  1  0
 10 44  1  0
 10 45  1  0
 17 46  1  0
 19 47  1  0
 19 48  1  0
 19 49  1  0
 24 50  1  0
 24 51  1  0
 24 52  1  0
 26 53  1  0
 27 54  1  0
 29 55  1  0
 30 56  1  0
 33 57  1  0
 34 58  1  0
 35 59  1  0
 35 60  1  0
M  END
$$$$
