@<TRIPOS>MOLECULE
*****
 60 65 0 0 0
SMALL
GASTEIGER

@<TRIPOS>ATOM
      1 C           7.8227   -1.7139    0.0450 C.3     1  UNL1        0.0124
      2 C           6.8017   -1.1739    0.9710 C.2     1  UNL1        0.2125
      3 O           7.0922   -0.9932    2.1851 O.2     1  UNL1       -0.2759
      4 N           5.5051   -0.8629    0.4900 N.am    1  UNL1       -0.3004
      5 C           4.2626   -0.3366    1.0401 C.3     1  UNL1        0.0230
      6 C           3.5435   -0.9924   -0.1134 C.3     1  UNL1        0.0178
      7 C           2.4639   -0.1960   -0.7206 C.ar    1  UNL1       -0.0114
      8 C           2.5918    0.6979   -1.7681 C.ar    1  UNL1        0.0089
      9 N           1.3686    1.2470   -2.0508 N.ar    1  UNL1       -0.3508
     10 C           1.1288    2.2107   -3.1106 C.3     1  UNL1        0.0117
     11 C           0.4636    0.7286   -1.2066 C.ar    1  UNL1        0.0565
     12 C           1.1281   -0.1609   -0.3956 C.ar    1  UNL1        0.0636
     13 C           0.1035   -0.8616    0.4089 C.2     1  UNL1        0.2538
     14 O           0.3606   -1.7309    1.2727 O.2     1  UNL1       -0.2695
     15 N          -1.2030   -0.3820    0.0353 N.am    1  UNL1       -0.2530
     16 C          -2.4334   -1.0220    0.3450 C.ar    1  UNL1        0.0545
     17 C          -2.5851   -2.0864    1.1957 C.ar    1  UNL1       -0.0324
     18 C          -3.7822   -2.7253    1.4449 C.ar    1  UNL1       -0.0041
     19 C          -3.8949   -3.8704    2.3719 C.3     1  UNL1       -0.0361
     20 C          -4.8980   -2.2406    0.7776 C.ar    1  UNL1        0.1641
     21 N          -6.1874   -2.6165    0.7858 N.ar    1  UNL1       -0.1292
     22 N          -6.8446   -1.8156   -0.0366 N.ar    1  UNL1       -0.1340
     23 C          -6.0129   -0.9341   -0.5741 C.ar    1  UNL1        0.1347
     24 C          -6.2861    0.1617   -1.5518 C.3     1  UNL1       -0.0041
     25 N          -4.7908   -1.1978   -0.0656 N.ar    1  UNL1       -0.2846
     26 C          -3.6067   -0.6014   -0.2825 C.ar    1  UNL1        0.0344
     27 C          -0.9600    0.8230   -0.7210 C.3     1  UNL1        0.0972
     28 C          -0.9952    2.0266    0.1809 C.ar    1  UNL1       -0.0208
     29 C          -2.0574    2.3201    1.0043 C.ar    1  UNL1       -0.0550
     30 C          -2.0570    3.4358    1.8469 C.ar    1  UNL1       -0.0431
     31 C          -0.9866    4.2895    1.8855 C.ar    1  UNL1        0.0410
     32 CL         -0.9750    5.7040    2.9469 Cl      1  UNL1       -0.0835
     33 C           0.0733    4.0094    1.0739 C.ar    1  UNL1       -0.0431
     34 C           0.0729    2.8919    0.2303 C.ar    1  UNL1       -0.0550
     35 C           4.8654   -0.9464   -0.7964 C.3     1  UNL1        0.0230
     36 H           7.4700   -1.5985   -1.0116 H       1  UNL1        0.0323
     37 H           7.9808   -2.7858    0.2796 H       1  UNL1        0.0323
     38 H           8.7574   -1.1447    0.2217 H       1  UNL1        0.0323
     39 H           3.9576   -0.7647    2.0079 H       1  UNL1        0.0471
     40 H           4.1588    0.7534    0.9795 H       1  UNL1        0.0471
     41 H           3.2703   -2.0434    0.1325 H       1  UNL1        0.0380
     42 H           3.5039    0.9391   -2.2940 H       1  UNL1        0.0812
     43 H           1.3636    3.2425   -2.8045 H       1  UNL1        0.0456
     44 H           1.8129    1.9245   -3.9488 H       1  UNL1        0.0456
     45 H           0.1000    2.1261   -3.5203 H       1  UNL1        0.0456
     46 H          -1.7311   -2.4715    1.7203 H       1  UNL1        0.0640
     47 H          -4.1446   -4.8187    1.8577 H       1  UNL1        0.0279
     48 H          -2.8908   -4.0340    2.8361 H       1  UNL1        0.0279
     49 H          -4.5894   -3.6468    3.2044 H       1  UNL1        0.0279
     50 H          -6.8891   -0.2412   -2.4148 H       1  UNL1        0.0308
     51 H          -5.3420    0.5442   -1.9817 H       1  UNL1        0.0308
     52 H          -6.9061    0.9687   -1.0840 H       1  UNL1        0.0308
     53 H          -3.5241    0.2389   -0.9629 H       1  UNL1        0.0833
     54 H          -1.6571    0.9606   -1.5401 H       1  UNL1        0.0619
     55 H          -2.9280    1.6958    1.0253 H       1  UNL1        0.0621
     56 H          -2.9043    3.6481    2.4872 H       1  UNL1        0.0632
     57 H           0.9217    4.6731    1.0947 H       1  UNL1        0.0632
     58 H           0.9660    2.7623   -0.3566 H       1  UNL1        0.0621
     59 H           5.0945   -1.9042   -1.3343 H       1  UNL1        0.0471
     60 H           5.0568   -0.1088   -1.4854 H       1  UNL1        0.0471
@<TRIPOS>BOND
     1     1     2    1
     2     2     3    2
     3     2     4   am
     4     4     5    1
     5     5     6    1
     6     6     7    1
     7     7     8   ar
     8     8     9   ar
     9     9    10    1
    10     9    11   ar
    11    11    12   ar
    12    12    13    1
    13    13    14    2
    14    13    15   am
    15    15    16    1
    16    16    17   ar
    17    17    18   ar
    18    18    19    1
    19    18    20   ar
    20    20    21   ar
    21    21    22   ar
    22    22    23   ar
    23    23    24    1
    24    23    25   ar
    25    25    26   ar
    26    15    27    1
    27    27    28    1
    28    28    29   ar
    29    29    30   ar
    30    30    31   ar
    31    31    32    1
    32    31    33   ar
    33    33    34   ar
    34     6    35    1
    35    35     4    1
    36    12     7   ar
    37    26    16   ar
    38    34    28   ar
    39    27    11    1
    40    25    20   ar
    41     1    36    1
    42     1    37    1
    43     1    38    1
    44     5    39    1
    45     5    40    1
    46     6    41    1
    47     8    42    1
    48    10    43    1
    49    10    44    1
    50    10    45    1
    51    17    46    1
    52    19    47    1
    53    19    48    1
    54    19    49    1
    55    24    50    1
    56    24    51    1
    57    24    52    1
    58    26    53    1
    59    27    54    1
    60    29    55    1
    61    30    56    1
    62    33    57    1
    63    34    58    1
    64    35    59    1
    65    35    60    1
