
     RDKit          3D

 78 82  0  0  0  0  0  0  0  0999 V2000
   -6.7748    2.0412    0.5768 C   0  0  0  0  0  0  0  0  0  0  0  0
   -6.1314    0.6755    0.8372 C   0  0  0  0  0  0  0  0  0  0  0  0
   -7.2328   -0.2966    1.2725 C   0  0  0  0  0  0  0  0  0  0  0  0
   -5.5593    0.1240   -0.4176 C   0  0  0  0  0  0  0  0  0  0  0  0
   -6.4201   -0.0288   -1.4333 N   0  0  0  0  0  0  0  0  0  0  0  0
   -5.6886   -0.5252   -2.4294 N   0  0  0  0  0  0  0  0  0  0  0  0
   -4.3930   -0.6688   -2.0091 C   0  0  0  0  0  0  0  0  0  0  0  0
   -3.3017   -1.1887   -2.8400 C   0  0  0  0  0  0  0  0  0  0  0  0
   -4.2773   -0.2565   -0.7101 N   0  0  0  0  0  0  0  0  0  0  0  0
   -3.1506   -0.2024    0.1761 C   0  0  1  0  0  0  0  0  0  0  0  0
   -2.5080   -1.5112    0.4879 C   0  0  0  0  0  0  0  0  0  0  0  0
   -1.3444   -1.2882    1.4288 C   0  0  2  0  0  0  0  0  0  0  0  0
   -1.7402   -0.5260    2.6806 C   0  0  0  0  0  0  0  0  0  0  0  0
   -1.5228    0.8821    2.2530 C   0  0  0  0  0  0  0  0  0  0  0  0
   -1.0497    0.8471    0.8446 C   0  0  2  0  0  0  0  0  0  0  0  0
   -2.1467    0.8522   -0.1989 C   0  0  0  0  0  0  0  0  0  0  0  0
   -0.3458   -0.4298    0.7584 N   0  0  0  0  0  0  0  0  0  0  0  0
    0.8287   -0.3238    1.5442 C   0  0  0  0  0  0  0  0  0  0  0  0
    1.8540   -1.4200    1.3970 C   0  0  0  0  0  0  0  0  0  0  0  0
    2.4558   -1.5476    0.0418 C   0  0  2  0  0  0  0  0  0  0  0  0
    3.0930   -0.2590   -0.2867 N   0  0  0  0  0  0  0  0  0  0  0  0
    4.5131   -0.1618   -0.5073 C   0  0  0  0  0  0  0  0  0  0  0  0
    5.2969   -1.1445   -0.4399 O   0  0  0  0  0  0  0  0  0  0  0  0
    4.9363    1.2521   -0.8269 C   0  0  0  0  0  0  0  0  0  0  0  0
    6.3843    1.3543   -1.1517 C   0  0  0  0  0  0  0  0  0  0  0  0
    7.2915    1.4804    0.0409 C   0  0  0  0  0  0  0  0  0  0  0  0
    7.0392    2.7750    0.7733 C   0  0  0  0  0  0  0  0  0  0  0  0
    7.7762    3.8144    0.2341 F   0  0  0  0  0  0  0  0  0  0  0  0
    7.4257    2.6494    2.1054 F   0  0  0  0  0  0  0  0  0  0  0  0
    5.5804    3.1948    0.6446 C   0  0  0  0  0  0  0  0  0  0  0  0
    4.6875    1.9990    0.4898 C   0  0  0  0  0  0  0  0  0  0  0  0
    1.6466   -2.0239   -1.0498 C   0  0  0  0  0  0  0  0  0  0  0  0
    0.5162   -2.7965   -1.1251 C   0  0  0  0  0  0  0  0  0  0  0  0
   -0.1624   -3.1496   -2.2617 C   0  0  0  0  0  0  0  0  0  0  0  0
    0.3216   -2.6939   -3.4695 C   0  0  0  0  0  0  0  0  0  0  0  0
    1.4570   -1.9090   -3.4916 C   0  0  0  0  0  0  0  0  0  0  0  0
    2.0916   -1.5912   -2.3061 C   0  0  0  0  0  0  0  0  0  0  0  0
   -7.8783    1.9262    0.5526 H   0  0  0  0  0  0  0  0  0  0  0  0
   -6.5105    2.7486    1.4147 H   0  0  0  0  0  0  0  0  0  0  0  0
   -6.4063    2.3878   -0.4005 H   0  0  0  0  0  0  0  0  0  0  0  0
   -5.4266    0.7544    1.6563 H   0  0  0  0  0  0  0  0  0  0  0  0
   -8.1688    0.0458    0.7864 H   0  0  0  0  0  0  0  0  0  0  0  0
   -7.3920   -0.2603    2.3665 H   0  0  0  0  0  0  0  0  0  0  0  0
   -6.9732   -1.3069    0.9330 H   0  0  0  0  0  0  0  0  0  0  0  0
   -2.9654   -2.2237   -2.5681 H   0  0  0  0  0  0  0  0  0  0  0  0
   -3.7184   -1.3401   -3.8852 H   0  0  0  0  0  0  0  0  0  0  0  0
   -2.4594   -0.4897   -3.0096 H   0  0  0  0  0  0  0  0  0  0  0  0
   -3.5555    0.1602    1.1737 H   0  0  0  0  0  0  0  0  0  0  0  0
   -3.2582   -2.1039    1.0927 H   0  0  0  0  0  0  0  0  0  0  0  0
   -2.1386   -2.0824   -0.3639 H   0  0  0  0  0  0  0  0  0  0  0  0
   -0.8936   -2.2682    1.6913 H   0  0  0  0  0  0  0  0  0  0  0  0
   -2.7846   -0.7489    2.9821 H   0  0  0  0  0  0  0  0  0  0  0  0
   -1.1222   -0.8510    3.5409 H   0  0  0  0  0  0  0  0  0  0  0  0
   -0.6927    1.3422    2.8571 H   0  0  0  0  0  0  0  0  0  0  0  0
   -2.3960    1.5467    2.4285 H   0  0  0  0  0  0  0  0  0  0  0  0
   -0.3106    1.6479    0.6076 H   0  0  0  0  0  0  0  0  0  0  0  0
   -2.6396    1.8588   -0.1647 H   0  0  0  0  0  0  0  0  0  0  0  0
   -1.6411    0.7007   -1.1608 H   0  0  0  0  0  0  0  0  0  0  0  0
    0.5797   -0.2280    2.6461 H   0  0  0  0  0  0  0  0  0  0  0  0
    1.3401    0.6543    1.3366 H   0  0  0  0  0  0  0  0  0  0  0  0
    2.6573   -1.1710    2.1321 H   0  0  0  0  0  0  0  0  0  0  0  0
    1.4573   -2.3957    1.7893 H   0  0  0  0  0  0  0  0  0  0  0  0
    3.3007   -2.3036    0.1379 H   0  0  0  0  0  0  0  0  0  0  0  0
    2.4401    0.5296   -0.3421 H   0  0  0  0  0  0  0  0  0  0  0  0
    4.3031    1.7036   -1.6050 H   0  0  0  0  0  0  0  0  0  0  0  0
    6.7772    0.5217   -1.7638 H   0  0  0  0  0  0  0  0  0  0  0  0
    6.5104    2.3204   -1.7243 H   0  0  0  0  0  0  0  0  0  0  0  0
    7.1900    0.6429    0.7711 H   0  0  0  0  0  0  0  0  0  0  0  0
    8.3395    1.5197   -0.3429 H   0  0  0  0  0  0  0  0  0  0  0  0
    5.4117    3.9996   -0.0705 H   0  0  0  0  0  0  0  0  0  0  0  0
    5.3254    3.6209    1.6567 H   0  0  0  0  0  0  0  0  0  0  0  0
    3.6309    2.2726    0.6259 H   0  0  0  0  0  0  0  0  0  0  0  0
    4.9484    1.3170    1.3514 H   0  0  0  0  0  0  0  0  0  0  0  0
    0.1815   -3.1420   -0.1655 H   0  0  0  0  0  0  0  0  0  0  0  0
   -1.0401   -3.7668   -2.1371 H   0  0  0  0  0  0  0  0  0  0  0  0
   -0.2550   -3.0048   -4.3336 H   0  0  0  0  0  0  0  0  0  0  0  0
    1.8052   -1.5716   -4.4541 H   0  0  0  0  0  0  0  0  0  0  0  0
    2.9821   -0.9612   -2.4573 H   0  0  0  0  0  0  0  0  0  0  0  0
  1  2  1  0
  2  3  1  0
  2  4  1  0
  4  5  2  0
  5  6  1  0
  6  7  2  0
  7  8  1  0
  7  9  1  0
  9 10  1  0
 10 11  1  0
 11 12  1  0
 12 13  1  0
 13 14  1  0
 14 15  1  0
 15 16  1  0
 15 17  1  0
 17 18  1  0
 18 19  1  0
 19 20  1  0
 20 21  1  0
 21 22  1  0
 22 23  2  0
 22 24  1  0
 24 25  1  0
 25 26  1  0
 26 27  1  0
 27 28  1  0
 27 29  1  0
 27 30  1  0
 30 31  1  0
 20 32  1  0
 32 33  2  0
 33 34  1  0
 34 35  2  0
 35 36  1  0
 36 37  2  0
  9  4  1  0
 16 10  1  0
 31 24  1  0
 37 32  1  0
 17 12  1  0
  1 38  1  0
  1 39  1  0
  1 40  1  0
  2 41  1  0
  3 42  1  0
  3 43  1  0
  3 44  1  0
  8 45  1  0
  8 46  1  0
  8 47  1  0
 10 48  1  1
 11 49  1  0
 11 50  1  0
 12 51  1  1
 13 52  1  0
 13 53  1  0
 14 54  1  0
 14 55  1  0
 15 56  1  6
 16 57  1  0
 16 58  1  0
 18 59  1  0
 18 60  1  0
 19 61  1  0
 19 62  1  0
 20 63  1  1
 21 64  1  0
 24 65  1  0
 25 66  1  0
 25 67  1  0
 26 68  1  0
 26 69  1  0
 30 70  1  0
 30 71  1  0
 31 72  1  0
 31 73  1  0
 33 74  1  0
 34 75  1  0
 35 76  1  0
 36 77  1  0
 37 78  1  0
M  END
$$$$
