@<TRIPOS>MOLECULE
*****
 68 72 0 0 0
SMALL
GASTEIGER

@<TRIPOS>ATOM
      1 C          -4.1687    2.9336    3.7128 C.3     1  UNL1       -0.0653
      2 C          -3.5145    1.6156    3.3655 C.3     1  UNL1       -0.0556
      3 C          -1.9979    1.7557    3.3484 C.3     1  UNL1       -0.0478
      4 C          -1.3406    0.4384    3.0097 C.3     1  UNL1       -0.0084
      5 C          -1.7875   -0.0118    1.6695 C.ar    1  UNL1        0.0677
      6 N          -2.7684   -0.9543    1.4862 N.ar    1  UNL1       -0.1703
      7 N          -2.9842   -1.1564    0.2050 N.ar    1  UNL1       -0.2238
      8 C          -3.9419   -2.0778   -0.3567 C.ar    1  UNL1        0.0846
      9 C          -3.5599   -3.3080   -0.8408 C.ar    1  UNL1       -0.0334
     10 C          -4.4561   -4.1868   -1.3666 C.ar    1  UNL1       -0.0413
     11 C          -5.7949   -3.8022   -1.4025 C.ar    1  UNL1        0.0425
     12 CL         -6.9336   -4.9338   -2.0759 Cl      1  UNL1       -0.0835
     13 C          -6.1962   -2.5806   -0.9254 C.ar    1  UNL1       -0.0230
     14 C          -5.2687   -1.7230   -0.4046 C.ar    1  UNL1        0.0677
     15 CL         -5.8413   -0.1735    0.1918 Cl      1  UNL1       -0.0813
     16 C          -2.1726   -0.3735   -0.5243 C.ar    1  UNL1        0.1549
     17 C          -2.1129   -0.3091   -1.9750 C.2     1  UNL1        0.3581
     18 O          -2.9025   -1.0681   -2.6307 O.2     1  UNL1       -0.2432
     19 O          -1.2955    0.4829   -2.7242 O.3     1  UNL1       -0.4604
     20 C          -1.2554    0.5256   -4.1382 C.3     1  UNL1        0.0900
     21 C          -2.6298    0.9344   -4.6194 C.3     1  UNL1       -0.0306
     22 C          -1.4129    0.3524    0.4021 C.ar    1  UNL1        0.0123
     23 C          -0.3777    1.3263    0.0599 C.3     1  UNL1        0.0016
     24 C           1.0086    0.8696    0.1992 C.ar    1  UNL1       -0.0429
     25 C           1.6250    0.0210   -0.7080 C.ar    1  UNL1       -0.0577
     26 C           2.9353   -0.3700   -0.5405 C.ar    1  UNL1       -0.0537
     27 C           3.7048    0.0511    0.5230 C.ar    1  UNL1       -0.0172
     28 C           5.0846   -0.3838    0.6980 C.ar    1  UNL1       -0.0072
     29 C           5.4220   -1.2104    1.7784 C.ar    1  UNL1       -0.0534
     30 C           6.6971   -1.6543    1.9766 C.ar    1  UNL1       -0.0611
     31 C           7.7059   -1.2823    1.0858 C.ar    1  UNL1       -0.0611
     32 C           7.3662   -0.4746    0.0347 C.ar    1  UNL1       -0.0504
     33 C           6.0600   -0.0075   -0.1858 C.ar    1  UNL1        0.0282
     34 C           5.7647    0.8602   -1.3008 C.ar    1  UNL1        0.1799
     35 N           4.6328    1.4648   -1.6440 N.ar    1  UNL1       -0.1084
     36 N           4.7997    2.1874   -2.7421 N.ar    1  UNL1       -0.0229
     37 N           6.0631    2.0433   -3.1104 N.ar    1  UNL1       -0.0464
     38 N           6.6702    1.2301   -2.2340 N.ar    1  UNL1       -0.2388
     39 C           3.0987    0.8948    1.4274 C.ar    1  UNL1       -0.0537
     40 C           1.7909    1.2829    1.2575 C.ar    1  UNL1       -0.0577
     41 H          -3.3884    3.5536    4.2333 H       1  UNL1        0.0230
     42 H          -4.9694    2.7896    4.4661 H       1  UNL1        0.0230
     43 H          -4.5507    3.4695    2.8264 H       1  UNL1        0.0230
     44 H          -3.8089    0.8579    4.1084 H       1  UNL1        0.0263
     45 H          -3.9094    1.2804    2.3762 H       1  UNL1        0.0263
     46 H          -1.7336    2.5839    2.7093 H       1  UNL1        0.0269
     47 H          -1.7347    2.0744    4.3986 H       1  UNL1        0.0269
     48 H          -0.2560    0.5790    3.0852 H       1  UNL1        0.0329
     49 H          -1.6503   -0.3490    3.7428 H       1  UNL1        0.0329
     50 H          -2.4890   -3.5791   -0.7967 H       1  UNL1        0.0640
     51 H          -4.1272   -5.1489   -1.7399 H       1  UNL1        0.0633
     52 H          -7.2310   -2.3021   -0.9611 H       1  UNL1        0.0647
     53 H          -0.4761    1.2293   -4.5027 H       1  UNL1        0.0695
     54 H          -1.0548   -0.4942   -4.5443 H       1  UNL1        0.0695
     55 H          -2.5655    1.5455   -5.5576 H       1  UNL1        0.0262
     56 H          -3.2191    0.0134   -4.7739 H       1  UNL1        0.0262
     57 H          -3.1270    1.5392   -3.8157 H       1  UNL1        0.0262
     58 H          -0.4737    1.7145   -0.9869 H       1  UNL1        0.0363
     59 H          -0.4995    2.2121    0.7503 H       1  UNL1        0.0363
     60 H           1.0336   -0.3150   -1.5451 H       1  UNL1        0.0621
     61 H           3.4038   -1.0410   -1.2723 H       1  UNL1        0.0624
     62 H           4.6318   -1.4830    2.4478 H       1  UNL1        0.0624
     63 H           6.8849   -2.2920    2.8351 H       1  UNL1        0.0618
     64 H           8.7010   -1.6487    1.2695 H       1  UNL1        0.0618
     65 H           8.1441   -0.1739   -0.6712 H       1  UNL1        0.0625
     66 H           7.6705    0.9796   -2.3334 H       1  UNL1        0.1923
     67 H           3.7223    1.2188    2.2645 H       1  UNL1        0.0624
     68 H           1.3565    1.9580    2.0056 H       1  UNL1        0.0621
@<TRIPOS>BOND
     1     1     2    1
     2     2     3    1
     3     3     4    1
     4     4     5    1
     5     5     6   ar
     6     6     7   ar
     7     7     8    1
     8     8     9   ar
     9     9    10   ar
    10    10    11   ar
    11    11    12    1
    12    11    13   ar
    13    13    14   ar
    14    14    15    1
    15     7    16   ar
    16    16    17    1
    17    17    18    2
    18    17    19    1
    19    19    20    1
    20    20    21    1
    21    16    22   ar
    22    22    23    1
    23    23    24    1
    24    24    25   ar
    25    25    26   ar
    26    26    27   ar
    27    27    28    1
    28    28    29   ar
    29    29    30   ar
    30    30    31   ar
    31    31    32   ar
    32    32    33   ar
    33    33    34    1
    34    34    35   ar
    35    35    36   ar
    36    36    37   ar
    37    37    38   ar
    38    27    39   ar
    39    39    40   ar
    40    22     5   ar
    41    40    24   ar
    42    14     8   ar
    43    33    28   ar
    44    38    34   ar
    45     1    41    1
    46     1    42    1
    47     1    43    1
    48     2    44    1
    49     2    45    1
    50     3    46    1
    51     3    47    1
    52     4    48    1
    53     4    49    1
    54     9    50    1
    55    10    51    1
    56    13    52    1
    57    20    53    1
    58    20    54    1
    59    21    55    1
    60    21    56    1
    61    21    57    1
    62    23    58    1
    63    23    59    1
    64    25    60    1
    65    26    61    1
    66    29    62    1
    67    30    63    1
    68    31    64    1
    69    32    65    1
    70    38    66    1
    71    39    67    1
    72    40    68    1
