@<TRIPOS>MOLECULE
*****
 67 71 0 0 0
SMALL
GASTEIGER

@<TRIPOS>ATOM
      1 C          -8.9079   -1.8550    2.9051 C.3     1  UNL1        0.0805
      2 O          -7.8492   -1.9835    1.9590 O.3     1  UNL1       -0.4774
      3 C          -7.6618   -0.9614    1.0133 C.ar    1  UNL1        0.2552
      4 N          -8.3951    0.1557    0.9002 N.ar    1  UNL1       -0.1317
      5 N          -7.9800    0.9186   -0.0768 N.ar    1  UNL1       -0.2692
      6 C          -8.5285    2.2075   -0.5051 C.3     1  UNL1        0.0304
      7 C          -6.9240    0.3002   -0.6521 C.ar    1  UNL1        0.0503
      8 C          -6.7063   -0.8903    0.0223 C.ar    1  UNL1        0.1152
      9 N          -5.7224   -1.8771   -0.2346 N.pl3   1  UNL1       -0.2782
     10 C          -4.7603   -1.6496   -1.2905 C.ar    1  UNL1        0.2203
     11 N          -5.1197   -1.8006   -2.5751 N.ar    1  UNL1       -0.2198
     12 C          -4.2435   -1.6111   -3.5583 C.ar    1  UNL1        0.0685
     13 C          -2.9439   -1.2532   -3.2355 C.ar    1  UNL1        0.1674
     14 F          -2.0854   -1.0689   -4.2772 F       1  UNL1       -0.2016
     15 C          -2.5593   -1.0955   -1.9395 C.ar    1  UNL1        0.1132
     16 C          -1.2012   -0.7419   -1.5748 C.ar    1  UNL1        0.0284
     17 C          -0.1774   -0.4767   -2.4499 C.ar    1  UNL1        0.0121
     18 N           0.9214   -0.1871   -1.6929 N.ar    1  UNL1       -0.3586
     19 C           0.6330   -0.2589   -0.3853 C.ar    1  UNL1        0.0686
     20 C           1.4033   -0.0620    0.7421 C.ar    1  UNL1        0.0576
     21 N           2.7585    0.3060    0.6192 N.am    1  UNL1       -0.2825
     22 C           3.0945    1.6826    0.6646 C.2     1  UNL1        0.2342
     23 O           2.1508    2.5379    0.8221 O.2     1  UNL1       -0.2738
     24 C           4.4369    2.2544    0.5467 C.3     1  UNL1        0.0848
     25 C           4.6184    3.1653    1.7739 C.3     1  UNL1       -0.0409
     26 N           5.5179    1.3962    0.3536 N.3     1  UNL1       -0.2893
     27 C           5.9375    0.5106    1.3510 C.3     1  UNL1        0.0124
     28 C           6.5718   -0.7620    0.9023 C.3     1  UNL1        0.0114
     29 N           7.2994   -0.6980   -0.3259 N.3     1  UNL1       -0.3029
     30 C           8.5757   -1.3652   -0.3132 C.3     1  UNL1       -0.0127
     31 C           7.3321    0.5939   -0.9431 C.3     1  UNL1        0.0114
     32 C           5.8964    1.1062   -0.9861 C.3     1  UNL1        0.0124
     33 C           0.8281   -0.2168    1.9808 C.ar    1  UNL1       -0.0384
     34 C          -0.5095   -0.5662    2.1220 C.ar    1  UNL1       -0.0593
     35 C          -1.2496   -0.7549    0.9629 C.ar    1  UNL1       -0.0518
     36 C          -0.7095   -0.6095   -0.2902 C.ar    1  UNL1        0.0107
     37 N          -3.5089   -1.3050   -0.9862 N.ar    1  UNL1       -0.2113
     38 H          -8.7912   -0.9664    3.5415 H       1  UNL1        0.0660
     39 H          -9.8372   -1.6981    2.2935 H       1  UNL1        0.0660
     40 H          -9.0129   -2.7458    3.5345 H       1  UNL1        0.0660
     41 H          -9.1508    2.6199    0.3064 H       1  UNL1        0.0473
     42 H          -9.2084    2.0102   -1.3813 H       1  UNL1        0.0473
     43 H          -7.7161    2.8902   -0.8371 H       1  UNL1        0.0473
     44 H          -6.3242    0.6364   -1.4917 H       1  UNL1        0.0846
     45 H          -5.6724   -2.7559    0.3111 H       1  UNL1        0.1552
     46 H          -4.5230   -1.7315   -4.6076 H       1  UNL1        0.0861
     47 H          -0.1276   -0.4686   -3.5302 H       1  UNL1        0.0814
     48 H           1.8489    0.0540   -2.1069 H       1  UNL1        0.1654
     49 H           3.5257   -0.3838    0.4907 H       1  UNL1        0.1549
     50 H           4.4043    2.9819   -0.3124 H       1  UNL1        0.0556
     51 H           5.1015    2.6071    2.5995 H       1  UNL1        0.0249
     52 H           3.6240    3.4776    2.1445 H       1  UNL1        0.0249
     53 H           5.1519    4.0946    1.4980 H       1  UNL1        0.0249
     54 H           6.7223    1.0480    1.9737 H       1  UNL1        0.0439
     55 H           5.1347    0.2847    2.0749 H       1  UNL1        0.0439
     56 H           5.8292   -1.5995    0.8589 H       1  UNL1        0.0439
     57 H           7.3062   -1.1074    1.6878 H       1  UNL1        0.0439
     58 H           9.2980   -0.7503   -0.9128 H       1  UNL1        0.0391
     59 H           8.4413   -2.3316   -0.8820 H       1  UNL1        0.0391
     60 H           8.9492   -1.5508    0.7105 H       1  UNL1        0.0391
     61 H           7.6652    0.4484   -1.9960 H       1  UNL1        0.0439
     62 H           7.9821    1.3254   -0.4105 H       1  UNL1        0.0439
     63 H           5.8150    2.0153   -1.6139 H       1  UNL1        0.0439
     64 H           5.2533    0.3137   -1.4152 H       1  UNL1        0.0439
     65 H           1.3931   -0.0707    2.8956 H       1  UNL1        0.0637
     66 H          -1.0062   -0.6997    3.0696 H       1  UNL1        0.0618
     67 H          -2.3081   -1.0320    1.0659 H       1  UNL1        0.0624
@<TRIPOS>BOND
     1     1     2    1
     2     2     3    1
     3     3     4   ar
     4     4     5   ar
     5     5     6    1
     6     5     7   ar
     7     7     8   ar
     8     8     9    1
     9     9    10    1
    10    10    11   ar
    11    11    12   ar
    12    12    13   ar
    13    13    14    1
    14    13    15   ar
    15    15    16    1
    16    16    17   ar
    17    17    18   ar
    18    18    19   ar
    19    19    20   ar
    20    20    21    1
    21    21    22   am
    22    22    23    2
    23    22    24    1
    24    24    25    1
    25    24    26    1
    26    26    27    1
    27    27    28    1
    28    28    29    1
    29    29    30    1
    30    29    31    1
    31    31    32    1
    32    20    33   ar
    33    33    34   ar
    34    34    35   ar
    35    35    36   ar
    36    15    37   ar
    37     8     3   ar
    38    37    10   ar
    39    36    16   ar
    40    36    19   ar
    41    32    26    1
    42     1    38    1
    43     1    39    1
    44     1    40    1
    45     6    41    1
    46     6    42    1
    47     6    43    1
    48     7    44    1
    49     9    45    1
    50    12    46    1
    51    17    47    1
    52    18    48    1
    53    21    49    1
    54    24    50    1
    55    25    51    1
    56    25    52    1
    57    25    53    1
    58    27    54    1
    59    27    55    1
    60    28    56    1
    61    28    57    1
    62    30    58    1
    63    30    59    1
    64    30    60    1
    65    31    61    1
    66    31    62    1
    67    32    63    1
    68    32    64    1
    69    33    65    1
    70    34    66    1
    71    35    67    1
