
     RDKit          3D

 67 71  0  0  0  0  0  0  0  0999 V2000
   -8.9079   -1.8550    2.9051 C   0  0  0  0  0  0  0  0  0  0  0  0
   -7.8492   -1.9835    1.9590 O   0  0  0  0  0  0  0  0  0  0  0  0
   -7.6618   -0.9614    1.0133 C   0  0  0  0  0  0  0  0  0  0  0  0
   -8.3951    0.1557    0.9002 N   0  0  0  0  0  0  0  0  0  0  0  0
   -7.9800    0.9186   -0.0768 N   0  0  0  0  0  0  0  0  0  0  0  0
   -8.5285    2.2075   -0.5051 C   0  0  0  0  0  0  0  0  0  0  0  0
   -6.9240    0.3002   -0.6521 C   0  0  0  0  0  0  0  0  0  0  0  0
   -6.7063   -0.8903    0.0223 C   0  0  0  0  0  0  0  0  0  0  0  0
   -5.7224   -1.8771   -0.2346 N   0  0  0  0  0  0  0  0  0  0  0  0
   -4.7603   -1.6496   -1.2905 C   0  0  0  0  0  0  0  0  0  0  0  0
   -5.1197   -1.8006   -2.5751 N   0  0  0  0  0  0  0  0  0  0  0  0
   -4.2435   -1.6111   -3.5583 C   0  0  0  0  0  0  0  0  0  0  0  0
   -2.9439   -1.2532   -3.2355 C   0  0  0  0  0  0  0  0  0  0  0  0
   -2.0854   -1.0689   -4.2772 F   0  0  0  0  0  0  0  0  0  0  0  0
   -2.5593   -1.0955   -1.9395 C   0  0  0  0  0  0  0  0  0  0  0  0
   -1.2012   -0.7419   -1.5748 C   0  0  0  0  0  0  0  0  0  0  0  0
   -0.1774   -0.4767   -2.4499 C   0  0  0  0  0  0  0  0  0  0  0  0
    0.9214   -0.1871   -1.6929 N   0  0  0  0  0  0  0  0  0  0  0  0
    0.6330   -0.2589   -0.3853 C   0  0  0  0  0  0  0  0  0  0  0  0
    1.4033   -0.0620    0.7421 C   0  0  0  0  0  0  0  0  0  0  0  0
    2.7585    0.3060    0.6192 N   0  0  0  0  0  0  0  0  0  0  0  0
    3.0945    1.6826    0.6646 C   0  0  0  0  0  0  0  0  0  0  0  0
    2.1508    2.5379    0.8221 O   0  0  0  0  0  0  0  0  0  0  0  0
    4.4369    2.2544    0.5467 C   0  0  1  0  0  0  0  0  0  0  0  0
    4.6184    3.1653    1.7739 C   0  0  0  0  0  0  0  0  0  0  0  0
    5.5179    1.3962    0.3536 N   0  0  0  0  0  0  0  0  0  0  0  0
    5.9375    0.5106    1.3510 C   0  0  0  0  0  0  0  0  0  0  0  0
    6.5718   -0.7620    0.9023 C   0  0  0  0  0  0  0  0  0  0  0  0
    7.2994   -0.6980   -0.3259 N   0  0  0  0  0  0  0  0  0  0  0  0
    8.5757   -1.3652   -0.3132 C   0  0  0  0  0  0  0  0  0  0  0  0
    7.3321    0.5939   -0.9431 C   0  0  0  0  0  0  0  0  0  0  0  0
    5.8964    1.1062   -0.9861 C   0  0  0  0  0  0  0  0  0  0  0  0
    0.8281   -0.2168    1.9808 C   0  0  0  0  0  0  0  0  0  0  0  0
   -0.5095   -0.5662    2.1220 C   0  0  0  0  0  0  0  0  0  0  0  0
   -1.2496   -0.7549    0.9629 C   0  0  0  0  0  0  0  0  0  0  0  0
   -0.7095   -0.6095   -0.2902 C   0  0  0  0  0  0  0  0  0  0  0  0
   -3.5089   -1.3050   -0.9862 N   0  0  0  0  0  0  0  0  0  0  0  0
   -8.7912   -0.9664    3.5415 H   0  0  0  0  0  0  0  0  0  0  0  0
   -9.8372   -1.6981    2.2935 H   0  0  0  0  0  0  0  0  0  0  0  0
   -9.0129   -2.7458    3.5345 H   0  0  0  0  0  0  0  0  0  0  0  0
   -9.1508    2.6199    0.3064 H   0  0  0  0  0  0  0  0  0  0  0  0
   -9.2084    2.0102   -1.3813 H   0  0  0  0  0  0  0  0  0  0  0  0
   -7.7161    2.8902   -0.8371 H   0  0  0  0  0  0  0  0  0  0  0  0
   -6.3242    0.6364   -1.4917 H   0  0  0  0  0  0  0  0  0  0  0  0
   -5.6724   -2.7559    0.3111 H   0  0  0  0  0  0  0  0  0  0  0  0
   -4.5230   -1.7315   -4.6076 H   0  0  0  0  0  0  0  0  0  0  0  0
   -0.1276   -0.4686   -3.5302 H   0  0  0  0  0  0  0  0  0  0  0  0
    1.8489    0.0540   -2.1069 H   0  0  0  0  0  0  0  0  0  0  0  0
    3.5257   -0.3838    0.4907 H   0  0  0  0  0  0  0  0  0  0  0  0
    4.4043    2.9819   -0.3124 H   0  0  0  0  0  0  0  0  0  0  0  0
    5.1015    2.6071    2.5995 H   0  0  0  0  0  0  0  0  0  0  0  0
    3.6240    3.4776    2.1445 H   0  0  0  0  0  0  0  0  0  0  0  0
    5.1519    4.0946    1.4980 H   0  0  0  0  0  0  0  0  0  0  0  0
    6.7223    1.0480    1.9737 H   0  0  0  0  0  0  0  0  0  0  0  0
    5.1347    0.2847    2.0749 H   0  0  0  0  0  0  0  0  0  0  0  0
    5.8292   -1.5995    0.8589 H   0  0  0  0  0  0  0  0  0  0  0  0
    7.3062   -1.1074    1.6878 H   0  0  0  0  0  0  0  0  0  0  0  0
    9.2980   -0.7503   -0.9128 H   0  0  0  0  0  0  0  0  0  0  0  0
    8.4413   -2.3316   -0.8820 H   0  0  0  0  0  0  0  0  0  0  0  0
    8.9492   -1.5508    0.7105 H   0  0  0  0  0  0  0  0  0  0  0  0
    7.6652    0.4484   -1.9960 H   0  0  0  0  0  0  0  0  0  0  0  0
    7.9821    1.3254   -0.4105 H   0  0  0  0  0  0  0  0  0  0  0  0
    5.8150    2.0153   -1.6139 H   0  0  0  0  0  0  0  0  0  0  0  0
    5.2533    0.3137   -1.4152 H   0  0  0  0  0  0  0  0  0  0  0  0
    1.3931   -0.0707    2.8956 H   0  0  0  0  0  0  0  0  0  0  0  0
   -1.0062   -0.6997    3.0696 H   0  0  0  0  0  0  0  0  0  0  0  0
   -2.3081   -1.0320    1.0659 H   0  0  0  0  0  0  0  0  0  0  0  0
  1  2  1  0
  2  3  1  0
  3  4  2  0
  4  5  1  0
  5  6  1  0
  5  7  1  0
  7  8  2  0
  8  9  1  0
  9 10  1  0
 10 11  2  0
 11 12  1  0
 12 13  2  0
 13 14  1  0
 13 15  1  0
 15 16  1  0
 16 17  2  0
 17 18  1  0
 18 19  1  0
 19 20  2  0
 20 21  1  0
 21 22  1  0
 22 23  2  0
 22 24  1  0
 24 25  1  0
 24 26  1  0
 26 27  1  0
 27 28  1  0
 28 29  1  0
 29 30  1  0
 29 31  1  0
 31 32  1  0
 20 33  1  0
 33 34  2  0
 34 35  1  0
 35 36  2  0
 15 37  2  0
  8  3  1  0
 37 10  1  0
 36 16  1  0
 36 19  1  0
 32 26  1  0
  1 38  1  0
  1 39  1  0
  1 40  1  0
  6 41  1  0
  6 42  1  0
  6 43  1  0
  7 44  1  0
  9 45  1  0
 12 46  1  0
 17 47  1  0
 18 48  1  0
 21 49  1  0
 24 50  1  6
 25 51  1  0
 25 52  1  0
 25 53  1  0
 27 54  1  0
 27 55  1  0
 28 56  1  0
 28 57  1  0
 30 58  1  0
 30 59  1  0
 30 60  1  0
 31 61  1  0
 31 62  1  0
 32 63  1  0
 32 64  1  0
 33 65  1  0
 34 66  1  0
 35 67  1  0
M  END
$$$$
