@<TRIPOS>MOLECULE
*****
 37 39 0 0 0
SMALL
GASTEIGER

@<TRIPOS>ATOM
      1 O          -5.5056   -0.0173   -2.3313 O.2     1  UNL1       -0.2451
      2 C          -4.3008    0.2143   -2.0913 C.2     1  UNL1        0.3369
      3 O          -3.4586    0.5269   -3.1383 O.3     1  UNL1       -0.4771
      4 C          -3.8439    0.1423   -0.7134 C.ar    1  UNL1        0.0607
      5 C          -4.6967   -0.1716    0.3240 C.ar    1  UNL1       -0.0477
      6 C          -4.2395   -0.2359    1.6404 C.ar    1  UNL1       -0.0591
      7 C          -2.9137    0.0162    1.9270 C.ar    1  UNL1       -0.0353
      8 C          -2.0361    0.3336    0.9050 C.ar    1  UNL1        0.1063
      9 S          -0.3388    0.6635    1.2268 S.O2    1  UNL1        0.0612
     10 O          -0.2061    1.3649    2.5692 O.2     1  UNL1       -0.1528
     11 O           0.1072    1.6739    0.1957 O.2     1  UNL1       -0.1528
     12 N           0.6157   -0.7589    1.1737 N.3     1  UNL1       -0.1720
     13 C           0.5413   -1.3259   -0.1309 C.3     1  UNL1        0.0248
     14 C           1.8798   -1.7873   -0.6643 C.3     1  UNL1       -0.0129
     15 C           2.8215   -0.6120   -0.6069 C.ar    1  UNL1       -0.0406
     16 C           3.6046   -0.2367   -1.6548 C.ar    1  UNL1       -0.0442
     17 C           4.4446    0.8714   -1.4976 C.ar    1  UNL1        0.0182
     18 BR          5.5522    1.4278   -2.9332 Br      1  UNL1       -0.0503
     19 C           4.4442    1.5390   -0.2845 C.ar    1  UNL1       -0.0474
     20 C           3.6474    1.1398    0.7505 C.ar    1  UNL1       -0.0560
     21 C           2.8272    0.0635    0.6074 C.ar    1  UNL1       -0.0284
     22 C           1.9247   -0.4584    1.6556 C.3     1  UNL1        0.0458
     23 C          -2.5119    0.3888   -0.3709 C.ar    1  UNL1       -0.0214
     24 H          -3.7806    0.7979   -4.0601 H       1  UNL1        0.2954
     25 H          -5.7379   -0.3675    0.0817 H       1  UNL1        0.0626
     26 H          -4.9680   -0.4894    2.4084 H       1  UNL1        0.0618
     27 H          -2.5675   -0.0332    2.9298 H       1  UNL1        0.0637
     28 H          -0.1535   -2.1708   -0.1344 H       1  UNL1        0.0447
     29 H           0.1575   -0.5756   -0.8640 H       1  UNL1        0.0447
     30 H           2.2701   -2.6169   -0.0758 H       1  UNL1        0.0326
     31 H           1.7471   -2.0040   -1.7430 H       1  UNL1        0.0326
     32 H           3.5661   -0.7932   -2.5805 H       1  UNL1        0.0631
     33 H           5.1117    2.3904   -0.2125 H       1  UNL1        0.0629
     34 H           3.6518    1.6685    1.7008 H       1  UNL1        0.0621
     35 H           2.3810   -1.4270    2.0070 H       1  UNL1        0.0493
     36 H           1.8390    0.2236    2.5246 H       1  UNL1        0.0493
     37 H          -1.8754    0.6350   -1.2345 H       1  UNL1        0.0645
@<TRIPOS>BOND
     1     1     2    2
     2     2     3    1
     3     2     4    1
     4     4     5   ar
     5     5     6   ar
     6     6     7   ar
     7     7     8   ar
     8     8     9    1
     9     9    10    2
    10     9    11    2
    11     9    12    1
    12    12    13    1
    13    13    14    1
    14    14    15    1
    15    15    16   ar
    16    16    17   ar
    17    17    18    1
    18    17    19   ar
    19    19    20   ar
    20    20    21   ar
    21    21    22    1
    22     8    23   ar
    23    23     4   ar
    24    22    12    1
    25    21    15   ar
    26     3    24    1
    27     5    25    1
    28     6    26    1
    29     7    27    1
    30    13    28    1
    31    13    29    1
    32    14    30    1
    33    14    31    1
    34    16    32    1
    35    19    33    1
    36    20    34    1
    37    22    35    1
    38    22    36    1
    39    23    37    1
