@<TRIPOS>MOLECULE
*****
 56 59 0 0 0
SMALL
GASTEIGER

@<TRIPOS>ATOM
      1 C           0.7212   -0.7096   -0.2853 C.3     1  UNL1       -0.0276
      2 C           1.6480   -1.8908   -0.2817 C.3     1  UNL1       -0.0437
      3 C           3.0150   -1.1999   -0.3739 C.3     1  UNL1       -0.0072
      4 C           3.4928   -1.3966   -1.7962 C.3     1  UNL1       -0.0594
      5 C           2.7805    0.2435   -0.0418 C.3     1  UNL1        0.1329
      6 O           2.4944    1.0055   -1.1842 O.3     1  UNL1       -0.3802
      7 C           3.8579    0.8657    0.7566 C.2     1  UNL1        0.1798
      8 O           4.3370    0.4386    1.8171 O.2     1  UNL1       -0.2931
      9 C           4.6064    2.1239    0.4832 C.3     1  UNL1        0.0838
     10 CL          3.9830    2.8100   -1.0290 Cl      1  UNL1       -0.1173
     11 C           1.4533    0.1722    0.7183 C.3     1  UNL1        0.0094
     12 C           1.7029   -0.5245    2.0129 C.3     1  UNL1       -0.0562
     13 C           0.7600    1.4761    0.8064 C.3     1  UNL1       -0.0164
     14 C          -0.6978    1.2010    1.2067 C.3     1  UNL1        0.0762
     15 O          -0.6320    0.4879    2.4202 O.3     1  UNL1       -0.3900
     16 C          -1.3380    0.4112    0.1183 C.3     1  UNL1        0.0864
     17 CL         -0.8575    1.1618   -1.4421 Cl      1  UNL1       -0.1139
     18 C          -0.6839   -0.9818    0.1060 C.3     1  UNL1       -0.0147
     19 C          -1.3120   -1.8564   -0.9315 C.3     1  UNL1       -0.0445
     20 C          -2.8145   -1.8485   -0.8961 C.3     1  UNL1       -0.0301
     21 C          -3.3823   -0.4844   -0.9489 C.2     1  UNL1       -0.0545
     22 C          -4.2595   -0.1571   -1.8853 C.2     1  UNL1       -0.0148
     23 C          -4.7415    1.2183   -1.8270 C.2     1  UNL1        0.1787
     24 O          -5.5643    1.6045   -2.6672 O.2     1  UNL1       -0.2879
     25 C          -4.2651    2.1328   -0.7954 C.2     1  UNL1       -0.0180
     26 C          -3.3855    1.6920    0.0900 C.2     1  UNL1       -0.0688
     27 C          -2.8163    0.3256    0.1462 C.3     1  UNL1        0.0294
     28 C          -3.3042   -0.2882    1.4445 C.3     1  UNL1       -0.0506
     29 H           0.7495   -0.2330   -1.2630 H       1  UNL1        0.0310
     30 H           1.4275   -2.4969   -1.1790 H       1  UNL1        0.0272
     31 H           1.5727   -2.5065    0.6375 H       1  UNL1        0.0272
     32 H           3.7317   -1.6334    0.3334 H       1  UNL1        0.0330
     33 H           3.7618   -2.4902   -1.8675 H       1  UNL1        0.0233
     34 H           4.3775   -0.7992   -2.0350 H       1  UNL1        0.0233
     35 H           2.6366   -1.2727   -2.4923 H       1  UNL1        0.0233
     36 H           2.9315    0.6875   -1.9971 H       1  UNL1        0.2108
     37 H           4.3642    2.8485    1.2869 H       1  UNL1        0.0509
     38 H           5.7096    1.9586    0.4377 H       1  UNL1        0.0509
     39 H           1.8439    0.2011    2.8364 H       1  UNL1        0.0236
     40 H           0.9005   -1.2684    2.2533 H       1  UNL1        0.0236
     41 H           2.6358   -1.1541    1.9853 H       1  UNL1        0.0236
     42 H           0.7009    1.9187   -0.1906 H       1  UNL1        0.0297
     43 H           1.2406    2.1675    1.5242 H       1  UNL1        0.0297
     44 H          -1.1680    2.1673    1.3915 H       1  UNL1        0.0611
     45 H          -0.5805    1.1742    3.1513 H       1  UNL1        0.2099
     46 H          -0.7805   -1.4481    1.1130 H       1  UNL1        0.0322
     47 H          -0.9027   -2.8711   -0.7702 H       1  UNL1        0.0272
     48 H          -0.9526   -1.5290   -1.9339 H       1  UNL1        0.0272
     49 H          -3.1629   -2.4863   -1.7403 H       1  UNL1        0.0310
     50 H          -3.1619   -2.3474    0.0331 H       1  UNL1        0.0310
     51 H          -4.5624   -0.8945   -2.6159 H       1  UNL1        0.0656
     52 H          -4.6548    3.1351   -0.8015 H       1  UNL1        0.0653
     53 H          -3.0983    2.4568    0.8144 H       1  UNL1        0.0582
     54 H          -4.3781   -0.5566    1.3757 H       1  UNL1        0.0242
     55 H          -2.7461   -1.2140    1.6792 H       1  UNL1        0.0242
     56 H          -3.2336    0.4536    2.2925 H       1  UNL1        0.0242
@<TRIPOS>BOND
     1     1     2    1
     2     2     3    1
     3     3     4    1
     4     3     5    1
     5     5     6    1
     6     5     7    1
     7     7     8    2
     8     7     9    1
     9     9    10    1
    10     5    11    1
    11    11    12    1
    12    11    13    1
    13    13    14    1
    14    14    15    1
    15    14    16    1
    16    16    17    1
    17    16    18    1
    18    18    19    1
    19    19    20    1
    20    20    21    1
    21    21    22    2
    22    22    23    1
    23    23    24    2
    24    23    25    1
    25    25    26    2
    26    26    27    1
    27    27    28    1
    28    11     1    1
    29    27    16    1
    30    18     1    1
    31    27    21    1
    32     1    29    1
    33     2    30    1
    34     2    31    1
    35     3    32    1
    36     4    33    1
    37     4    34    1
    38     4    35    1
    39     6    36    1
    40     9    37    1
    41     9    38    1
    42    12    39    1
    43    12    40    1
    44    12    41    1
    45    13    42    1
    46    13    43    1
    47    14    44    1
    48    15    45    1
    49    18    46    1
    50    19    47    1
    51    19    48    1
    52    20    49    1
    53    20    50    1
    54    22    51    1
    55    25    52    1
    56    26    53    1
    57    28    54    1
    58    28    55    1
    59    28    56    1
