
     RDKit          3D

 56 59  0  0  0  0  0  0  0  0999 V2000
    0.7212   -0.7096   -0.2853 C   0  0  2  0  0  0  0  0  0  0  0  0
    1.6480   -1.8908   -0.2817 C   0  0  0  0  0  0  0  0  0  0  0  0
    3.0150   -1.1999   -0.3739 C   0  0  1  0  0  0  0  0  0  0  0  0
    3.4928   -1.3966   -1.7962 C   0  0  0  0  0  0  0  0  0  0  0  0
    2.7805    0.2435   -0.0418 C   0  0  2  0  0  0  0  0  0  0  0  0
    2.4944    1.0055   -1.1842 O   0  0  0  0  0  0  0  0  0  0  0  0
    3.8579    0.8657    0.7566 C   0  0  0  0  0  0  0  0  0  0  0  0
    4.3370    0.4386    1.8171 O   0  0  0  0  0  0  0  0  0  0  0  0
    4.6064    2.1239    0.4832 C   0  0  0  0  0  0  0  0  0  0  0  0
    3.9830    2.8100   -1.0290 Cl  0  0  0  0  0  0  0  0  0  0  0  0
    1.4533    0.1722    0.7183 C   0  0  2  0  0  0  0  0  0  0  0  0
    1.7029   -0.5245    2.0129 C   0  0  0  0  0  0  0  0  0  0  0  0
    0.7600    1.4761    0.8064 C   0  0  0  0  0  0  0  0  0  0  0  0
   -0.6978    1.2010    1.2067 C   0  0  2  0  0  0  0  0  0  0  0  0
   -0.6320    0.4879    2.4202 O   0  0  0  0  0  0  0  0  0  0  0  0
   -1.3380    0.4112    0.1183 C   0  0  1  0  0  0  0  0  0  0  0  0
   -0.8575    1.1618   -1.4421 Cl  0  0  0  0  0  0  0  0  0  0  0  0
   -0.6839   -0.9818    0.1060 C   0  0  1  0  0  0  0  0  0  0  0  0
   -1.3120   -1.8564   -0.9315 C   0  0  0  0  0  0  0  0  0  0  0  0
   -2.8145   -1.8485   -0.8961 C   0  0  0  0  0  0  0  0  0  0  0  0
   -3.3823   -0.4844   -0.9489 C   0  0  0  0  0  0  0  0  0  0  0  0
   -4.2595   -0.1571   -1.8853 C   0  0  0  0  0  0  0  0  0  0  0  0
   -4.7415    1.2183   -1.8270 C   0  0  0  0  0  0  0  0  0  0  0  0
   -5.5643    1.6045   -2.6672 O   0  0  0  0  0  0  0  0  0  0  0  0
   -4.2651    2.1328   -0.7954 C   0  0  0  0  0  0  0  0  0  0  0  0
   -3.3855    1.6920    0.0900 C   0  0  0  0  0  0  0  0  0  0  0  0
   -2.8163    0.3256    0.1462 C   0  0  2  0  0  0  0  0  0  0  0  0
   -3.3042   -0.2882    1.4445 C   0  0  0  0  0  0  0  0  0  0  0  0
    0.7495   -0.2330   -1.2630 H   0  0  0  0  0  0  0  0  0  0  0  0
    1.4275   -2.4969   -1.1790 H   0  0  0  0  0  0  0  0  0  0  0  0
    1.5727   -2.5065    0.6375 H   0  0  0  0  0  0  0  0  0  0  0  0
    3.7317   -1.6334    0.3334 H   0  0  0  0  0  0  0  0  0  0  0  0
    3.7618   -2.4902   -1.8675 H   0  0  0  0  0  0  0  0  0  0  0  0
    4.3775   -0.7992   -2.0350 H   0  0  0  0  0  0  0  0  0  0  0  0
    2.6366   -1.2727   -2.4923 H   0  0  0  0  0  0  0  0  0  0  0  0
    2.9315    0.6875   -1.9971 H   0  0  0  0  0  0  0  0  0  0  0  0
    4.3642    2.8485    1.2869 H   0  0  0  0  0  0  0  0  0  0  0  0
    5.7096    1.9586    0.4377 H   0  0  0  0  0  0  0  0  0  0  0  0
    1.8439    0.2011    2.8364 H   0  0  0  0  0  0  0  0  0  0  0  0
    0.9005   -1.2684    2.2533 H   0  0  0  0  0  0  0  0  0  0  0  0
    2.6358   -1.1541    1.9853 H   0  0  0  0  0  0  0  0  0  0  0  0
    0.7009    1.9187   -0.1906 H   0  0  0  0  0  0  0  0  0  0  0  0
    1.2406    2.1675    1.5242 H   0  0  0  0  0  0  0  0  0  0  0  0
   -1.1680    2.1673    1.3915 H   0  0  0  0  0  0  0  0  0  0  0  0
   -0.5805    1.1742    3.1513 H   0  0  0  0  0  0  0  0  0  0  0  0
   -0.7805   -1.4481    1.1130 H   0  0  0  0  0  0  0  0  0  0  0  0
   -0.9027   -2.8711   -0.7702 H   0  0  0  0  0  0  0  0  0  0  0  0
   -0.9526   -1.5290   -1.9339 H   0  0  0  0  0  0  0  0  0  0  0  0
   -3.1629   -2.4863   -1.7403 H   0  0  0  0  0  0  0  0  0  0  0  0
   -3.1619   -2.3474    0.0331 H   0  0  0  0  0  0  0  0  0  0  0  0
   -4.5624   -0.8945   -2.6159 H   0  0  0  0  0  0  0  0  0  0  0  0
   -4.6548    3.1351   -0.8015 H   0  0  0  0  0  0  0  0  0  0  0  0
   -3.0983    2.4568    0.8144 H   0  0  0  0  0  0  0  0  0  0  0  0
   -4.3781   -0.5566    1.3757 H   0  0  0  0  0  0  0  0  0  0  0  0
   -2.7461   -1.2140    1.6792 H   0  0  0  0  0  0  0  0  0  0  0  0
   -3.2336    0.4536    2.2925 H   0  0  0  0  0  0  0  0  0  0  0  0
  1  2  1  0
  2  3  1  0
  3  4  1  0
  3  5  1  0
  5  6  1  6
  5  7  1  0
  7  8  2  0
  7  9  1  0
  9 10  1  0
  5 11  1  0
 11 12  1  1
 11 13  1  0
 13 14  1  0
 14 15  1  0
 14 16  1  0
 16 17  1  6
 16 18  1  0
 18 19  1  0
 19 20  1  0
 20 21  1  0
 21 22  2  0
 22 23  1  0
 23 24  2  0
 23 25  1  0
 25 26  2  0
 26 27  1  0
 27 28  1  1
 11  1  1  0
 27 16  1  0
 18  1  1  0
 27 21  1  0
  1 29  1  6
  2 30  1  0
  2 31  1  0
  3 32  1  1
  4 33  1  0
  4 34  1  0
  4 35  1  0
  6 36  1  0
  9 37  1  0
  9 38  1  0
 12 39  1  0
 12 40  1  0
 12 41  1  0
 13 42  1  0
 13 43  1  0
 14 44  1  1
 15 45  1  0
 18 46  1  1
 19 47  1  0
 19 48  1  0
 20 49  1  0
 20 50  1  0
 22 51  1  0
 25 52  1  0
 26 53  1  0
 28 54  1  0
 28 55  1  0
 28 56  1  0
M  END
$$$$
