@<TRIPOS>MOLECULE
*****
 85 89 0 0 0
SMALL
GASTEIGER

@<TRIPOS>ATOM
      1 C           3.4510   -1.5951    0.9610 C.3     1  UNL1       -0.0621
      2 C           3.1761   -0.5856   -0.1076 C.3     1  UNL1       -0.0404
      3 C           3.6623    0.7937    0.1994 C.3     1  UNL1       -0.0478
      4 C           5.1277    0.9071    0.4249 C.3     1  UNL1       -0.0239
      5 C           5.9800    0.4891   -0.7459 C.3     1  UNL1        0.0833
      6 O           5.6755    1.2855   -1.8532 O.3     1  UNL1       -0.3890
      7 C           7.4449    0.6835   -0.3950 C.3     1  UNL1        0.0862
      8 C           7.7923   -0.1547    0.7982 C.3     1  UNL1       -0.0339
      9 C           7.6595    2.1490   -0.1241 C.3     1  UNL1       -0.0339
     10 O           8.1795    0.2911   -1.5212 O.3     1  UNL1       -0.3866
     11 C           1.8100   -0.5812   -0.6876 C.3     1  UNL1       -0.0320
     12 C           1.5621   -1.9559   -1.2967 C.3     1  UNL1       -0.0484
     13 C           0.1865   -2.3651   -0.8196 C.3     1  UNL1       -0.0362
     14 C          -0.4804   -1.0284   -0.6386 C.3     1  UNL1        0.0765
     15 C          -0.7792   -0.5023   -1.9581 C.2     1  UNL1        0.3118
     16 O          -1.9841   -0.3055   -2.2584 O.2     1  UNL1       -0.2504
     17 O           0.0956   -0.1766   -2.9616 O.3     1  UNL1       -0.4802
     18 C          -1.6826   -1.0695    0.2469 C.3     1  UNL1       -0.0186
     19 C          -2.7043   -2.0895   -0.1704 C.3     1  UNL1       -0.0484
     20 C          -4.0720   -1.8298    0.3773 C.3     1  UNL1       -0.0488
     21 C          -4.5318   -0.5004   -0.1377 C.3     1  UNL1       -0.0273
     22 C          -5.9610   -0.1947    0.2490 C.3     1  UNL1       -0.0056
     23 C          -6.8857   -0.3206   -0.9465 C.3     1  UNL1       -0.0572
     24 C          -6.4598   -1.2225    1.2689 C.3     1  UNL1       -0.0572
     25 C          -6.1549    1.1710    0.8283 C.3     1  UNL1        0.0606
     26 O          -5.7107    1.2367    2.1484 O.3     1  UNL1       -0.3912
     27 C          -5.4751    2.1913   -0.0583 C.3     1  UNL1       -0.0258
     28 C          -4.0375    1.8687   -0.2933 C.3     1  UNL1       -0.0442
     29 C          -3.6111    0.5519    0.3297 C.3     1  UNL1       -0.0193
     30 C          -3.0715    0.5598    1.7025 C.3     1  UNL1       -0.0401
     31 C          -2.1884    0.3079    0.4253 C.3     1  UNL1       -0.0189
     32 C          -1.2695    1.4272    0.0959 C.3     1  UNL1       -0.0460
     33 C           0.1664    1.1940   -0.0402 C.3     1  UNL1       -0.0458
     34 C           0.6258   -0.2425    0.0856 C.3     1  UNL1       -0.0130
     35 C           0.6086   -0.5670    1.5461 C.3     1  UNL1       -0.0583
     36 H           3.7178   -1.1269    1.9563 H       1  UNL1        0.0233
     37 H           4.3887   -2.2048    0.7533 H       1  UNL1        0.0233
     38 H           2.6730   -2.3807    1.0613 H       1  UNL1        0.0233
     39 H           3.8266   -0.9102   -0.9823 H       1  UNL1        0.0301
     40 H           3.0946    1.3047    1.0003 H       1  UNL1        0.0269
     41 H           3.4359    1.4074   -0.7265 H       1  UNL1        0.0269
     42 H           5.4679    0.3506    1.3233 H       1  UNL1        0.0291
     43 H           5.3567    2.0001    0.5920 H       1  UNL1        0.0291
     44 H           5.7937   -0.5585   -0.9933 H       1  UNL1        0.0622
     45 H           5.1501    2.0783   -1.6152 H       1  UNL1        0.2099
     46 H           8.8505   -0.4917    0.6795 H       1  UNL1        0.0258
     47 H           7.1818   -1.0760    0.8899 H       1  UNL1        0.0258
     48 H           7.7333    0.4667    1.7100 H       1  UNL1        0.0258
     49 H           7.4696    2.3406    0.9429 H       1  UNL1        0.0258
     50 H           6.9184    2.7667   -0.6989 H       1  UNL1        0.0258
     51 H           8.6953    2.4331   -0.3779 H       1  UNL1        0.0258
     52 H           7.9035    0.8604   -2.2827 H       1  UNL1        0.2102
     53 H           1.8908    0.1938   -1.5185 H       1  UNL1        0.0309
     54 H           1.5295   -1.9077   -2.4021 H       1  UNL1        0.0268
     55 H           2.3418   -2.6752   -0.9605 H       1  UNL1        0.0268
     56 H          -0.3935   -2.8985   -1.6231 H       1  UNL1        0.0276
     57 H           0.2037   -2.9814    0.0745 H       1  UNL1        0.0276
     58 H          -0.1118   -0.1136   -3.9299 H       1  UNL1        0.2951
     59 H          -1.4122   -1.4121    1.2971 H       1  UNL1        0.0317
     60 H          -2.7967   -2.2360   -1.2637 H       1  UNL1        0.0268
     61 H          -2.4118   -3.1137    0.2170 H       1  UNL1        0.0268
     62 H          -4.1338   -1.9320    1.4767 H       1  UNL1        0.0268
     63 H          -4.7484   -2.6041   -0.0520 H       1  UNL1        0.0268
     64 H          -4.5024   -0.5527   -1.2483 H       1  UNL1        0.0312
     65 H          -7.8243    0.2483   -0.7886 H       1  UNL1        0.0236
     66 H          -6.4005   -0.0228   -1.8875 H       1  UNL1        0.0236
     67 H          -7.1901   -1.3960   -1.0655 H       1  UNL1        0.0236
     68 H          -7.5011   -0.8986    1.5142 H       1  UNL1        0.0236
     69 H          -6.5409   -2.2250    0.8411 H       1  UNL1        0.0236
     70 H          -5.8735   -1.1467    2.1921 H       1  UNL1        0.0236
     71 H          -7.2441    1.3974    0.7809 H       1  UNL1        0.0599
     72 H          -5.7168    2.1922    2.4081 H       1  UNL1        0.2098
     73 H          -6.0483    2.1762   -1.0290 H       1  UNL1        0.0290
     74 H          -5.6329    3.2208    0.3478 H       1  UNL1        0.0290
     75 H          -3.4223    2.6911    0.1752 H       1  UNL1        0.0272
     76 H          -3.8056    1.9198   -1.3737 H       1  UNL1        0.0272
     77 H          -3.1233   -0.2865    2.3813 H       1  UNL1        0.0276
     78 H          -2.9626    1.5605    2.1674 H       1  UNL1        0.0276
     79 H          -1.7091    1.9690   -0.7973 H       1  UNL1        0.0271
     80 H          -1.3888    2.2317    0.8901 H       1  UNL1        0.0271
     81 H           0.4807    1.5112   -1.0796 H       1  UNL1        0.0271
     82 H           0.7931    1.8161    0.6326 H       1  UNL1        0.0271
     83 H          -0.2057    0.0322    2.0596 H       1  UNL1        0.0235
     84 H           1.5261   -0.2025    2.0790 H       1  UNL1        0.0235
     85 H           0.5333   -1.6354    1.7968 H       1  UNL1        0.0235
@<TRIPOS>BOND
     1     1     2    1
     2     2     3    1
     3     3     4    1
     4     4     5    1
     5     5     6    1
     6     5     7    1
     7     7     8    1
     8     7     9    1
     9     7    10    1
    10     2    11    1
    11    11    12    1
    12    12    13    1
    13    13    14    1
    14    14    15    1
    15    15    16    2
    16    15    17    1
    17    14    18    1
    18    18    19    1
    19    19    20    1
    20    20    21    1
    21    21    22    1
    22    22    23    1
    23    22    24    1
    24    22    25    1
    25    25    26    1
    26    25    27    1
    27    27    28    1
    28    29    28    1
    29    29    30    1
    30    31    30    1
    31    31    32    1
    32    32    33    1
    33    33    34    1
    34    34    35    1
    35    34    11    1
    36    34    14    1
    37    31    18    1
    38    29    21    1
    39    31    29    1
    40     1    36    1
    41     1    37    1
    42     1    38    1
    43     2    39    1
    44     3    40    1
    45     3    41    1
    46     4    42    1
    47     4    43    1
    48     5    44    1
    49     6    45    1
    50     8    46    1
    51     8    47    1
    52     8    48    1
    53     9    49    1
    54     9    50    1
    55     9    51    1
    56    10    52    1
    57    11    53    1
    58    12    54    1
    59    12    55    1
    60    13    56    1
    61    13    57    1
    62    17    58    1
    63    18    59    1
    64    19    60    1
    65    19    61    1
    66    20    62    1
    67    20    63    1
    68    21    64    1
    69    23    65    1
    70    23    66    1
    71    23    67    1
    72    24    68    1
    73    24    69    1
    74    24    70    1
    75    25    71    1
    76    26    72    1
    77    27    73    1
    78    27    74    1
    79    28    75    1
    80    28    76    1
    81    30    77    1
    82    30    78    1
    83    32    79    1
    84    32    80    1
    85    33    81    1
    86    33    82    1
    87    35    83    1
    88    35    84    1
    89    35    85    1
