
     RDKit          3D

 85 89  0  0  0  0  0  0  0  0999 V2000
    3.4510   -1.5951    0.9610 C   0  0  0  0  0  0  0  0  0  0  0  0
    3.1761   -0.5856   -0.1076 C   0  0  2  0  0  0  0  0  0  0  0  0
    3.6623    0.7937    0.1994 C   0  0  0  0  0  0  0  0  0  0  0  0
    5.1277    0.9071    0.4249 C   0  0  0  0  0  0  0  0  0  0  0  0
    5.9800    0.4891   -0.7459 C   0  0  1  0  0  0  0  0  0  0  0  0
    5.6755    1.2855   -1.8532 O   0  0  0  0  0  0  0  0  0  0  0  0
    7.4449    0.6835   -0.3950 C   0  0  0  0  0  0  0  0  0  0  0  0
    7.7923   -0.1547    0.7982 C   0  0  0  0  0  0  0  0  0  0  0  0
    7.6595    2.1490   -0.1241 C   0  0  0  0  0  0  0  0  0  0  0  0
    8.1795    0.2911   -1.5212 O   0  0  0  0  0  0  0  0  0  0  0  0
    1.8100   -0.5812   -0.6876 C   0  0  1  0  0  0  0  0  0  0  0  0
    1.5621   -1.9559   -1.2967 C   0  0  0  0  0  0  0  0  0  0  0  0
    0.1865   -2.3651   -0.8196 C   0  0  0  0  0  0  0  0  0  0  0  0
   -0.4804   -1.0284   -0.6386 C   0  0  1  0  0  0  0  0  0  0  0  0
   -0.7792   -0.5023   -1.9581 C   0  0  0  0  0  0  0  0  0  0  0  0
   -1.9841   -0.3055   -2.2584 O   0  0  0  0  0  0  0  0  0  0  0  0
    0.0956   -0.1766   -2.9616 O   0  0  0  0  0  0  0  0  0  0  0  0
   -1.6826   -1.0695    0.2469 C   0  0  2  0  0  0  0  0  0  0  0  0
   -2.7043   -2.0895   -0.1704 C   0  0  0  0  0  0  0  0  0  0  0  0
   -4.0720   -1.8298    0.3773 C   0  0  0  0  0  0  0  0  0  0  0  0
   -4.5318   -0.5004   -0.1377 C   0  0  1  0  0  0  0  0  0  0  0  0
   -5.9610   -0.1947    0.2490 C   0  0  0  0  0  0  0  0  0  0  0  0
   -6.8857   -0.3206   -0.9465 C   0  0  0  0  0  0  0  0  0  0  0  0
   -6.4598   -1.2225    1.2689 C   0  0  0  0  0  0  0  0  0  0  0  0
   -6.1549    1.1710    0.8283 C   0  0  1  0  0  0  0  0  0  0  0  0
   -5.7107    1.2367    2.1484 O   0  0  0  0  0  0  0  0  0  0  0  0
   -5.4751    2.1913   -0.0583 C   0  0  0  0  0  0  0  0  0  0  0  0
   -4.0375    1.8687   -0.2933 C   0  0  0  0  0  0  0  0  0  0  0  0
   -3.6111    0.5519    0.3297 C   0  0  1  0  0  0  0  0  0  0  0  0
   -3.0715    0.5598    1.7025 C   0  0  0  0  0  0  0  0  0  0  0  0
   -2.1884    0.3079    0.4253 C   0  0  1  0  0  0  0  0  0  0  0  0
   -1.2695    1.4272    0.0959 C   0  0  0  0  0  0  0  0  0  0  0  0
    0.1664    1.1940   -0.0402 C   0  0  0  0  0  0  0  0  0  0  0  0
    0.6258   -0.2425    0.0856 C   0  0  2  0  0  0  0  0  0  0  0  0
    0.6086   -0.5670    1.5461 C   0  0  0  0  0  0  0  0  0  0  0  0
    3.7178   -1.1269    1.9563 H   0  0  0  0  0  0  0  0  0  0  0  0
    4.3887   -2.2048    0.7533 H   0  0  0  0  0  0  0  0  0  0  0  0
    2.6730   -2.3807    1.0613 H   0  0  0  0  0  0  0  0  0  0  0  0
    3.8266   -0.9102   -0.9823 H   0  0  0  0  0  0  0  0  0  0  0  0
    3.0946    1.3047    1.0003 H   0  0  0  0  0  0  0  0  0  0  0  0
    3.4359    1.4074   -0.7265 H   0  0  0  0  0  0  0  0  0  0  0  0
    5.4679    0.3506    1.3233 H   0  0  0  0  0  0  0  0  0  0  0  0
    5.3567    2.0001    0.5920 H   0  0  0  0  0  0  0  0  0  0  0  0
    5.7937   -0.5585   -0.9933 H   0  0  0  0  0  0  0  0  0  0  0  0
    5.1501    2.0783   -1.6152 H   0  0  0  0  0  0  0  0  0  0  0  0
    8.8505   -0.4917    0.6795 H   0  0  0  0  0  0  0  0  0  0  0  0
    7.1818   -1.0760    0.8899 H   0  0  0  0  0  0  0  0  0  0  0  0
    7.7333    0.4667    1.7100 H   0  0  0  0  0  0  0  0  0  0  0  0
    7.4696    2.3406    0.9429 H   0  0  0  0  0  0  0  0  0  0  0  0
    6.9184    2.7667   -0.6989 H   0  0  0  0  0  0  0  0  0  0  0  0
    8.6953    2.4331   -0.3779 H   0  0  0  0  0  0  0  0  0  0  0  0
    7.9035    0.8604   -2.2827 H   0  0  0  0  0  0  0  0  0  0  0  0
    1.8908    0.1938   -1.5185 H   0  0  0  0  0  0  0  0  0  0  0  0
    1.5295   -1.9077   -2.4021 H   0  0  0  0  0  0  0  0  0  0  0  0
    2.3418   -2.6752   -0.9605 H   0  0  0  0  0  0  0  0  0  0  0  0
   -0.3935   -2.8985   -1.6231 H   0  0  0  0  0  0  0  0  0  0  0  0
    0.2037   -2.9814    0.0745 H   0  0  0  0  0  0  0  0  0  0  0  0
   -0.1118   -0.1136   -3.9299 H   0  0  0  0  0  0  0  0  0  0  0  0
   -1.4122   -1.4121    1.2971 H   0  0  0  0  0  0  0  0  0  0  0  0
   -2.7967   -2.2360   -1.2637 H   0  0  0  0  0  0  0  0  0  0  0  0
   -2.4118   -3.1137    0.2170 H   0  0  0  0  0  0  0  0  0  0  0  0
   -4.1338   -1.9320    1.4767 H   0  0  0  0  0  0  0  0  0  0  0  0
   -4.7484   -2.6041   -0.0520 H   0  0  0  0  0  0  0  0  0  0  0  0
   -4.5024   -0.5527   -1.2483 H   0  0  0  0  0  0  0  0  0  0  0  0
   -7.8243    0.2483   -0.7886 H   0  0  0  0  0  0  0  0  0  0  0  0
   -6.4005   -0.0228   -1.8875 H   0  0  0  0  0  0  0  0  0  0  0  0
   -7.1901   -1.3960   -1.0655 H   0  0  0  0  0  0  0  0  0  0  0  0
   -7.5011   -0.8986    1.5142 H   0  0  0  0  0  0  0  0  0  0  0  0
   -6.5409   -2.2250    0.8411 H   0  0  0  0  0  0  0  0  0  0  0  0
   -5.8735   -1.1467    2.1921 H   0  0  0  0  0  0  0  0  0  0  0  0
   -7.2441    1.3974    0.7809 H   0  0  0  0  0  0  0  0  0  0  0  0
   -5.7168    2.1922    2.4081 H   0  0  0  0  0  0  0  0  0  0  0  0
   -6.0483    2.1762   -1.0290 H   0  0  0  0  0  0  0  0  0  0  0  0
   -5.6329    3.2208    0.3478 H   0  0  0  0  0  0  0  0  0  0  0  0
   -3.4223    2.6911    0.1752 H   0  0  0  0  0  0  0  0  0  0  0  0
   -3.8056    1.9198   -1.3737 H   0  0  0  0  0  0  0  0  0  0  0  0
   -3.1233   -0.2865    2.3813 H   0  0  0  0  0  0  0  0  0  0  0  0
   -2.9626    1.5605    2.1674 H   0  0  0  0  0  0  0  0  0  0  0  0
   -1.7091    1.9690   -0.7973 H   0  0  0  0  0  0  0  0  0  0  0  0
   -1.3888    2.2317    0.8901 H   0  0  0  0  0  0  0  0  0  0  0  0
    0.4807    1.5112   -1.0796 H   0  0  0  0  0  0  0  0  0  0  0  0
    0.7931    1.8161    0.6326 H   0  0  0  0  0  0  0  0  0  0  0  0
   -0.2057    0.0322    2.0596 H   0  0  0  0  0  0  0  0  0  0  0  0
    1.5261   -0.2025    2.0790 H   0  0  0  0  0  0  0  0  0  0  0  0
    0.5333   -1.6354    1.7968 H   0  0  0  0  0  0  0  0  0  0  0  0
  1  2  1  0
  2  3  1  0
  3  4  1  0
  4  5  1  0
  5  6  1  0
  5  7  1  0
  7  8  1  0
  7  9  1  0
  7 10  1  0
  2 11  1  0
 11 12  1  0
 12 13  1  0
 13 14  1  0
 14 15  1  6
 15 16  2  0
 15 17  1  0
 14 18  1  0
 18 19  1  0
 19 20  1  0
 20 21  1  0
 21 22  1  0
 22 23  1  0
 22 24  1  0
 22 25  1  0
 25 26  1  0
 25 27  1  0
 27 28  1  0
 29 28  1  6
 29 30  1  0
 31 30  1  1
 31 32  1  0
 32 33  1  0
 33 34  1  0
 34 35  1  1
 34 11  1  0
 34 14  1  0
 31 18  1  0
 29 21  1  0
 31 29  1  0
  1 36  1  0
  1 37  1  0
  1 38  1  0
  2 39  1  6
  3 40  1  0
  3 41  1  0
  4 42  1  0
  4 43  1  0
  5 44  1  6
  6 45  1  0
  8 46  1  0
  8 47  1  0
  8 48  1  0
  9 49  1  0
  9 50  1  0
  9 51  1  0
 10 52  1  0
 11 53  1  6
 12 54  1  0
 12 55  1  0
 13 56  1  0
 13 57  1  0
 17 58  1  0
 18 59  1  1
 19 60  1  0
 19 61  1  0
 20 62  1  0
 20 63  1  0
 21 64  1  6
 23 65  1  0
 23 66  1  0
 23 67  1  0
 24 68  1  0
 24 69  1  0
 24 70  1  0
 25 71  1  1
 26 72  1  0
 27 73  1  0
 27 74  1  0
 28 75  1  0
 28 76  1  0
 30 77  1  0
 30 78  1  0
 32 79  1  0
 32 80  1  0
 33 81  1  0
 33 82  1  0
 35 83  1  0
 35 84  1  0
 35 85  1  0
M  END
$$$$
