@<TRIPOS>MOLECULE
*****
 48 50 0 0 0
SMALL
GASTEIGER

@<TRIPOS>ATOM
      1 C           7.8622   -2.2407    0.8143 C.3     1  UNL1        0.0004
      2 N           6.5333   -1.7201    1.0637 N.am    1  UNL1       -0.3143
      3 C           5.6475   -1.4072    0.0041 C.2     1  UNL1        0.2466
      4 O           6.2393   -1.6667   -1.0995 O.2     1  UNL1       -0.2701
      5 C           4.3122   -0.8887    0.0879 C.ar    1  UNL1        0.0719
      6 C           3.5512   -0.5640    1.1786 C.ar    1  UNL1        0.1372
      7 F           4.1410   -0.7587    2.3675 F       1  UNL1       -0.2046
      8 C           2.2671   -0.0691    1.1260 C.ar    1  UNL1       -0.0042
      9 C           1.6605    0.1312   -0.0960 C.ar    1  UNL1        0.0392
     10 C           2.3959   -0.1845   -1.2182 C.ar    1  UNL1       -0.0394
     11 C           3.6802   -0.6789   -1.1447 C.ar    1  UNL1       -0.0451
     12 N           0.3449    0.6366   -0.2078 N.am    1  UNL1       -0.2676
     13 C          -0.8568   -0.1379   -0.2443 C.2     1  UNL1        0.1515
     14 S          -0.8866   -1.7039   -0.6935 S.2     1  UNL1       -0.0174
     15 N          -1.9742    0.6367    0.1553 N.am    1  UNL1       -0.2196
     16 C          -1.4093    1.9065    0.4355 C.2     1  UNL1        0.2489
     17 O          -1.7812    2.8610    1.1402 O.2     1  UNL1       -0.2725
     18 C          -0.1055    2.0306   -0.3110 C.3     1  UNL1        0.1123
     19 C          -0.4419    2.4022   -1.7245 C.3     1  UNL1       -0.0349
     20 C           0.8501    2.9719    0.3408 C.3     1  UNL1       -0.0349
     21 C          -3.3466    0.3202    0.2745 C.ar    1  UNL1        0.0436
     22 C          -4.2339    1.2961    0.6694 C.ar    1  UNL1       -0.0386
     23 C          -5.5854    1.0816    0.8154 C.ar    1  UNL1       -0.0420
     24 C          -6.1278   -0.1695    0.5621 C.ar    1  UNL1        0.0635
     25 C          -7.5302   -0.4376    0.7014 C.1     1  UNL1        0.0997
     26 N          -8.6519   -0.6674    0.8265 N.1     1  UNL1       -0.1909
     27 C          -5.2656   -1.1701    0.1642 C.ar    1  UNL1        0.0739
     28 C          -3.9233   -0.8869    0.0380 C.ar    1  UNL1       -0.0270
     29 C          -5.8278   -2.5210   -0.1129 C.3     1  UNL1        0.4187
     30 F          -6.4216   -2.9446    1.0834 F       1  UNL1       -0.1659
     31 F          -4.8697   -3.3965   -0.5344 F       1  UNL1       -0.1659
     32 F          -6.8640   -2.3700   -1.0254 F       1  UNL1       -0.1659
     33 H           8.5732   -1.3804    0.7636 H       1  UNL1        0.0426
     34 H           7.8850   -2.7893   -0.1420 H       1  UNL1        0.0426
     35 H           8.1776   -2.9059    1.6568 H       1  UNL1        0.0426
     36 H           6.2046   -1.5659    2.0383 H       1  UNL1        0.1487
     37 H           1.7586    0.1534    2.0504 H       1  UNL1        0.0665
     38 H           1.9505   -0.0396   -2.1917 H       1  UNL1        0.0636
     39 H           4.1872   -0.9015   -2.0958 H       1  UNL1        0.0626
     40 H          -1.2285    3.2099   -1.7211 H       1  UNL1        0.0255
     41 H          -0.8612    1.5470   -2.2797 H       1  UNL1        0.0255
     42 H           0.4306    2.8546   -2.2704 H       1  UNL1        0.0255
     43 H           1.8808    2.6473    0.1338 H       1  UNL1        0.0255
     44 H           0.6336    3.0687    1.4167 H       1  UNL1        0.0255
     45 H           0.6683    3.9862   -0.0965 H       1  UNL1        0.0255
     46 H          -3.9912    2.3208    0.9053 H       1  UNL1        0.0637
     47 H          -6.3156    1.8160    1.1221 H       1  UNL1        0.0631
     48 H          -3.3358   -1.7119   -0.2711 H       1  UNL1        0.0642
@<TRIPOS>BOND
     1     1     2    1
     2     2     3   am
     3     3     4    2
     4     3     5    1
     5     5     6   ar
     6     6     7    1
     7     6     8   ar
     8     8     9   ar
     9     9    10   ar
    10    10    11   ar
    11     9    12    1
    12    12    13    1
    13    13    14    2
    14    13    15    1
    15    15    16   am
    16    16    17    2
    17    16    18    1
    18    18    19    1
    19    18    20    1
    20    15    21    1
    21    21    22   ar
    22    22    23   ar
    23    23    24   ar
    24    24    25    1
    25    25    26    3
    26    24    27   ar
    27    27    28   ar
    28    27    29    1
    29    29    30    1
    30    29    31    1
    31    29    32    1
    32    11     5   ar
    33    18    12    1
    34    28    21   ar
    35     1    33    1
    36     1    34    1
    37     1    35    1
    38     2    36    1
    39     8    37    1
    40    10    38    1
    41    11    39    1
    42    19    40    1
    43    19    41    1
    44    19    42    1
    45    20    43    1
    46    20    44    1
    47    20    45    1
    48    22    46    1
    49    23    47    1
    50    28    48    1
