@<TRIPOS>MOLECULE
*****
 53 58 0 0 0
SMALL
GASTEIGER

@<TRIPOS>ATOM
      1 F          -4.1232    1.7791   -1.5971 F       1  UNL1       -0.2035
      2 C          -3.3910    0.8767   -0.8940 C.ar    1  UNL1        0.1449
      3 C          -2.0206    0.7794   -1.0076 C.ar    1  UNL1       -0.0168
      4 C          -1.2481   -0.1228   -0.3104 C.ar    1  UNL1       -0.0122
      5 C           0.2026   -0.2185   -0.4374 C.ar    1  UNL1        0.0185
      6 C           0.9889   -0.6181    0.6447 C.ar    1  UNL1        0.0391
      7 N           2.3215   -0.6981    0.4988 N.ar    1  UNL1       -0.2350
      8 C           2.9250   -0.3999   -0.6762 C.ar    1  UNL1        0.1632
      9 C           4.2736   -0.4282   -0.9991 C.ar    1  UNL1        0.0466
     10 C           5.3602   -0.8002   -0.1022 C.ar    1  UNL1       -0.0037
     11 C           5.7797   -2.1244   -0.0138 C.ar    1  UNL1       -0.0532
     12 C           6.7893   -2.5255    0.8080 C.ar    1  UNL1       -0.0591
     13 C           7.4207   -1.5707    1.5855 C.ar    1  UNL1       -0.0357
     14 C           7.0358   -0.2423    1.5292 C.ar    1  UNL1        0.0715
     15 N           7.6683    0.6711    2.2987 N.ar    1  UNL1       -0.2550
     16 C           7.2787    1.9703    2.2318 C.ar    1  UNL1        0.0283
     17 C           6.2526    2.3765    1.3962 C.ar    1  UNL1       -0.0430
     18 C           5.6066    1.4487    0.6113 C.ar    1  UNL1       -0.0506
     19 C           6.0061    0.1408    0.6853 C.ar    1  UNL1        0.0082
     20 C           4.3300   -0.0351   -2.3196 C.ar    1  UNL1        0.0597
     21 N           3.0548    0.2085   -2.7331 N.ar    1  UNL1       -0.1727
     22 N           2.2097   -0.0106   -1.7460 N.ar    1  UNL1       -0.2206
     23 C           0.8741    0.0718   -1.6070 C.ar    1  UNL1        0.0406
     24 C          -1.9074   -0.9836    0.5597 C.ar    1  UNL1       -0.0520
     25 C          -3.2790   -0.9075    0.6925 C.ar    1  UNL1       -0.0373
     26 C          -4.0294    0.0086   -0.0204 C.ar    1  UNL1        0.0655
     27 N          -5.4331    0.1094    0.0944 N.pl3   1  UNL1       -0.3253
     28 C          -6.0724    1.3481    0.5371 C.3     1  UNL1        0.0248
     29 C          -7.3962    0.9378    1.1586 C.3     1  UNL1        0.0117
     30 N          -8.2726    0.3440    0.1767 N.3     1  UNL1       -0.3130
     31 C          -7.5680   -0.3799   -0.8408 C.3     1  UNL1        0.0117
     32 C          -6.3322   -0.9926   -0.2136 C.3     1  UNL1        0.0248
     33 H          -1.5136    1.4507   -1.6847 H       1  UNL1        0.0653
     34 H           0.5160   -0.8591    1.5894 H       1  UNL1        0.0837
     35 H           5.2469   -2.8336   -0.6486 H       1  UNL1        0.0624
     36 H           7.0621   -3.5765    0.8238 H       1  UNL1        0.0618
     37 H           8.2098   -1.9072    2.2227 H       1  UNL1        0.0639
     38 H           7.7556    2.7333    2.8283 H       1  UNL1        0.0830
     39 H           5.9540    3.4283    1.3569 H       1  UNL1        0.0633
     40 H           4.8003    1.7657   -0.0459 H       1  UNL1        0.0625
     41 H           5.2425    0.0580   -2.9100 H       1  UNL1        0.0855
     42 H           0.2433    0.3848   -2.4512 H       1  UNL1        0.0837
     43 H          -1.3457   -1.7200    1.1388 H       1  UNL1        0.0624
     44 H          -3.8106   -1.5799    1.3746 H       1  UNL1        0.0637
     45 H          -5.4663    1.8430    1.3223 H       1  UNL1        0.0476
     46 H          -6.2943    2.0158   -0.3064 H       1  UNL1        0.0476
     47 H          -7.1416    0.1309    1.8975 H       1  UNL1        0.0439
     48 H          -7.8474    1.7723    1.6961 H       1  UNL1        0.0439
     49 H          -8.9649    1.0263   -0.2050 H       1  UNL1        0.1220
     50 H          -7.2700    0.2605   -1.6986 H       1  UNL1        0.0439
     51 H          -8.2079   -1.2241   -1.1826 H       1  UNL1        0.0439
     52 H          -5.8421   -1.6400   -0.9666 H       1  UNL1        0.0476
     53 H          -6.6312   -1.5417    0.7044 H       1  UNL1        0.0476
@<TRIPOS>BOND
     1     1     2    1
     2     2     3   ar
     3     3     4   ar
     4     4     5    1
     5     5     6   ar
     6     6     7   ar
     7     7     8   ar
     8     8     9   ar
     9     9    10    1
    10    10    11   ar
    11    11    12   ar
    12    12    13   ar
    13    13    14   ar
    14    14    15   ar
    15    15    16   ar
    16    16    17   ar
    17    17    18   ar
    18    18    19   ar
    19     9    20   ar
    20    20    21   ar
    21    21    22   ar
    22    22    23   ar
    23     4    24   ar
    24    24    25   ar
    25    25    26   ar
    26    26    27    1
    27    27    28    1
    28    28    29    1
    29    29    30    1
    30    30    31    1
    31    31    32    1
    32    26     2   ar
    33    32    27    1
    34    23     5   ar
    35    22     8   ar
    36    19    10   ar
    37    19    14   ar
    38     3    33    1
    39     6    34    1
    40    11    35    1
    41    12    36    1
    42    13    37    1
    43    16    38    1
    44    17    39    1
    45    18    40    1
    46    20    41    1
    47    23    42    1
    48    24    43    1
    49    25    44    1
    50    28    45    1
    51    28    46    1
    52    29    47    1
    53    29    48    1
    54    30    49    1
    55    31    50    1
    56    31    51    1
    57    32    52    1
    58    32    53    1
