
     RDKit          3D

 53 58  0  0  0  0  0  0  0  0999 V2000
   -4.1232    1.7791   -1.5971 F   0  0  0  0  0  0  0  0  0  0  0  0
   -3.3910    0.8767   -0.8940 C   0  0  0  0  0  0  0  0  0  0  0  0
   -2.0206    0.7794   -1.0076 C   0  0  0  0  0  0  0  0  0  0  0  0
   -1.2481   -0.1228   -0.3104 C   0  0  0  0  0  0  0  0  0  0  0  0
    0.2026   -0.2185   -0.4374 C   0  0  0  0  0  0  0  0  0  0  0  0
    0.9889   -0.6181    0.6447 C   0  0  0  0  0  0  0  0  0  0  0  0
    2.3215   -0.6981    0.4988 N   0  0  0  0  0  0  0  0  0  0  0  0
    2.9250   -0.3999   -0.6762 C   0  0  0  0  0  0  0  0  0  0  0  0
    4.2736   -0.4282   -0.9991 C   0  0  0  0  0  0  0  0  0  0  0  0
    5.3602   -0.8002   -0.1022 C   0  0  0  0  0  0  0  0  0  0  0  0
    5.7797   -2.1244   -0.0138 C   0  0  0  0  0  0  0  0  0  0  0  0
    6.7893   -2.5255    0.8080 C   0  0  0  0  0  0  0  0  0  0  0  0
    7.4207   -1.5707    1.5855 C   0  0  0  0  0  0  0  0  0  0  0  0
    7.0358   -0.2423    1.5292 C   0  0  0  0  0  0  0  0  0  0  0  0
    7.6683    0.6711    2.2987 N   0  0  0  0  0  0  0  0  0  0  0  0
    7.2787    1.9703    2.2318 C   0  0  0  0  0  0  0  0  0  0  0  0
    6.2526    2.3765    1.3962 C   0  0  0  0  0  0  0  0  0  0  0  0
    5.6066    1.4487    0.6113 C   0  0  0  0  0  0  0  0  0  0  0  0
    6.0061    0.1408    0.6853 C   0  0  0  0  0  0  0  0  0  0  0  0
    4.3300   -0.0351   -2.3196 C   0  0  0  0  0  0  0  0  0  0  0  0
    3.0548    0.2085   -2.7331 N   0  0  0  0  0  0  0  0  0  0  0  0
    2.2097   -0.0106   -1.7460 N   0  0  0  0  0  0  0  0  0  0  0  0
    0.8741    0.0718   -1.6070 C   0  0  0  0  0  0  0  0  0  0  0  0
   -1.9074   -0.9836    0.5597 C   0  0  0  0  0  0  0  0  0  0  0  0
   -3.2790   -0.9075    0.6925 C   0  0  0  0  0  0  0  0  0  0  0  0
   -4.0294    0.0086   -0.0204 C   0  0  0  0  0  0  0  0  0  0  0  0
   -5.4331    0.1094    0.0944 N   0  0  0  0  0  0  0  0  0  0  0  0
   -6.0724    1.3481    0.5371 C   0  0  0  0  0  0  0  0  0  0  0  0
   -7.3962    0.9378    1.1586 C   0  0  0  0  0  0  0  0  0  0  0  0
   -8.2726    0.3440    0.1767 N   0  0  0  0  0  0  0  0  0  0  0  0
   -7.5680   -0.3799   -0.8408 C   0  0  0  0  0  0  0  0  0  0  0  0
   -6.3322   -0.9926   -0.2136 C   0  0  0  0  0  0  0  0  0  0  0  0
   -1.5136    1.4507   -1.6847 H   0  0  0  0  0  0  0  0  0  0  0  0
    0.5160   -0.8591    1.5894 H   0  0  0  0  0  0  0  0  0  0  0  0
    5.2469   -2.8336   -0.6486 H   0  0  0  0  0  0  0  0  0  0  0  0
    7.0621   -3.5765    0.8238 H   0  0  0  0  0  0  0  0  0  0  0  0
    8.2098   -1.9072    2.2227 H   0  0  0  0  0  0  0  0  0  0  0  0
    7.7556    2.7333    2.8283 H   0  0  0  0  0  0  0  0  0  0  0  0
    5.9540    3.4283    1.3569 H   0  0  0  0  0  0  0  0  0  0  0  0
    4.8003    1.7657   -0.0459 H   0  0  0  0  0  0  0  0  0  0  0  0
    5.2425    0.0580   -2.9100 H   0  0  0  0  0  0  0  0  0  0  0  0
    0.2433    0.3848   -2.4512 H   0  0  0  0  0  0  0  0  0  0  0  0
   -1.3457   -1.7200    1.1388 H   0  0  0  0  0  0  0  0  0  0  0  0
   -3.8106   -1.5799    1.3746 H   0  0  0  0  0  0  0  0  0  0  0  0
   -5.4663    1.8430    1.3223 H   0  0  0  0  0  0  0  0  0  0  0  0
   -6.2943    2.0158   -0.3064 H   0  0  0  0  0  0  0  0  0  0  0  0
   -7.1416    0.1309    1.8975 H   0  0  0  0  0  0  0  0  0  0  0  0
   -7.8474    1.7723    1.6961 H   0  0  0  0  0  0  0  0  0  0  0  0
   -8.9649    1.0263   -0.2050 H   0  0  0  0  0  0  0  0  0  0  0  0
   -7.2700    0.2605   -1.6986 H   0  0  0  0  0  0  0  0  0  0  0  0
   -8.2079   -1.2241   -1.1826 H   0  0  0  0  0  0  0  0  0  0  0  0
   -5.8421   -1.6400   -0.9666 H   0  0  0  0  0  0  0  0  0  0  0  0
   -6.6312   -1.5417    0.7044 H   0  0  0  0  0  0  0  0  0  0  0  0
  1  2  1  0
  2  3  2  0
  3  4  1  0
  4  5  1  0
  5  6  1  0
  6  7  2  0
  7  8  1  0
  8  9  2  0
  9 10  1  0
 10 11  2  0
 11 12  1  0
 12 13  2  0
 13 14  1  0
 14 15  2  0
 15 16  1  0
 16 17  2  0
 17 18  1  0
 18 19  2  0
  9 20  1  0
 20 21  2  0
 21 22  1  0
 22 23  1  0
  4 24  2  0
 24 25  1  0
 25 26  2  0
 26 27  1  0
 27 28  1  0
 28 29  1  0
 29 30  1  0
 30 31  1  0
 31 32  1  0
 26  2  1  0
 32 27  1  0
 23  5  2  0
 22  8  1  0
 19 10  1  0
 19 14  1  0
  3 33  1  0
  6 34  1  0
 11 35  1  0
 12 36  1  0
 13 37  1  0
 16 38  1  0
 17 39  1  0
 18 40  1  0
 20 41  1  0
 23 42  1  0
 24 43  1  0
 25 44  1  0
 28 45  1  0
 28 46  1  0
 29 47  1  0
 29 48  1  0
 30 49  1  0
 31 50  1  0
 31 51  1  0
 32 52  1  0
 32 53  1  0
M  END
$$$$
