@<TRIPOS>MOLECULE
*****
 75 78 0 0 0
SMALL
GASTEIGER

@<TRIPOS>ATOM
      1 C          -6.0253   -4.0624    2.2069 C.3     1  UNL1        0.0790
      2 O          -6.7529   -2.9674    1.6499 O.3     1  UNL1       -0.4915
      3 C          -6.0618   -1.8717    1.1047 C.ar    1  UNL1        0.1615
      4 C          -4.6831   -1.8322    1.0972 C.ar    1  UNL1       -0.0160
      5 C          -3.9888   -0.7673    0.5673 C.ar    1  UNL1       -0.0548
      6 C          -4.6647    0.3215    0.0137 C.ar    1  UNL1       -0.0422
      7 C          -3.9507    1.4843   -0.5657 C.3     1  UNL1       -0.0119
      8 C          -3.6993    2.5645    0.4598 C.3     1  UNL1        0.0158
      9 N          -2.8972    2.1129    1.5705 N.pl3   1  UNL1       -0.3131
     10 C          -1.5565    1.6232    1.4097 C.ar    1  UNL1        0.2169
     11 N          -0.8796    1.2076    2.4791 N.ar    1  UNL1       -0.2221
     12 C           0.3870    0.7435    2.3243 C.ar    1  UNL1        0.0466
     13 C           1.0234    0.6768    1.1014 C.ar    1  UNL1        0.0945
     14 C           2.3725    0.1639    0.9917 C.2     1  UNL1        0.2489
     15 O           2.9573    0.0666   -0.1166 O.2     1  UNL1       -0.2700
     16 N           3.0899   -0.2529    2.1560 N.am    1  UNL1       -0.3112
     17 C           4.4353   -0.7605    1.9982 C.3     1  UNL1        0.0133
     18 C           5.3932    0.2093    1.3889 C.3     1  UNL1       -0.0215
     19 C           6.7509   -0.4917    1.3042 C.3     1  UNL1        0.0161
     20 N           6.7026   -1.6828    0.5018 N.am    1  UNL1       -0.3014
     21 C           6.9308   -1.7821   -0.9309 C.3     1  UNL1        0.0151
     22 C           6.8922   -3.2566   -1.2397 C.3     1  UNL1       -0.0289
     23 C           5.9895   -3.8314   -0.1449 C.3     1  UNL1        0.0256
     24 C           6.4104   -3.0001    1.0132 C.2     1  UNL1        0.2156
     25 O           6.4792   -3.4200    2.1896 O.2     1  UNL1       -0.2756
     26 C           0.2961    1.1139    0.0207 C.ar    1  UNL1        0.1362
     27 N           0.7957    1.1184   -1.3038 N.pl3   1  UNL1       -0.3255
     28 C          -0.0822    1.6204   -2.3756 C.3     1  UNL1        0.0220
     29 C           0.5779    1.5466   -3.7282 C.3     1  UNL1       -0.0345
     30 C           1.4993    2.7448   -3.7349 C.3     1  UNL1       -0.0513
     31 C           0.8802    3.7479   -2.7879 C.3     1  UNL1       -0.0513
     32 C          -0.3531    3.0843   -2.2059 C.3     1  UNL1       -0.0345
     33 N          -0.9548    1.5647    0.2247 N.ar    1  UNL1       -0.1990
     34 C          -6.0452    0.2511    0.0370 C.ar    1  UNL1       -0.0131
     35 C          -6.7398   -0.8087    0.5639 C.ar    1  UNL1        0.1617
     36 O          -8.1264   -0.8577    0.5762 O.3     1  UNL1       -0.4914
     37 C          -8.8954    0.2218    0.0266 C.3     1  UNL1        0.0790
     38 H          -5.3754   -3.6393    2.9943 H       1  UNL1        0.0660
     39 H          -6.7168   -4.8216    2.5746 H       1  UNL1        0.0660
     40 H          -5.3915   -4.4606    1.3638 H       1  UNL1        0.0660
     41 H          -4.1692   -2.6932    1.5347 H       1  UNL1        0.0655
     42 H          -2.9132   -0.7876    0.5850 H       1  UNL1        0.0621
     43 H          -3.0207    1.1891   -1.0864 H       1  UNL1        0.0328
     44 H          -4.6382    1.9323   -1.3246 H       1  UNL1        0.0328
     45 H          -4.6796    2.9030    0.8328 H       1  UNL1        0.0465
     46 H          -3.2094    3.4453    0.0161 H       1  UNL1        0.0465
     47 H          -3.2952    2.1366    2.5452 H       1  UNL1        0.1489
     48 H           0.8668    0.4228    3.2565 H       1  UNL1        0.0839
     49 H           2.7027   -0.2135    3.1127 H       1  UNL1        0.1490
     50 H           4.8555   -1.0440    2.9849 H       1  UNL1        0.0462
     51 H           4.3687   -1.6950    1.3997 H       1  UNL1        0.0462
     52 H           5.1705    0.5533    0.3834 H       1  UNL1        0.0295
     53 H           5.4816    1.0950    2.0406 H       1  UNL1        0.0295
     54 H           7.1826   -0.6751    2.3006 H       1  UNL1        0.0465
     55 H           7.4583    0.2147    0.7846 H       1  UNL1        0.0465
     56 H           6.1095   -1.2747   -1.4960 H       1  UNL1        0.0465
     57 H           7.8916   -1.3645   -1.2533 H       1  UNL1        0.0465
     58 H           6.4652   -3.4780   -2.2374 H       1  UNL1        0.0285
     59 H           7.8836   -3.7406   -1.1538 H       1  UNL1        0.0285
     60 H           6.1545   -4.9017    0.0073 H       1  UNL1        0.0359
     61 H           4.9380   -3.6005   -0.3976 H       1  UNL1        0.0359
     62 H           1.7120    0.8133   -1.6389 H       1  UNL1        0.1478
     63 H          -1.0313    1.0735   -2.3952 H       1  UNL1        0.0498
     64 H          -0.1370    1.6218   -4.5561 H       1  UNL1        0.0283
     65 H           1.1649    0.6016   -3.7563 H       1  UNL1        0.0283
     66 H           1.5240    3.1844   -4.7363 H       1  UNL1        0.0266
     67 H           2.5078    2.4929   -3.3266 H       1  UNL1        0.0266
     68 H           0.5821    4.6827   -3.3340 H       1  UNL1        0.0266
     69 H           1.5891    4.0647   -1.9827 H       1  UNL1        0.0266
     70 H          -0.4114    3.4176   -1.1465 H       1  UNL1        0.0283
     71 H          -1.2237    3.4249   -2.7988 H       1  UNL1        0.0283
     72 H          -6.5853    1.0965   -0.3932 H       1  UNL1        0.0658
     73 H          -9.9343   -0.0972   -0.1426 H       1  UNL1        0.0660
     74 H          -8.4717    0.5597   -0.9476 H       1  UNL1        0.0660
     75 H          -8.9119    1.0189    0.7868 H       1  UNL1        0.0660
@<TRIPOS>BOND
     1     1     2    1
     2     2     3    1
     3     3     4   ar
     4     4     5   ar
     5     5     6   ar
     6     6     7    1
     7     7     8    1
     8     8     9    1
     9     9    10    1
    10    10    11   ar
    11    11    12   ar
    12    12    13   ar
    13    13    14    1
    14    14    15    2
    15    14    16   am
    16    16    17    1
    17    17    18    1
    18    18    19    1
    19    19    20    1
    20    20    21    1
    21    21    22    1
    22    22    23    1
    23    23    24    1
    24    24    25    2
    25    13    26   ar
    26    26    27    1
    27    27    28    1
    28    28    29    1
    29    29    30    1
    30    30    31    1
    31    31    32    1
    32    26    33   ar
    33     6    34   ar
    34    34    35   ar
    35    35    36    1
    36    36    37    1
    37    35     3   ar
    38    33    10   ar
    39    24    20   am
    40    32    28    1
    41     1    38    1
    42     1    39    1
    43     1    40    1
    44     4    41    1
    45     5    42    1
    46     7    43    1
    47     7    44    1
    48     8    45    1
    49     8    46    1
    50     9    47    1
    51    12    48    1
    52    16    49    1
    53    17    50    1
    54    17    51    1
    55    18    52    1
    56    18    53    1
    57    19    54    1
    58    19    55    1
    59    21    56    1
    60    21    57    1
    61    22    58    1
    62    22    59    1
    63    23    60    1
    64    23    61    1
    65    27    62    1
    66    28    63    1
    67    29    64    1
    68    29    65    1
    69    30    66    1
    70    30    67    1
    71    31    68    1
    72    31    69    1
    73    32    70    1
    74    32    71    1
    75    34    72    1
    76    37    73    1
    77    37    74    1
    78    37    75    1
