
     RDKit          3D

 75 78  0  0  0  0  0  0  0  0999 V2000
   -6.0253   -4.0624    2.2069 C   0  0  0  0  0  0  0  0  0  0  0  0
   -6.7529   -2.9674    1.6499 O   0  0  0  0  0  0  0  0  0  0  0  0
   -6.0618   -1.8717    1.1047 C   0  0  0  0  0  0  0  0  0  0  0  0
   -4.6831   -1.8322    1.0972 C   0  0  0  0  0  0  0  0  0  0  0  0
   -3.9888   -0.7673    0.5673 C   0  0  0  0  0  0  0  0  0  0  0  0
   -4.6647    0.3215    0.0137 C   0  0  0  0  0  0  0  0  0  0  0  0
   -3.9507    1.4843   -0.5657 C   0  0  0  0  0  0  0  0  0  0  0  0
   -3.6993    2.5645    0.4598 C   0  0  0  0  0  0  0  0  0  0  0  0
   -2.8972    2.1129    1.5705 N   0  0  0  0  0  0  0  0  0  0  0  0
   -1.5565    1.6232    1.4097 C   0  0  0  0  0  0  0  0  0  0  0  0
   -0.8796    1.2076    2.4791 N   0  0  0  0  0  0  0  0  0  0  0  0
    0.3870    0.7435    2.3243 C   0  0  0  0  0  0  0  0  0  0  0  0
    1.0234    0.6768    1.1014 C   0  0  0  0  0  0  0  0  0  0  0  0
    2.3725    0.1639    0.9917 C   0  0  0  0  0  0  0  0  0  0  0  0
    2.9573    0.0666   -0.1166 O   0  0  0  0  0  0  0  0  0  0  0  0
    3.0899   -0.2529    2.1560 N   0  0  0  0  0  0  0  0  0  0  0  0
    4.4353   -0.7605    1.9982 C   0  0  0  0  0  0  0  0  0  0  0  0
    5.3932    0.2093    1.3889 C   0  0  0  0  0  0  0  0  0  0  0  0
    6.7509   -0.4917    1.3042 C   0  0  0  0  0  0  0  0  0  0  0  0
    6.7026   -1.6828    0.5018 N   0  0  0  0  0  0  0  0  0  0  0  0
    6.9308   -1.7821   -0.9309 C   0  0  0  0  0  0  0  0  0  0  0  0
    6.8922   -3.2566   -1.2397 C   0  0  0  0  0  0  0  0  0  0  0  0
    5.9895   -3.8314   -0.1449 C   0  0  0  0  0  0  0  0  0  0  0  0
    6.4104   -3.0001    1.0132 C   0  0  0  0  0  0  0  0  0  0  0  0
    6.4792   -3.4200    2.1896 O   0  0  0  0  0  0  0  0  0  0  0  0
    0.2961    1.1139    0.0207 C   0  0  0  0  0  0  0  0  0  0  0  0
    0.7957    1.1184   -1.3038 N   0  0  0  0  0  0  0  0  0  0  0  0
   -0.0822    1.6204   -2.3756 C   0  0  0  0  0  0  0  0  0  0  0  0
    0.5779    1.5466   -3.7282 C   0  0  0  0  0  0  0  0  0  0  0  0
    1.4993    2.7448   -3.7349 C   0  0  0  0  0  0  0  0  0  0  0  0
    0.8802    3.7479   -2.7879 C   0  0  0  0  0  0  0  0  0  0  0  0
   -0.3531    3.0843   -2.2059 C   0  0  0  0  0  0  0  0  0  0  0  0
   -0.9548    1.5647    0.2247 N   0  0  0  0  0  0  0  0  0  0  0  0
   -6.0452    0.2511    0.0370 C   0  0  0  0  0  0  0  0  0  0  0  0
   -6.7398   -0.8087    0.5639 C   0  0  0  0  0  0  0  0  0  0  0  0
   -8.1264   -0.8577    0.5762 O   0  0  0  0  0  0  0  0  0  0  0  0
   -8.8954    0.2218    0.0266 C   0  0  0  0  0  0  0  0  0  0  0  0
   -5.3754   -3.6393    2.9943 H   0  0  0  0  0  0  0  0  0  0  0  0
   -6.7168   -4.8216    2.5746 H   0  0  0  0  0  0  0  0  0  0  0  0
   -5.3915   -4.4606    1.3638 H   0  0  0  0  0  0  0  0  0  0  0  0
   -4.1692   -2.6932    1.5347 H   0  0  0  0  0  0  0  0  0  0  0  0
   -2.9132   -0.7876    0.5850 H   0  0  0  0  0  0  0  0  0  0  0  0
   -3.0207    1.1891   -1.0864 H   0  0  0  0  0  0  0  0  0  0  0  0
   -4.6382    1.9323   -1.3246 H   0  0  0  0  0  0  0  0  0  0  0  0
   -4.6796    2.9030    0.8328 H   0  0  0  0  0  0  0  0  0  0  0  0
   -3.2094    3.4453    0.0161 H   0  0  0  0  0  0  0  0  0  0  0  0
   -3.2952    2.1366    2.5452 H   0  0  0  0  0  0  0  0  0  0  0  0
    0.8668    0.4228    3.2565 H   0  0  0  0  0  0  0  0  0  0  0  0
    2.7027   -0.2135    3.1127 H   0  0  0  0  0  0  0  0  0  0  0  0
    4.8555   -1.0440    2.9849 H   0  0  0  0  0  0  0  0  0  0  0  0
    4.3687   -1.6950    1.3997 H   0  0  0  0  0  0  0  0  0  0  0  0
    5.1705    0.5533    0.3834 H   0  0  0  0  0  0  0  0  0  0  0  0
    5.4816    1.0950    2.0406 H   0  0  0  0  0  0  0  0  0  0  0  0
    7.1826   -0.6751    2.3006 H   0  0  0  0  0  0  0  0  0  0  0  0
    7.4583    0.2147    0.7846 H   0  0  0  0  0  0  0  0  0  0  0  0
    6.1095   -1.2747   -1.4960 H   0  0  0  0  0  0  0  0  0  0  0  0
    7.8916   -1.3645   -1.2533 H   0  0  0  0  0  0  0  0  0  0  0  0
    6.4652   -3.4780   -2.2374 H   0  0  0  0  0  0  0  0  0  0  0  0
    7.8836   -3.7406   -1.1538 H   0  0  0  0  0  0  0  0  0  0  0  0
    6.1545   -4.9017    0.0073 H   0  0  0  0  0  0  0  0  0  0  0  0
    4.9380   -3.6005   -0.3976 H   0  0  0  0  0  0  0  0  0  0  0  0
    1.7120    0.8133   -1.6389 H   0  0  0  0  0  0  0  0  0  0  0  0
   -1.0313    1.0735   -2.3952 H   0  0  0  0  0  0  0  0  0  0  0  0
   -0.1370    1.6218   -4.5561 H   0  0  0  0  0  0  0  0  0  0  0  0
    1.1649    0.6016   -3.7563 H   0  0  0  0  0  0  0  0  0  0  0  0
    1.5240    3.1844   -4.7363 H   0  0  0  0  0  0  0  0  0  0  0  0
    2.5078    2.4929   -3.3266 H   0  0  0  0  0  0  0  0  0  0  0  0
    0.5821    4.6827   -3.3340 H   0  0  0  0  0  0  0  0  0  0  0  0
    1.5891    4.0647   -1.9827 H   0  0  0  0  0  0  0  0  0  0  0  0
   -0.4114    3.4176   -1.1465 H   0  0  0  0  0  0  0  0  0  0  0  0
   -1.2237    3.4249   -2.7988 H   0  0  0  0  0  0  0  0  0  0  0  0
   -6.5853    1.0965   -0.3932 H   0  0  0  0  0  0  0  0  0  0  0  0
   -9.9343   -0.0972   -0.1426 H   0  0  0  0  0  0  0  0  0  0  0  0
   -8.4717    0.5597   -0.9476 H   0  0  0  0  0  0  0  0  0  0  0  0
   -8.9119    1.0189    0.7868 H   0  0  0  0  0  0  0  0  0  0  0  0
  1  2  1  0
  2  3  1  0
  3  4  2  0
  4  5  1  0
  5  6  2  0
  6  7  1  0
  7  8  1  0
  8  9  1  0
  9 10  1  0
 10 11  2  0
 11 12  1  0
 12 13  2  0
 13 14  1  0
 14 15  2  0
 14 16  1  0
 16 17  1  0
 17 18  1  0
 18 19  1  0
 19 20  1  0
 20 21  1  0
 21 22  1  0
 22 23  1  0
 23 24  1  0
 24 25  2  0
 13 26  1  0
 26 27  1  0
 27 28  1  0
 28 29  1  0
 29 30  1  0
 30 31  1  0
 31 32  1  0
 26 33  2  0
  6 34  1  0
 34 35  2  0
 35 36  1  0
 36 37  1  0
 35  3  1  0
 33 10  1  0
 24 20  1  0
 32 28  1  0
  1 38  1  0
  1 39  1  0
  1 40  1  0
  4 41  1  0
  5 42  1  0
  7 43  1  0
  7 44  1  0
  8 45  1  0
  8 46  1  0
  9 47  1  0
 12 48  1  0
 16 49  1  0
 17 50  1  0
 17 51  1  0
 18 52  1  0
 18 53  1  0
 19 54  1  0
 19 55  1  0
 21 56  1  0
 21 57  1  0
 22 58  1  0
 22 59  1  0
 23 60  1  0
 23 61  1  0
 27 62  1  0
 28 63  1  0
 29 64  1  0
 29 65  1  0
 30 66  1  0
 30 67  1  0
 31 68  1  0
 31 69  1  0
 32 70  1  0
 32 71  1  0
 34 72  1  0
 37 73  1  0
 37 74  1  0
 37 75  1  0
M  END
$$$$
