@<TRIPOS>MOLECULE
*****
 85 89 0 0 0
SMALL
GASTEIGER

@<TRIPOS>ATOM
      1 C           1.5248   -4.3991    3.7743 C.3     1  UNL1       -0.0130
      2 N           2.2226   -5.1164    2.8333 N.3     1  UNL1       -0.3083
      3 C           2.5987   -6.4615    3.2728 C.3     1  UNL1       -0.0130
      4 C           2.3403   -4.9069    1.4745 C.3     1  UNL1       -0.0003
      5 C           3.0695   -3.7837    0.8941 C.3     1  UNL1       -0.0243
      6 C           2.5781   -2.4090    0.9893 C.3     1  UNL1        0.0162
      7 N           1.3150   -2.1507    0.2444 N.am    1  UNL1       -0.2956
      8 C           1.5536   -1.7632   -1.1428 C.3     1  UNL1        0.0398
      9 C           2.1904   -0.4403   -1.2775 C.ar    1  UNL1       -0.0301
     10 C           3.5811   -0.3508   -1.4187 C.ar    1  UNL1       -0.0565
     11 C           4.2089    0.8672   -1.5249 C.ar    1  UNL1       -0.0537
     12 C           3.4897    2.0569   -1.4969 C.ar    1  UNL1       -0.0179
     13 C           4.2304    3.3092   -1.6137 C.ar    1  UNL1       -0.0178
     14 C           5.5261    3.3836   -1.0944 C.ar    1  UNL1       -0.0527
     15 C           6.2792    4.5350   -1.1748 C.ar    1  UNL1       -0.0428
     16 C           5.7624    5.6612   -1.7805 C.ar    1  UNL1        0.0410
     17 CL          6.7335    7.0966   -1.8664 Cl      1  UNL1       -0.0835
     18 C           4.4891    5.5973   -2.2940 C.ar    1  UNL1       -0.0428
     19 C           3.7471    4.4346   -2.2050 C.ar    1  UNL1       -0.0527
     20 C           2.1458    1.9754   -1.3610 C.ar    1  UNL1       -0.0537
     21 C           1.5172    0.7444   -1.2539 C.ar    1  UNL1       -0.0565
     22 C           0.0486   -2.1994    0.8015 C.2     1  UNL1        0.2357
     23 O           0.0282   -2.3330    2.0877 O.2     1  UNL1       -0.2736
     24 C          -1.2438   -2.1385    0.1915 C.3     1  UNL1        0.1015
     25 N          -1.9759   -0.9805   -0.0692 N.ar    1  UNL1       -0.3177
     26 C          -2.0262   -0.4552   -1.3163 C.ar    1  UNL1        0.0161
     27 C          -2.8322    0.6259   -1.6476 C.ar    1  UNL1        0.0394
     28 C          -2.8661    1.1593   -3.0481 C.3     1  UNL1        0.0071
     29 C          -4.0744    0.6829   -3.7389 C.ar    1  UNL1       -0.0054
     30 C          -4.1738   -0.4883   -4.4971 C.ar    1  UNL1        0.0528
     31 N          -5.4270   -0.5412   -4.9395 N.ar    1  UNL1       -0.1796
     32 N          -6.1334    0.4797   -4.5378 N.ar    1  UNL1       -0.2742
     33 C          -7.5260    0.7035   -4.8526 C.3     1  UNL1        0.0302
     34 C          -5.3072    1.2518   -3.7894 C.ar    1  UNL1        0.0286
     35 C          -3.6252    1.2101   -0.6857 C.ar    1  UNL1        0.2773
     36 O          -4.3772    2.1894   -0.9161 O.2     1  UNL1       -0.2655
     37 N          -3.5588    0.6744    0.5421 N.ar    1  UNL1       -0.1848
     38 C          -2.7634   -0.3787    0.8331 C.ar    1  UNL1        0.1733
     39 S          -2.7385   -0.9231    2.5051 S.3     1  UNL1       -0.0829
     40 C          -1.6030    0.0215    3.5601 C.3     1  UNL1        0.0262
     41 C          -2.0813    1.4275    3.7236 C.ar    1  UNL1       -0.0370
     42 C          -1.6510    2.3860    2.8345 C.ar    1  UNL1       -0.0551
     43 C          -2.0731    3.6750    2.9557 C.ar    1  UNL1       -0.0262
     44 C          -2.9395    4.0584    3.9667 C.ar    1  UNL1        0.1234
     45 F          -3.3360    5.3591    4.0485 F       1  UNL1       -0.2055
     46 C          -3.3580    3.0850    4.8458 C.ar    1  UNL1       -0.0262
     47 C          -2.9377    1.7761    4.7335 C.ar    1  UNL1       -0.0551
     48 H           0.4089   -4.5035    3.6482 H       1  UNL1        0.0391
     49 H           1.7075   -4.8881    4.8044 H       1  UNL1        0.0391
     50 H           1.8116   -3.3450    3.9085 H       1  UNL1        0.0391
     51 H           1.7149   -7.1386    3.0998 H       1  UNL1        0.0391
     52 H           3.4108   -6.8676    2.6728 H       1  UNL1        0.0391
     53 H           2.7653   -6.4406    4.3564 H       1  UNL1        0.0391
     54 H           1.2885   -5.0081    1.0302 H       1  UNL1        0.0427
     55 H           2.8349   -5.8586    1.0392 H       1  UNL1        0.0427
     56 H           3.4547   -4.0253   -0.1587 H       1  UNL1        0.0293
     57 H           4.0852   -3.7599    1.4483 H       1  UNL1        0.0293
     58 H           2.3512   -2.1579    2.0413 H       1  UNL1        0.0465
     59 H           3.3297   -1.6345    0.6942 H       1  UNL1        0.0465
     60 H           2.2461   -2.5097   -1.6335 H       1  UNL1        0.0514
     61 H           0.6332   -1.8318   -1.7431 H       1  UNL1        0.0514
     62 H           4.2183   -1.2465   -1.4556 H       1  UNL1        0.0621
     63 H           5.3065    0.8869   -1.6337 H       1  UNL1        0.0624
     64 H           5.9901    2.5278   -0.6031 H       1  UNL1        0.0624
     65 H           7.2827    4.5730   -0.7661 H       1  UNL1        0.0632
     66 H           4.0979    6.4857   -2.7648 H       1  UNL1        0.0632
     67 H           2.7567    4.4482   -2.6263 H       1  UNL1        0.0624
     68 H           1.5566    2.8647   -1.3354 H       1  UNL1        0.0624
     69 H           0.4523    0.7604   -1.1439 H       1  UNL1        0.0621
     70 H          -1.9936   -2.8482    0.7370 H       1  UNL1        0.0588
     71 H          -1.2075   -2.7170   -0.8147 H       1  UNL1        0.0588
     72 H          -1.4417   -0.8525   -2.1379 H       1  UNL1        0.0814
     73 H          -1.9241    0.7987   -3.5296 H       1  UNL1        0.0365
     74 H          -2.8614    2.2614   -3.0533 H       1  UNL1        0.0365
     75 H          -3.3493   -1.1515   -4.6384 H       1  UNL1        0.0851
     76 H          -7.6269    1.7138   -5.2831 H       1  UNL1        0.0473
     77 H          -7.9309   -0.0999   -5.4861 H       1  UNL1        0.0473
     78 H          -8.0822    0.6819   -3.8844 H       1  UNL1        0.0473
     79 H          -5.6461    2.1793   -3.3279 H       1  UNL1        0.0829
     80 H          -1.5355   -0.5121    4.5157 H       1  UNL1        0.0429
     81 H          -0.6246    0.0501    3.0831 H       1  UNL1        0.0429
     82 H          -0.9639    2.0937    2.0270 H       1  UNL1        0.0621
     83 H          -1.7359    4.4376    2.2566 H       1  UNL1        0.0646
     84 H          -4.0442    3.4056    5.6397 H       1  UNL1        0.0646
     85 H          -3.2873    1.0207    5.4483 H       1  UNL1        0.0621
@<TRIPOS>BOND
     1     1     2    1
     2     2     3    1
     3     2     4    1
     4     4     5    1
     5     5     6    1
     6     6     7    1
     7     7     8    1
     8     8     9    1
     9     9    10   ar
    10    10    11   ar
    11    11    12   ar
    12    12    13    1
    13    13    14   ar
    14    14    15   ar
    15    15    16   ar
    16    16    17    1
    17    16    18   ar
    18    18    19   ar
    19    12    20   ar
    20    20    21   ar
    21     7    22   am
    22    22    23    2
    23    22    24    1
    24    24    25    1
    25    25    26   ar
    26    26    27   ar
    27    27    28    1
    28    28    29    1
    29    29    30   ar
    30    30    31   ar
    31    31    32   ar
    32    32    33    1
    33    32    34   ar
    34    27    35   ar
    35    35    36    2
    36    35    37   ar
    37    37    38   ar
    38    38    39    1
    39    39    40    1
    40    40    41    1
    41    41    42   ar
    42    42    43   ar
    43    43    44   ar
    44    44    45    1
    45    44    46   ar
    46    46    47   ar
    47    21     9   ar
    48    38    25   ar
    49    47    41   ar
    50    19    13   ar
    51    34    29   ar
    52     1    48    1
    53     1    49    1
    54     1    50    1
    55     3    51    1
    56     3    52    1
    57     3    53    1
    58     4    54    1
    59     4    55    1
    60     5    56    1
    61     5    57    1
    62     6    58    1
    63     6    59    1
    64     8    60    1
    65     8    61    1
    66    10    62    1
    67    11    63    1
    68    14    64    1
    69    15    65    1
    70    18    66    1
    71    19    67    1
    72    20    68    1
    73    21    69    1
    74    24    70    1
    75    24    71    1
    76    26    72    1
    77    28    73    1
    78    28    74    1
    79    30    75    1
    80    33    76    1
    81    33    77    1
    82    33    78    1
    83    34    79    1
    84    40    80    1
    85    40    81    1
    86    42    82    1
    87    43    83    1
    88    46    84    1
    89    47    85    1
