
     RDKit          3D

 85 89  0  0  0  0  0  0  0  0999 V2000
    1.5248   -4.3991    3.7743 C   0  0  0  0  0  0  0  0  0  0  0  0
    2.2226   -5.1164    2.8333 N   0  0  0  0  0  0  0  0  0  0  0  0
    2.5987   -6.4615    3.2728 C   0  0  0  0  0  0  0  0  0  0  0  0
    2.3403   -4.9069    1.4745 C   0  0  0  0  0  0  0  0  0  0  0  0
    3.0695   -3.7837    0.8941 C   0  0  0  0  0  0  0  0  0  0  0  0
    2.5781   -2.4090    0.9893 C   0  0  0  0  0  0  0  0  0  0  0  0
    1.3150   -2.1507    0.2444 N   0  0  0  0  0  0  0  0  0  0  0  0
    1.5536   -1.7632   -1.1428 C   0  0  0  0  0  0  0  0  0  0  0  0
    2.1904   -0.4403   -1.2775 C   0  0  0  0  0  0  0  0  0  0  0  0
    3.5811   -0.3508   -1.4187 C   0  0  0  0  0  0  0  0  0  0  0  0
    4.2089    0.8672   -1.5249 C   0  0  0  0  0  0  0  0  0  0  0  0
    3.4897    2.0569   -1.4969 C   0  0  0  0  0  0  0  0  0  0  0  0
    4.2304    3.3092   -1.6137 C   0  0  0  0  0  0  0  0  0  0  0  0
    5.5261    3.3836   -1.0944 C   0  0  0  0  0  0  0  0  0  0  0  0
    6.2792    4.5350   -1.1748 C   0  0  0  0  0  0  0  0  0  0  0  0
    5.7624    5.6612   -1.7805 C   0  0  0  0  0  0  0  0  0  0  0  0
    6.7335    7.0966   -1.8664 Cl  0  0  0  0  0  0  0  0  0  0  0  0
    4.4891    5.5973   -2.2940 C   0  0  0  0  0  0  0  0  0  0  0  0
    3.7471    4.4346   -2.2050 C   0  0  0  0  0  0  0  0  0  0  0  0
    2.1458    1.9754   -1.3610 C   0  0  0  0  0  0  0  0  0  0  0  0
    1.5172    0.7444   -1.2539 C   0  0  0  0  0  0  0  0  0  0  0  0
    0.0486   -2.1994    0.8015 C   0  0  0  0  0  0  0  0  0  0  0  0
    0.0282   -2.3330    2.0877 O   0  0  0  0  0  0  0  0  0  0  0  0
   -1.2438   -2.1385    0.1915 C   0  0  0  0  0  0  0  0  0  0  0  0
   -1.9759   -0.9805   -0.0692 N   0  0  0  0  0  0  0  0  0  0  0  0
   -2.0262   -0.4552   -1.3163 C   0  0  0  0  0  0  0  0  0  0  0  0
   -2.8322    0.6259   -1.6476 C   0  0  0  0  0  0  0  0  0  0  0  0
   -2.8661    1.1593   -3.0481 C   0  0  0  0  0  0  0  0  0  0  0  0
   -4.0744    0.6829   -3.7389 C   0  0  0  0  0  0  0  0  0  0  0  0
   -4.1738   -0.4883   -4.4971 C   0  0  0  0  0  0  0  0  0  0  0  0
   -5.4270   -0.5412   -4.9395 N   0  0  0  0  0  0  0  0  0  0  0  0
   -6.1334    0.4797   -4.5378 N   0  0  0  0  0  0  0  0  0  0  0  0
   -7.5260    0.7035   -4.8526 C   0  0  0  0  0  0  0  0  0  0  0  0
   -5.3072    1.2518   -3.7894 C   0  0  0  0  0  0  0  0  0  0  0  0
   -3.6252    1.2101   -0.6857 C   0  0  0  0  0  0  0  0  0  0  0  0
   -4.3772    2.1894   -0.9161 O   0  0  0  0  0  0  0  0  0  0  0  0
   -3.5588    0.6744    0.5421 N   0  0  0  0  0  0  0  0  0  0  0  0
   -2.7634   -0.3787    0.8331 C   0  0  0  0  0  0  0  0  0  0  0  0
   -2.7385   -0.9231    2.5051 S   0  0  0  0  0  0  0  0  0  0  0  0
   -1.6030    0.0215    3.5601 C   0  0  0  0  0  0  0  0  0  0  0  0
   -2.0813    1.4275    3.7236 C   0  0  0  0  0  0  0  0  0  0  0  0
   -1.6510    2.3860    2.8345 C   0  0  0  0  0  0  0  0  0  0  0  0
   -2.0731    3.6750    2.9557 C   0  0  0  0  0  0  0  0  0  0  0  0
   -2.9395    4.0584    3.9667 C   0  0  0  0  0  0  0  0  0  0  0  0
   -3.3360    5.3591    4.0485 F   0  0  0  0  0  0  0  0  0  0  0  0
   -3.3580    3.0850    4.8458 C   0  0  0  0  0  0  0  0  0  0  0  0
   -2.9377    1.7761    4.7335 C   0  0  0  0  0  0  0  0  0  0  0  0
    0.4089   -4.5035    3.6482 H   0  0  0  0  0  0  0  0  0  0  0  0
    1.7075   -4.8881    4.8044 H   0  0  0  0  0  0  0  0  0  0  0  0
    1.8116   -3.3450    3.9085 H   0  0  0  0  0  0  0  0  0  0  0  0
    1.7149   -7.1386    3.0998 H   0  0  0  0  0  0  0  0  0  0  0  0
    3.4108   -6.8676    2.6728 H   0  0  0  0  0  0  0  0  0  0  0  0
    2.7653   -6.4406    4.3564 H   0  0  0  0  0  0  0  0  0  0  0  0
    1.2885   -5.0081    1.0302 H   0  0  0  0  0  0  0  0  0  0  0  0
    2.8349   -5.8586    1.0392 H   0  0  0  0  0  0  0  0  0  0  0  0
    3.4547   -4.0253   -0.1587 H   0  0  0  0  0  0  0  0  0  0  0  0
    4.0852   -3.7599    1.4483 H   0  0  0  0  0  0  0  0  0  0  0  0
    2.3512   -2.1579    2.0413 H   0  0  0  0  0  0  0  0  0  0  0  0
    3.3297   -1.6345    0.6942 H   0  0  0  0  0  0  0  0  0  0  0  0
    2.2461   -2.5097   -1.6335 H   0  0  0  0  0  0  0  0  0  0  0  0
    0.6332   -1.8318   -1.7431 H   0  0  0  0  0  0  0  0  0  0  0  0
    4.2183   -1.2465   -1.4556 H   0  0  0  0  0  0  0  0  0  0  0  0
    5.3065    0.8869   -1.6337 H   0  0  0  0  0  0  0  0  0  0  0  0
    5.9901    2.5278   -0.6031 H   0  0  0  0  0  0  0  0  0  0  0  0
    7.2827    4.5730   -0.7661 H   0  0  0  0  0  0  0  0  0  0  0  0
    4.0979    6.4857   -2.7648 H   0  0  0  0  0  0  0  0  0  0  0  0
    2.7567    4.4482   -2.6263 H   0  0  0  0  0  0  0  0  0  0  0  0
    1.5566    2.8647   -1.3354 H   0  0  0  0  0  0  0  0  0  0  0  0
    0.4523    0.7604   -1.1439 H   0  0  0  0  0  0  0  0  0  0  0  0
   -1.9936   -2.8482    0.7370 H   0  0  0  0  0  0  0  0  0  0  0  0
   -1.2075   -2.7170   -0.8147 H   0  0  0  0  0  0  0  0  0  0  0  0
   -1.4417   -0.8525   -2.1379 H   0  0  0  0  0  0  0  0  0  0  0  0
   -1.9241    0.7987   -3.5296 H   0  0  0  0  0  0  0  0  0  0  0  0
   -2.8614    2.2614   -3.0533 H   0  0  0  0  0  0  0  0  0  0  0  0
   -3.3493   -1.1515   -4.6384 H   0  0  0  0  0  0  0  0  0  0  0  0
   -7.6269    1.7138   -5.2831 H   0  0  0  0  0  0  0  0  0  0  0  0
   -7.9309   -0.0999   -5.4861 H   0  0  0  0  0  0  0  0  0  0  0  0
   -8.0822    0.6819   -3.8844 H   0  0  0  0  0  0  0  0  0  0  0  0
   -5.6461    2.1793   -3.3279 H   0  0  0  0  0  0  0  0  0  0  0  0
   -1.5355   -0.5121    4.5157 H   0  0  0  0  0  0  0  0  0  0  0  0
   -0.6246    0.0501    3.0831 H   0  0  0  0  0  0  0  0  0  0  0  0
   -0.9639    2.0937    2.0270 H   0  0  0  0  0  0  0  0  0  0  0  0
   -1.7359    4.4376    2.2566 H   0  0  0  0  0  0  0  0  0  0  0  0
   -4.0442    3.4056    5.6397 H   0  0  0  0  0  0  0  0  0  0  0  0
   -3.2873    1.0207    5.4483 H   0  0  0  0  0  0  0  0  0  0  0  0
  1  2  1  0
  2  3  1  0
  2  4  1  0
  4  5  1  0
  5  6  1  0
  6  7  1  0
  7  8  1  0
  8  9  1  0
  9 10  2  0
 10 11  1  0
 11 12  2  0
 12 13  1  0
 13 14  2  0
 14 15  1  0
 15 16  2  0
 16 17  1  0
 16 18  1  0
 18 19  2  0
 12 20  1  0
 20 21  2  0
  7 22  1  0
 22 23  2  0
 22 24  1  0
 24 25  1  0
 25 26  1  0
 26 27  2  0
 27 28  1  0
 28 29  1  0
 29 30  1  0
 30 31  2  0
 31 32  1  0
 32 33  1  0
 32 34  1  0
 27 35  1  0
 35 36  2  0
 35 37  1  0
 37 38  2  0
 38 39  1  0
 39 40  1  0
 40 41  1  0
 41 42  2  0
 42 43  1  0
 43 44  2  0
 44 45  1  0
 44 46  1  0
 46 47  2  0
 21  9  1  0
 38 25  1  0
 47 41  1  0
 19 13  1  0
 34 29  2  0
  1 48  1  0
  1 49  1  0
  1 50  1  0
  3 51  1  0
  3 52  1  0
  3 53  1  0
  4 54  1  0
  4 55  1  0
  5 56  1  0
  5 57  1  0
  6 58  1  0
  6 59  1  0
  8 60  1  0
  8 61  1  0
 10 62  1  0
 11 63  1  0
 14 64  1  0
 15 65  1  0
 18 66  1  0
 19 67  1  0
 20 68  1  0
 21 69  1  0
 24 70  1  0
 24 71  1  0
 26 72  1  0
 28 73  1  0
 28 74  1  0
 30 75  1  0
 33 76  1  0
 33 77  1  0
 33 78  1  0
 34 79  1  0
 40 80  1  0
 40 81  1  0
 42 82  1  0
 43 83  1  0
 46 84  1  0
 47 85  1  0
M  END
$$$$
