@<TRIPOS>MOLECULE
*****
 45 49 0 0 0
SMALL
GASTEIGER

@<TRIPOS>ATOM
      1 N          -3.3993   -2.4995   -3.0275 N.1     1  UNL1       -0.1909
      2 C          -4.0791   -1.7115   -2.5228 C.1     1  UNL1        0.0998
      3 C          -4.9377   -0.7242   -1.8810 C.ar    1  UNL1        0.0595
      4 C          -5.9547   -0.1815   -2.6207 C.ar    1  UNL1       -0.0438
      5 C          -6.7971    0.7527   -2.0692 C.ar    1  UNL1       -0.0605
      6 C          -6.6094    1.1434   -0.7546 C.ar    1  UNL1       -0.0611
      7 C          -5.5939    0.6109    0.0056 C.ar    1  UNL1       -0.0528
      8 C          -4.7625   -0.3271   -0.5758 C.ar    1  UNL1       -0.0005
      9 C          -3.6795   -0.9036    0.2209 C.ar    1  UNL1       -0.0166
     10 C          -2.3973   -1.0268   -0.2664 C.ar    1  UNL1       -0.0537
     11 C          -1.3681   -1.5690    0.4616 C.ar    1  UNL1       -0.0572
     12 C          -1.5744   -2.0228    1.7366 C.ar    1  UNL1       -0.0370
     13 C          -0.4749   -2.6294    2.5454 C.3     1  UNL1        0.0278
     14 S           0.3635   -1.2718    3.4075 S.3     1  UNL1       -0.0609
     15 C           1.2317   -0.2207    2.2419 C.ar    1  UNL1        0.2779
     16 N           0.7724    0.8593    1.5945 N.ar    1  UNL1       -0.1006
     17 N           1.7636    1.3139    0.8392 N.ar    1  UNL1       -0.1065
     18 C           2.8477    0.5368    0.9981 C.ar    1  UNL1        0.2493
     19 C           4.1570    0.6623    0.3677 C.ar    1  UNL1        0.0422
     20 C           5.1172   -0.2670    0.7087 C.ar    1  UNL1       -0.0458
     21 C           6.3619   -0.1792    0.1313 C.ar    1  UNL1       -0.0154
     22 C           6.6769    0.8099   -0.7776 C.ar    1  UNL1        0.1663
     23 C           5.7079    1.7534   -1.1264 C.ar    1  UNL1        0.1670
     24 C           4.4598    1.6508   -0.5357 C.ar    1  UNL1       -0.0039
     25 O           6.3197    2.5909   -2.0372 O.3     1  UNL1       -0.4526
     26 C           7.7355    2.4264   -1.8876 C.3     1  UNL1        0.2332
     27 O           7.8624    1.0685   -1.4657 O.3     1  UNL1       -0.4526
     28 O           2.4765   -0.3938    1.8687 O.2     1  UNL1       -0.4110
     29 C          -2.8581   -1.9121    2.2574 C.ar    1  UNL1       -0.0572
     30 C          -3.8734   -1.3648    1.5077 C.ar    1  UNL1       -0.0537
     31 H          -6.0898   -0.5025   -3.6623 H       1  UNL1        0.0631
     32 H          -7.6072    1.1770   -2.6798 H       1  UNL1        0.0618
     33 H          -7.2745    1.8821   -0.3147 H       1  UNL1        0.0618
     34 H          -5.4563    0.9318    1.0487 H       1  UNL1        0.0624
     35 H          -2.2418   -0.6590   -1.2810 H       1  UNL1        0.0624
     36 H          -0.3868   -1.6417    0.0353 H       1  UNL1        0.0621
     37 H          -0.9103   -3.3536    3.2286 H       1  UNL1        0.0430
     38 H           0.2630   -3.1583    1.8884 H       1  UNL1        0.0430
     39 H           4.8906   -1.0659    1.4317 H       1  UNL1        0.0626
     40 H           7.0865   -0.9462    0.4406 H       1  UNL1        0.0655
     41 H           3.6980    2.3657   -0.7878 H       1  UNL1        0.0663
     42 H           8.1279    3.0736   -1.0734 H       1  UNL1        0.1166
     43 H           8.2830    2.5193   -2.8284 H       1  UNL1        0.1166
     44 H          -3.0101   -2.2768    3.2730 H       1  UNL1        0.0621
     45 H          -4.8662   -1.2897    1.9366 H       1  UNL1        0.0624
@<TRIPOS>BOND
     1     1     2    3
     2     2     3    1
     3     3     4   ar
     4     4     5   ar
     5     5     6   ar
     6     6     7   ar
     7     7     8   ar
     8     8     9    1
     9     9    10   ar
    10    10    11   ar
    11    11    12   ar
    12    12    13    1
    13    13    14    1
    14    14    15    1
    15    15    16   ar
    16    16    17   ar
    17    17    18   ar
    18    18    19    1
    19    19    20   ar
    20    20    21   ar
    21    21    22   ar
    22    22    23   ar
    23    23    24   ar
    24    23    25    1
    25    25    26    1
    26    26    27    1
    27    18    28   ar
    28    12    29   ar
    29    29    30   ar
    30     8     3   ar
    31    30     9   ar
    32    28    15   ar
    33    24    19   ar
    34    27    22    1
    35     4    31    1
    36     5    32    1
    37     6    33    1
    38     7    34    1
    39    10    35    1
    40    11    36    1
    41    13    37    1
    42    13    38    1
    43    20    39    1
    44    21    40    1
    45    24    41    1
    46    26    42    1
    47    26    43    1
    48    29    44    1
    49    30    45    1
