@<TRIPOS>MOLECULE
*****
 44 47 0 0 0
SMALL
GASTEIGER

@<TRIPOS>ATOM
      1 O          -2.3909    1.0449   -2.8691 O.3     1  UNL1       -0.5064
      2 C          -1.0975    1.1382   -2.3741 C.ar    1  UNL1        0.1233
      3 C          -0.3418    2.2237   -2.7971 C.ar    1  UNL1       -0.0177
      4 C           0.9551    2.4372   -2.3839 C.ar    1  UNL1       -0.0308
      5 C           1.5298    1.5212   -1.5027 C.ar    1  UNL1        0.0900
      6 N           2.7546    1.4902   -0.9524 N.ar    1  UNL1       -0.2277
      7 C           2.7773    0.3758   -0.1732 C.ar    1  UNL1        0.1393
      8 C           3.9222   -0.0464    0.6133 C.ar    1  UNL1        0.0173
      9 C           3.8458   -1.2025    1.3830 C.ar    1  UNL1       -0.0511
     10 C           4.9629   -1.5637    2.1141 C.ar    1  UNL1       -0.0611
     11 C           6.1320   -0.8361    2.1120 C.ar    1  UNL1       -0.0617
     12 C           6.1861    0.3048    1.3433 C.ar    1  UNL1       -0.0611
     13 C           5.0701    0.6749    0.6062 C.ar    1  UNL1       -0.0511
     14 N           1.5786   -0.2401   -0.2657 N.ar    1  UNL1       -0.3375
     15 C           0.7698    0.4455   -1.0882 C.ar    1  UNL1        0.0744
     16 C          -0.5363    0.2296   -1.5039 C.ar    1  UNL1        0.0333
     17 C          -1.3358   -0.9219   -1.0558 C.3     1  UNL1        0.0295
     18 N          -2.2994   -0.6840   -0.1000 N.3     1  UNL1       -0.2980
     19 C          -3.0949   -1.7586    0.3745 C.3     1  UNL1       -0.0008
     20 C          -4.5446   -1.3099    0.6102 C.3     1  UNL1       -0.0402
     21 C          -4.6574   -0.1541    1.5361 C.3     1  UNL1       -0.0507
     22 C          -3.3590    0.6122    1.5484 C.3     1  UNL1       -0.0402
     23 C          -2.8454    0.6107    0.1007 C.3     1  UNL1       -0.0008
     24 H          -2.5443    0.2909   -3.5454 H       1  UNL1        0.2921
     25 H          -0.7473    2.9736   -3.4901 H       1  UNL1        0.0655
     26 H           1.5540    3.2779   -2.7059 H       1  UNL1        0.0641
     27 H           2.9295   -1.7751    1.3857 H       1  UNL1        0.0625
     28 H           4.8986   -2.4588    2.7072 H       1  UNL1        0.0618
     29 H           6.9746   -1.1859    2.7161 H       1  UNL1        0.0618
     30 H           7.0944    0.9020    1.3208 H       1  UNL1        0.0618
     31 H           5.1647    1.5924    0.0091 H       1  UNL1        0.0625
     32 H           1.3329   -1.1125    0.2303 H       1  UNL1        0.1674
     33 H          -1.7781   -1.3816   -1.9816 H       1  UNL1        0.0477
     34 H          -0.6070   -1.6937   -0.6897 H       1  UNL1        0.0477
     35 H          -2.6743   -2.1360    1.3285 H       1  UNL1        0.0427
     36 H          -3.1071   -2.5781   -0.3403 H       1  UNL1        0.0427
     37 H          -4.9646   -1.0354   -0.4010 H       1  UNL1        0.0278
     38 H          -5.1229   -2.1610    1.0274 H       1  UNL1        0.0278
     39 H          -4.9878   -0.4297    2.5597 H       1  UNL1        0.0266
     40 H          -5.4315    0.5443    1.1420 H       1  UNL1        0.0266
     41 H          -2.5936    0.1403    2.2202 H       1  UNL1        0.0278
     42 H          -3.4839    1.6495    1.9148 H       1  UNL1        0.0278
     43 H          -3.7701    0.7682   -0.5170 H       1  UNL1        0.0427
     44 H          -2.1174    1.4171   -0.0538 H       1  UNL1        0.0427
@<TRIPOS>BOND
     1     1     2    1
     2     2     3   ar
     3     3     4   ar
     4     4     5   ar
     5     5     6   ar
     6     6     7   ar
     7     7     8    1
     8     8     9   ar
     9     9    10   ar
    10    10    11   ar
    11    11    12   ar
    12    12    13   ar
    13     7    14   ar
    14    14    15   ar
    15    15    16   ar
    16    16    17    1
    17    17    18    1
    18    18    19    1
    19    19    20    1
    20    20    21    1
    21    21    22    1
    22    22    23    1
    23    16     2   ar
    24    23    18    1
    25    15     5   ar
    26    13     8   ar
    27     1    24    1
    28     3    25    1
    29     4    26    1
    30     9    27    1
    31    10    28    1
    32    11    29    1
    33    12    30    1
    34    13    31    1
    35    14    32    1
    36    17    33    1
    37    17    34    1
    38    19    35    1
    39    19    36    1
    40    20    37    1
    41    20    38    1
    42    21    39    1
    43    21    40    1
    44    22    41    1
    45    22    42    1
    46    23    43    1
    47    23    44    1
