
     RDKit          3D

 51 56  0  0  0  0  0  0  0  0999 V2000
   -4.1990    1.5769    0.0952 C   0  0  0  0  0  0  0  0  0  0  0  0
   -3.5517    0.2595   -0.1473 C   0  0  0  0  0  0  0  0  0  0  0  0
   -4.1036   -0.8824   -0.5966 N   0  0  0  0  0  0  0  0  0  0  0  0
   -3.2124   -1.8338   -0.6807 N   0  0  0  0  0  0  0  0  0  0  0  0
   -3.4492   -3.1867   -1.1234 C   0  0  0  0  0  0  0  0  0  0  0  0
   -4.6882   -3.8971   -0.6003 C   0  0  0  0  0  0  0  0  0  0  0  0
   -3.3189   -4.3418   -0.2203 C   0  0  0  0  0  0  0  0  0  0  0  0
   -2.0135   -1.3561   -0.2850 C   0  0  0  0  0  0  0  0  0  0  0  0
   -2.2042   -0.0394    0.0555 C   0  0  0  0  0  0  0  0  0  0  0  0
   -0.9311    0.5542    0.5008 C   0  0  0  0  0  0  0  0  0  0  0  0
   -0.5683    1.7724   -0.2316 C   0  0  0  0  0  0  0  0  0  0  0  0
   -0.0398    1.7726   -1.5073 C   0  0  0  0  0  0  0  0  0  0  0  0
    0.2796    2.9534   -2.1440 C   0  0  0  0  0  0  0  0  0  0  0  0
    0.0869    4.1822   -1.5391 C   0  0  0  0  0  0  0  0  0  0  0  0
    0.5019    5.6762   -2.3712 Cl  0  0  0  0  0  0  0  0  0  0  0  0
   -0.4419    4.1882   -0.2622 C   0  0  0  0  0  0  0  0  0  0  0  0
   -0.7565    2.9997    0.3621 C   0  0  0  0  0  0  0  0  0  0  0  0
    0.0550   -0.4857    0.4112 N   0  0  0  0  0  0  0  0  0  0  0  0
    1.4343   -0.4142    0.7280 C   0  0  0  0  0  0  0  0  0  0  0  0
    1.8956   -0.6985    1.9950 C   0  0  0  0  0  0  0  0  0  0  0  0
    3.2538   -0.6246    2.2941 C   0  0  0  0  0  0  0  0  0  0  0  0
    3.7743   -0.9246    3.6455 C   0  0  0  0  0  0  0  0  0  0  0  0
    4.1336   -0.2606    1.2966 C   0  0  0  0  0  0  0  0  0  0  0  0
    5.4677   -0.0958    1.2424 N   0  0  0  0  0  0  0  0  0  0  0  0
    5.7947    0.2650    0.0219 N   0  0  0  0  0  0  0  0  0  0  0  0
    4.6721    0.3329   -0.7109 C   0  0  0  0  0  0  0  0  0  0  0  0
    4.6038    0.7063   -2.1470 C   0  0  0  0  0  0  0  0  0  0  0  0
    5.4186   -0.1087   -2.9236 F   0  0  0  0  0  0  0  0  0  0  0  0
    5.0833    2.0038   -2.2965 F   0  0  0  0  0  0  0  0  0  0  0  0
    3.6426    0.0071    0.0789 N   0  0  0  0  0  0  0  0  0  0  0  0
    2.3555   -0.0673   -0.1876 N   0  0  0  0  0  0  0  0  0  0  0  0
   -0.5956   -1.6548   -0.0670 C   0  0  0  0  0  0  0  0  0  0  0  0
   -0.0401   -2.7698   -0.2706 O   0  0  0  0  0  0  0  0  0  0  0  0
   -3.7560    2.3619   -0.5414 H   0  0  0  0  0  0  0  0  0  0  0  0
   -5.2556    1.4758   -0.1732 H   0  0  0  0  0  0  0  0  0  0  0  0
   -4.1259    1.7960    1.1741 H   0  0  0  0  0  0  0  0  0  0  0  0
   -3.2085   -3.3443   -2.2026 H   0  0  0  0  0  0  0  0  0  0  0  0
   -5.2847   -3.3407    0.1466 H   0  0  0  0  0  0  0  0  0  0  0  0
   -5.3061   -4.4664   -1.3115 H   0  0  0  0  0  0  0  0  0  0  0  0
   -2.9379   -5.2937   -0.6115 H   0  0  0  0  0  0  0  0  0  0  0  0
   -3.0553   -4.1828    0.8623 H   0  0  0  0  0  0  0  0  0  0  0  0
   -0.9760    0.8236    1.5977 H   0  0  0  0  0  0  0  0  0  0  0  0
    0.1213    0.8487   -2.0011 H   0  0  0  0  0  0  0  0  0  0  0  0
    0.6919    2.9533   -3.1392 H   0  0  0  0  0  0  0  0  0  0  0  0
   -0.6028    5.1571    0.2363 H   0  0  0  0  0  0  0  0  0  0  0  0
   -1.1763    3.0376    1.3797 H   0  0  0  0  0  0  0  0  0  0  0  0
    1.2261   -0.9809    2.7748 H   0  0  0  0  0  0  0  0  0  0  0  0
    3.0524   -0.6678    4.4454 H   0  0  0  0  0  0  0  0  0  0  0  0
    4.7442   -0.4385    3.7660 H   0  0  0  0  0  0  0  0  0  0  0  0
    3.9424   -2.0357    3.7038 H   0  0  0  0  0  0  0  0  0  0  0  0
    3.5675    0.6882   -2.5209 H   0  0  0  0  0  0  0  0  0  0  0  0
  1  2  1  0
  2  3  2  0
  3  4  1  0
  4  5  1  0
  5  6  1  0
  6  7  1  0
  4  8  1  0
  8  9  2  0
  9 10  1  0
 10 11  1  0
 11 12  2  0
 12 13  1  0
 13 14  2  0
 14 15  1  0
 14 16  1  0
 16 17  2  0
 10 18  1  0
 18 19  1  0
 19 20  1  0
 20 21  2  0
 21 22  1  0
 21 23  1  0
 23 24  2  0
 24 25  1  0
 25 26  2  0
 26 27  1  0
 27 28  1  0
 27 29  1  0
 26 30  1  0
 30 31  1  0
 18 32  1  0
 32 33  2  0
  9  2  1  0
 17 11  1  0
 31 19  2  0
  7  5  1  0
 32  8  1  0
 30 23  1  0
  1 34  1  0
  1 35  1  0
  1 36  1  0
  5 37  1  0
  6 38  1  0
  6 39  1  0
  7 40  1  0
  7 41  1  0
 10 42  1  0
 12 43  1  0
 13 44  1  0
 16 45  1  0
 17 46  1  0
 20 47  1  0
 22 48  1  0
 22 49  1  0
 22 50  1  0
 27 51  1  0
M  END
$$$$
