@<TRIPOS>MOLECULE
*****
 51 56 0 0 0
SMALL
GASTEIGER

@<TRIPOS>ATOM
      1 C          -4.1990    1.5769    0.0952 C.3     1  UNL1       -0.0203
      2 C          -3.5517    0.2595   -0.1473 C.ar    1  UNL1        0.0660
      3 N          -4.1036   -0.8824   -0.5966 N.ar    1  UNL1       -0.1752
      4 N          -3.2124   -1.8338   -0.6807 N.ar    1  UNL1       -0.2556
      5 C          -3.4492   -3.1867   -1.1234 C.3     1  UNL1        0.0537
      6 C          -4.6882   -3.8971   -0.6003 C.3     1  UNL1       -0.0285
      7 C          -3.3189   -4.3418   -0.2203 C.3     1  UNL1       -0.0285
      8 C          -2.0135   -1.3561   -0.2850 C.ar    1  UNL1        0.1297
      9 C          -2.2042   -0.0394    0.0555 C.ar    1  UNL1        0.0305
     10 C          -0.9311    0.5542    0.5008 C.3     1  UNL1        0.0868
     11 C          -0.5683    1.7724   -0.2316 C.ar    1  UNL1       -0.0220
     12 C          -0.0398    1.7726   -1.5073 C.ar    1  UNL1       -0.0551
     13 C           0.2796    2.9534   -2.1440 C.ar    1  UNL1       -0.0431
     14 C           0.0869    4.1822   -1.5391 C.ar    1  UNL1        0.0410
     15 CL          0.5019    5.6762   -2.3712 Cl      1  UNL1       -0.0835
     16 C          -0.4419    4.1882   -0.2622 C.ar    1  UNL1       -0.0431
     17 C          -0.7565    2.9997    0.3621 C.ar    1  UNL1       -0.0551
     18 N           0.0550   -0.4857    0.4112 N.am    1  UNL1       -0.2376
     19 C           1.4343   -0.4142    0.7280 C.ar    1  UNL1        0.1499
     20 C           1.8956   -0.6985    1.9950 C.ar    1  UNL1       -0.0131
     21 C           3.2538   -0.6246    2.2941 C.ar    1  UNL1       -0.0012
     22 C           3.7743   -0.9246    3.6455 C.3     1  UNL1       -0.0360
     23 C           4.1336   -0.2606    1.2966 C.ar    1  UNL1        0.1811
     24 N           5.4677   -0.0958    1.2424 N.ar    1  UNL1       -0.1275
     25 N           5.7947    0.2650    0.0219 N.ar    1  UNL1       -0.1263
     26 C           4.6721    0.3329   -0.7109 C.ar    1  UNL1        0.2205
     27 C           4.6038    0.7063   -2.1470 C.3     1  UNL1        0.2993
     28 F           5.4186   -0.1087   -2.9236 F       1  UNL1       -0.2005
     29 F           5.0833    2.0038   -2.2965 F       1  UNL1       -0.2005
     30 N           3.6426    0.0071    0.0789 N.ar    1  UNL1       -0.1896
     31 N           2.3555   -0.0673   -0.1876 N.ar    1  UNL1       -0.1476
     32 C          -0.5956   -1.6548   -0.0670 C.2     1  UNL1        0.2711
     33 O          -0.0401   -2.7698   -0.2706 O.2     1  UNL1       -0.2679
     34 H          -3.7560    2.3619   -0.5414 H       1  UNL1        0.0293
     35 H          -5.2556    1.4758   -0.1732 H       1  UNL1        0.0293
     36 H          -4.1259    1.7960    1.1741 H       1  UNL1        0.0293
     37 H          -3.2085   -3.3443   -2.2026 H       1  UNL1        0.0545
     38 H          -5.2847   -3.3407    0.1466 H       1  UNL1        0.0286
     39 H          -5.3061   -4.4664   -1.3115 H       1  UNL1        0.0286
     40 H          -2.9379   -5.2937   -0.6115 H       1  UNL1        0.0286
     41 H          -3.0553   -4.1828    0.8623 H       1  UNL1        0.0286
     42 H          -0.9760    0.8236    1.5977 H       1  UNL1        0.0606
     43 H           0.1213    0.8487   -2.0011 H       1  UNL1        0.0621
     44 H           0.6919    2.9533   -3.1392 H       1  UNL1        0.0632
     45 H          -0.6028    5.1571    0.2363 H       1  UNL1        0.0632
     46 H          -1.1763    3.0376    1.3797 H       1  UNL1        0.0621
     47 H           1.2261   -0.9809    2.7748 H       1  UNL1        0.0656
     48 H           3.0524   -0.6678    4.4454 H       1  UNL1        0.0279
     49 H           4.7442   -0.4385    3.7660 H       1  UNL1        0.0279
     50 H           3.9424   -2.0357    3.7038 H       1  UNL1        0.0279
     51 H           3.5675    0.6882   -2.5209 H       1  UNL1        0.1105
@<TRIPOS>BOND
     1     1     2    1
     2     2     3   ar
     3     3     4   ar
     4     4     5    1
     5     5     6    1
     6     6     7    1
     7     4     8   ar
     8     8     9   ar
     9     9    10    1
    10    10    11    1
    11    11    12   ar
    12    12    13   ar
    13    13    14   ar
    14    14    15    1
    15    14    16   ar
    16    16    17   ar
    17    10    18    1
    18    18    19    1
    19    19    20   ar
    20    20    21   ar
    21    21    22    1
    22    21    23   ar
    23    23    24   ar
    24    24    25   ar
    25    25    26   ar
    26    26    27    1
    27    27    28    1
    28    27    29    1
    29    26    30   ar
    30    30    31   ar
    31    18    32   am
    32    32    33    2
    33     9     2   ar
    34    17    11   ar
    35    31    19   ar
    36     7     5    1
    37    32     8    1
    38    30    23   ar
    39     1    34    1
    40     1    35    1
    41     1    36    1
    42     5    37    1
    43     6    38    1
    44     6    39    1
    45     7    40    1
    46     7    41    1
    47    10    42    1
    48    12    43    1
    49    13    44    1
    50    16    45    1
    51    17    46    1
    52    20    47    1
    53    22    48    1
    54    22    49    1
    55    22    50    1
    56    27    51    1
