
     RDKit          3D

 30 31  0  0  0  0  0  0  0  0999 V2000
    5.9334    0.0012   -1.6670 O   0  0  0  0  0  0  0  0  0  0  0  0
    5.5102   -0.1298   -0.2768 B   0  0  0  0  0  0  0  0  0  0  0  0
    6.4815    0.1970    0.7614 O   0  0  0  0  0  0  0  0  0  0  0  0
    3.9851    0.1360    0.0256 C   0  0  0  0  0  0  0  0  0  0  0  0
    3.0374   -0.5609   -0.5677 C   0  0  0  0  0  0  0  0  0  0  0  0
    1.6082   -0.3821   -0.3479 C   0  0  0  0  0  0  0  0  0  0  0  0
    0.7282   -1.1930   -1.0475 C   0  0  0  0  0  0  0  0  0  0  0  0
   -0.6341   -1.0903   -0.8983 C   0  0  0  0  0  0  0  0  0  0  0  0
   -1.1497   -0.1446   -0.0191 C   0  0  0  0  0  0  0  0  0  0  0  0
   -2.5883    0.0079    0.1793 C   0  0  0  0  0  0  0  0  0  0  0  0
   -3.1444    1.2306    0.4896 C   0  0  0  0  0  0  0  0  0  0  0  0
   -4.5186    1.3744    0.6801 C   0  0  0  0  0  0  0  0  0  0  0  0
   -5.3717    0.2963    0.5645 C   0  0  0  0  0  0  0  0  0  0  0  0
   -4.8011   -0.9283    0.2521 C   0  0  0  0  0  0  0  0  0  0  0  0
   -3.4416   -1.0694    0.0639 C   0  0  0  0  0  0  0  0  0  0  0  0
   -0.2674    0.6617    0.6762 C   0  0  0  0  0  0  0  0  0  0  0  0
    1.0933    0.5483    0.5174 C   0  0  0  0  0  0  0  0  0  0  0  0
    5.9758    0.9589   -1.9229 H   0  0  0  0  0  0  0  0  0  0  0  0
    6.0622    0.5310    1.5943 H   0  0  0  0  0  0  0  0  0  0  0  0
    3.6938    0.8985    0.7282 H   0  0  0  0  0  0  0  0  0  0  0  0
    3.4034   -1.3251   -1.2750 H   0  0  0  0  0  0  0  0  0  0  0  0
    1.0864   -1.9448   -1.7444 H   0  0  0  0  0  0  0  0  0  0  0  0
   -1.3588   -1.6949   -1.4173 H   0  0  0  0  0  0  0  0  0  0  0  0
   -2.5090    2.0905    0.5869 H   0  0  0  0  0  0  0  0  0  0  0  0
   -4.9498    2.3394    0.9243 H   0  0  0  0  0  0  0  0  0  0  0  0
   -6.4463    0.3907    0.7100 H   0  0  0  0  0  0  0  0  0  0  0  0
   -5.4809   -1.7700    0.1636 H   0  0  0  0  0  0  0  0  0  0  0  0
   -3.0148   -2.0302   -0.1787 H   0  0  0  0  0  0  0  0  0  0  0  0
   -0.6520    1.3992    1.3616 H   0  0  0  0  0  0  0  0  0  0  0  0
    1.7295    1.2017    1.0838 H   0  0  0  0  0  0  0  0  0  0  0  0
  1  2  1  0
  2  3  1  0
  2  4  1  0
  4  5  2  0
  5  6  1  0
  6  7  2  0
  7  8  1  0
  8  9  2  0
  9 10  1  0
 10 11  2  0
 11 12  1  0
 12 13  2  0
 13 14  1  0
 14 15  2  0
  9 16  1  0
 16 17  2  0
 17  6  1  0
 15 10  1  0
  1 18  1  0
  3 19  1  0
  4 20  1  0
  5 21  1  0
  7 22  1  0
  8 23  1  0
 11 24  1  0
 12 25  1  0
 13 26  1  0
 14 27  1  0
 15 28  1  0
 16 29  1  0
 17 30  1  0
M  END
$$$$
