@<TRIPOS>MOLECULE
*****
 30 31 0 0 0
SMALL
GASTEIGER

@<TRIPOS>ATOM
      1 O           5.9334    0.0012   -1.6670 O.3     1  UNL1        0.0000
      2 B           5.5102   -0.1298   -0.2768 B       1  UNL1        0.0000
      3 O           6.4815    0.1970    0.7614 O.3     1  UNL1        0.0000
      4 C           3.9851    0.1360    0.0256 C.2     1  UNL1        0.0000
      5 C           3.0374   -0.5609   -0.5677 C.2     1  UNL1        0.0000
      6 C           1.6082   -0.3821   -0.3479 C.ar    1  UNL1        0.0000
      7 C           0.7282   -1.1930   -1.0475 C.ar    1  UNL1        0.0000
      8 C          -0.6341   -1.0903   -0.8983 C.ar    1  UNL1        0.0000
      9 C          -1.1497   -0.1446   -0.0191 C.ar    1  UNL1        0.0000
     10 C          -2.5883    0.0079    0.1793 C.ar    1  UNL1        0.0000
     11 C          -3.1444    1.2306    0.4896 C.ar    1  UNL1        0.0000
     12 C          -4.5186    1.3744    0.6801 C.ar    1  UNL1        0.0000
     13 C          -5.3717    0.2963    0.5645 C.ar    1  UNL1        0.0000
     14 C          -4.8011   -0.9283    0.2521 C.ar    1  UNL1        0.0000
     15 C          -3.4416   -1.0694    0.0639 C.ar    1  UNL1        0.0000
     16 C          -0.2674    0.6617    0.6762 C.ar    1  UNL1        0.0000
     17 C           1.0933    0.5483    0.5174 C.ar    1  UNL1        0.0000
     18 H           5.9758    0.9589   -1.9229 H       1  UNL1        0.0000
     19 H           6.0622    0.5310    1.5943 H       1  UNL1        0.0000
     20 H           3.6938    0.8985    0.7282 H       1  UNL1        0.0000
     21 H           3.4034   -1.3251   -1.2750 H       1  UNL1        0.0000
     22 H           1.0864   -1.9448   -1.7444 H       1  UNL1        0.0000
     23 H          -1.3588   -1.6949   -1.4173 H       1  UNL1        0.0000
     24 H          -2.5090    2.0905    0.5869 H       1  UNL1        0.0000
     25 H          -4.9498    2.3394    0.9243 H       1  UNL1        0.0000
     26 H          -6.4463    0.3907    0.7100 H       1  UNL1        0.0000
     27 H          -5.4809   -1.7700    0.1636 H       1  UNL1        0.0000
     28 H          -3.0148   -2.0302   -0.1787 H       1  UNL1        0.0000
     29 H          -0.6520    1.3992    1.3616 H       1  UNL1        0.0000
     30 H           1.7295    1.2017    1.0838 H       1  UNL1        0.0000
@<TRIPOS>BOND
     1     1     2    1
     2     2     3    1
     3     2     4    1
     4     4     5    2
     5     5     6    1
     6     6     7   ar
     7     7     8   ar
     8     8     9   ar
     9     9    10    1
    10    10    11   ar
    11    11    12   ar
    12    12    13   ar
    13    13    14   ar
    14    14    15   ar
    15     9    16   ar
    16    16    17   ar
    17    17     6   ar
    18    15    10   ar
    19     1    18    1
    20     3    19    1
    21     4    20    1
    22     5    21    1
    23     7    22    1
    24     8    23    1
    25    11    24    1
    26    12    25    1
    27    13    26    1
    28    14    27    1
    29    15    28    1
    30    16    29    1
    31    17    30    1
