@<TRIPOS>MOLECULE
*****
 19 18 0 0 0
SMALL
GASTEIGER

@<TRIPOS>ATOM
      1 O          -4.2717    0.3125    0.2159 O.3     1  UNL1       -0.2952
      2 N          -3.1404   -0.2896   -0.2196 N.am    1  UNL1       -0.1975
      3 C          -1.8692    0.2157    0.2357 C.2     1  UNL1        0.2354
      4 O          -1.9951    1.2112    1.0262 O.2     1  UNL1       -0.2737
      5 C          -0.7101   -0.5429   -0.3237 C.3     1  UNL1        0.0263
      6 C           0.5310    0.1270    0.2616 C.3     1  UNL1       -0.0382
      7 C           1.7912   -0.5422   -0.2223 C.3     1  UNL1        0.0016
      8 P           3.1946    0.3460    0.5440 P.3     1  UNL1        0.1085
      9 O           3.3211    1.9227   -0.0752 O.co2   1  UNL1       -0.3575
     10 O           4.5999   -0.5166    0.1245 O.co2   1  UNL1       -0.3575
     11 O           3.0499    0.3875    2.0409 O.2     1  UNL1       -0.4607
     12 H          -4.2615    1.2405   -0.1677 H       1  UNL1        0.2414
     13 H          -3.3594   -1.0979   -0.8745 H       1  UNL1        0.1822
     14 H          -0.7403   -0.4130   -1.4264 H       1  UNL1        0.0359
     15 H          -0.7822   -1.6052   -0.0331 H       1  UNL1        0.0359
     16 H           0.4997    1.1889   -0.0269 H       1  UNL1        0.0274
     17 H           0.4536    0.0823    1.3614 H       1  UNL1        0.0274
     18 H           1.8677   -0.4636   -1.3068 H       1  UNL1        0.0341
     19 H           1.8212   -1.5633    0.1955 H       1  UNL1        0.0341
@<TRIPOS>UNITY_ATOM_ATTR
9 1
charge -1
10 1
charge -1
@<TRIPOS>BOND
     1     1     2    1
     2     2     3   am
     3     3     4    2
     4     3     5    1
     5     5     6    1
     6     6     7    1
     7     7     8    1
     8     8     9    1
     9     8    10    1
    10     8    11    2
    11     1    12    1
    12     2    13    1
    13     5    14    1
    14     5    15    1
    15     6    16    1
    16     6    17    1
    17     7    18    1
    18     7    19    1
