
     RDKit          3D

 19 18  0  0  0  0  0  0  0  0999 V2000
   -4.2717    0.3125    0.2159 O   0  0  0  0  0  0  0  0  0  0  0  0
   -3.1404   -0.2896   -0.2196 N   0  0  0  0  0  0  0  0  0  0  0  0
   -1.8692    0.2157    0.2357 C   0  0  0  0  0  0  0  0  0  0  0  0
   -1.9951    1.2112    1.0262 O   0  0  0  0  0  0  0  0  0  0  0  0
   -0.7101   -0.5429   -0.3237 C   0  0  0  0  0  0  0  0  0  0  0  0
    0.5310    0.1270    0.2616 C   0  0  0  0  0  0  0  0  0  0  0  0
    1.7912   -0.5422   -0.2223 C   0  0  0  0  0  0  0  0  0  0  0  0
    3.1946    0.3460    0.5440 P   0  0  0  0  0  0  0  0  0  0  0  0
    3.3211    1.9227   -0.0752 O   0  0  0  0  0  1  0  0  0  0  0  0
    4.5999   -0.5166    0.1245 O   0  0  0  0  0  1  0  0  0  0  0  0
    3.0499    0.3875    2.0409 O   0  0  0  0  0  0  0  0  0  0  0  0
   -4.2615    1.2405   -0.1677 H   0  0  0  0  0  0  0  0  0  0  0  0
   -3.3594   -1.0979   -0.8745 H   0  0  0  0  0  0  0  0  0  0  0  0
   -0.7403   -0.4130   -1.4264 H   0  0  0  0  0  0  0  0  0  0  0  0
   -0.7822   -1.6052   -0.0331 H   0  0  0  0  0  0  0  0  0  0  0  0
    0.4997    1.1889   -0.0269 H   0  0  0  0  0  0  0  0  0  0  0  0
    0.4536    0.0823    1.3614 H   0  0  0  0  0  0  0  0  0  0  0  0
    1.8677   -0.4636   -1.3068 H   0  0  0  0  0  0  0  0  0  0  0  0
    1.8212   -1.5633    0.1955 H   0  0  0  0  0  0  0  0  0  0  0  0
  1  2  1  0
  2  3  1  0
  3  4  2  0
  3  5  1  0
  5  6  1  0
  6  7  1  0
  7  8  1  0
  8  9  1  0
  8 10  1  0
  8 11  2  0
  1 12  1  0
  2 13  1  0
  5 14  1  0
  5 15  1  0
  6 16  1  0
  6 17  1  0
  7 18  1  0
  7 19  1  0
M  CHG  2   9  -1  10  -1
M  END
$$$$
