@<TRIPOS>MOLECULE
*****
 40 42 0 0 0
SMALL
GASTEIGER

@<TRIPOS>ATOM
      1 C          -1.2242   -2.5758   -2.7499 C.3     1  UNL1        0.0140
      2 C          -1.6132   -1.5280   -1.7789 C.2     1  UNL1        0.2322
      3 O          -2.8113   -1.4736   -1.4241 O.2     1  UNL1       -0.2741
      4 N          -0.6625   -0.6129   -1.2645 N.am    1  UNL1       -0.1853
      5 N           0.7035   -0.5332   -1.5514 N.2     1  UNL1       -0.1809
      6 C           1.3599    0.1355   -0.7022 C.2     1  UNL1        0.0688
      7 C           2.8188    0.3937   -0.7383 C.ar    1  UNL1       -0.0020
      8 C           3.6320   -0.0879   -1.7382 C.ar    1  UNL1       -0.0494
      9 C           4.9894    0.1487   -1.7774 C.ar    1  UNL1       -0.0196
     10 C           5.5899    0.8983   -0.7849 C.ar    1  UNL1        0.1169
     11 O           6.9601    1.1627   -0.7845 O.3     1  UNL1       -0.5068
     12 C           4.7844    1.3854    0.2213 C.ar    1  UNL1       -0.0196
     13 C           3.4155    1.1426    0.2543 C.ar    1  UNL1       -0.0494
     14 C           0.4306    0.6182    0.3412 C.3     1  UNL1        0.0164
     15 C          -0.9179    0.4518   -0.3141 C.3     1  UNL1        0.0794
     16 C          -1.8929    0.0620    0.7201 C.ar    1  UNL1       -0.0245
     17 C          -1.7780   -1.1613    1.3231 C.ar    1  UNL1       -0.0567
     18 C          -2.7153   -1.4989    2.2961 C.ar    1  UNL1       -0.0612
     19 C          -3.7124   -0.6167    2.6222 C.ar    1  UNL1       -0.0588
     20 C          -3.8494    0.6184    2.0308 C.ar    1  UNL1       -0.0501
     21 C          -4.9250    1.5853    2.3737 C.3     1  UNL1       -0.0397
     22 C          -2.8947    0.9327    1.0566 C.ar    1  UNL1       -0.0538
     23 H          -0.2192   -3.0011   -2.5107 H       1  UNL1        0.0323
     24 H          -1.9914   -3.3619   -2.8253 H       1  UNL1        0.0323
     25 H          -1.1072   -2.1287   -3.7804 H       1  UNL1        0.0323
     26 H           3.1771   -0.6753   -2.5208 H       1  UNL1        0.0625
     27 H           5.6243   -0.2413   -2.5800 H       1  UNL1        0.0654
     28 H           7.5280    1.1147   -1.6129 H       1  UNL1        0.2921
     29 H           5.2391    1.9720    1.0026 H       1  UNL1        0.0654
     30 H           2.7968    1.5305    1.0487 H       1  UNL1        0.0625
     31 H           0.5008    0.0299    1.2802 H       1  UNL1        0.0351
     32 H           0.6258    1.7003    0.5600 H       1  UNL1        0.0351
     33 H          -1.2198    1.3795   -0.8512 H       1  UNL1        0.0574
     34 H          -1.0032   -1.8880    1.0933 H       1  UNL1        0.0621
     35 H          -2.6601   -2.4598    2.7991 H       1  UNL1        0.0618
     36 H          -4.4449   -0.8781    3.3812 H       1  UNL1        0.0620
     37 H          -5.6175    1.1138    3.0730 H       1  UNL1        0.0278
     38 H          -4.4596    2.5148    2.7849 H       1  UNL1        0.0278
     39 H          -5.4421    1.9230    1.4288 H       1  UNL1        0.0278
     40 H          -3.0144    1.9089    0.5986 H       1  UNL1        0.0624
@<TRIPOS>BOND
     1     1     2    1
     2     2     3    2
     3     2     4   am
     4     4     5    1
     5     5     6    2
     6     6     7    1
     7     7     8   ar
     8     8     9   ar
     9     9    10   ar
    10    10    11    1
    11    10    12   ar
    12    12    13   ar
    13     6    14    1
    14    14    15    1
    15    15    16    1
    16    16    17   ar
    17    17    18   ar
    18    18    19   ar
    19    19    20   ar
    20    20    21    1
    21    20    22   ar
    22    15     4    1
    23    22    16   ar
    24    13     7   ar
    25     1    23    1
    26     1    24    1
    27     1    25    1
    28     8    26    1
    29     9    27    1
    30    11    28    1
    31    12    29    1
    32    13    30    1
    33    14    31    1
    34    14    32    1
    35    15    33    1
    36    17    34    1
    37    18    35    1
    38    19    36    1
    39    21    37    1
    40    21    38    1
    41    21    39    1
    42    22    40    1
