@<TRIPOS>MOLECULE
*****
 46 49 0 0 0
SMALL
GASTEIGER

@<TRIPOS>ATOM
      1 C           4.2033   -2.1990   -0.3460 C.3     1  UNL1       -0.0375
      2 C           4.4244   -0.7835   -0.7784 C.ar    1  UNL1       -0.0187
      3 C           5.7412   -0.3232   -0.8170 C.ar    1  UNL1       -0.0378
      4 C           5.9578    0.9771   -1.2128 C.ar    1  UNL1        0.0701
      5 C           7.3085    1.4689   -1.2558 C.1     1  UNL1        0.1007
      6 N           8.4028    1.8888   -1.2879 N.1     1  UNL1       -0.1908
      7 C           4.8802    1.7848   -1.5580 C.ar    1  UNL1        0.0458
      8 N           3.6504    1.3125   -1.5085 N.ar    1  UNL1       -0.2488
      9 C           3.4018    0.0548   -1.1289 C.ar    1  UNL1        0.1286
     10 C           2.0091   -0.4469   -1.0826 C.2     1  UNL1        0.2668
     11 O           1.7536   -1.6192   -0.7292 O.2     1  UNL1       -0.2682
     12 N           0.9142    0.3777   -1.4350 N.am    1  UNL1       -0.2802
     13 C          -0.4126   -0.1610   -1.3707 C.ar    1  UNL1        0.0341
     14 C          -1.0139   -0.7873   -2.4406 C.ar    1  UNL1       -0.0391
     15 C          -2.2694   -1.2737   -2.2835 C.ar    1  UNL1       -0.0413
     16 C          -2.9360   -1.1444   -1.0710 C.ar    1  UNL1        0.0466
     17 CL         -4.5436   -1.7819   -0.9773 Cl      1  UNL1       -0.0832
     18 C          -2.3876   -0.5355    0.0162 C.ar    1  UNL1        0.0030
     19 C          -3.0300   -0.3886    1.3362 C.3     1  UNL1        0.1271
     20 C          -3.1084   -1.8209    1.9298 C.3     1  UNL1        0.1199
     21 F          -1.8073   -2.3039    2.0305 F       1  UNL1       -0.2462
     22 N          -2.1075    0.3397    2.1857 N.2     1  UNL1       -0.2225
     23 C          -2.1107    1.6186    2.1948 C.2     1  UNL1        0.2763
     24 N          -1.1993    2.3729    3.0267 N.pl3   1  UNL1       -0.3134
     25 O          -3.0431    2.2146    1.3589 O.2     1  UNL1       -0.4622
     26 C          -4.3459    1.6691    1.2647 C.3     1  UNL1        0.1090
     27 C          -4.8879    1.0106    2.5585 C.3     1  UNL1       -0.0065
     28 C          -4.3617    0.2175    1.3469 C.3     1  UNL1        0.0314
     29 C          -1.0856   -0.0396   -0.1733 C.ar    1  UNL1       -0.0335
     30 H           3.5690   -2.2551    0.5411 H       1  UNL1        0.0278
     31 H           5.1912   -2.6890   -0.1515 H       1  UNL1        0.0278
     32 H           3.7129   -2.7512   -1.1730 H       1  UNL1        0.0278
     33 H           6.5719   -0.9828   -0.5395 H       1  UNL1        0.0634
     34 H           5.1226    2.8119   -1.8648 H       1  UNL1        0.0843
     35 H           1.0900    1.3583   -1.7346 H       1  UNL1        0.1552
     36 H          -0.4343   -0.8533   -3.3617 H       1  UNL1        0.0636
     37 H          -2.7663   -1.7739   -3.1159 H       1  UNL1        0.0633
     38 H          -3.6179   -1.8068    2.9095 H       1  UNL1        0.0643
     39 H          -3.6492   -2.4320    1.2072 H       1  UNL1        0.0643
     40 H          -0.4885    1.8391    3.5431 H       1  UNL1        0.1466
     41 H          -1.2863    3.3776    3.0734 H       1  UNL1        0.1466
     42 H          -5.0756    2.1729    0.6050 H       1  UNL1        0.0737
     43 H          -5.9509    1.1595    2.7003 H       1  UNL1        0.0306
     44 H          -4.1952    1.0733    3.4404 H       1  UNL1        0.0306
     45 H          -5.2027   -0.4078    0.9588 H       1  UNL1        0.0365
     46 H          -0.5875    0.4604    0.6617 H       1  UNL1        0.0640
@<TRIPOS>BOND
     1     1     2    1
     2     2     3   ar
     3     3     4   ar
     4     4     5    1
     5     5     6    3
     6     4     7   ar
     7     7     8   ar
     8     8     9   ar
     9     9    10    1
    10    10    11    2
    11    10    12   am
    12    12    13    1
    13    13    14   ar
    14    14    15   ar
    15    15    16   ar
    16    16    17    1
    17    16    18   ar
    18    18    19    1
    19    19    20    1
    20    20    21    1
    21    19    22    1
    22    22    23    2
    23    23    24    1
    24    23    25    1
    25    25    26    1
    26    26    27    1
    27    27    28    1
    28    18    29   ar
    29     9     2   ar
    30    29    13   ar
    31    28    19    1
    32    28    26    1
    33     1    30    1
    34     1    31    1
    35     1    32    1
    36     3    33    1
    37     7    34    1
    38    12    35    1
    39    14    36    1
    40    15    37    1
    41    20    38    1
    42    20    39    1
    43    24    40    1
    44    24    41    1
    45    26    42    1
    46    27    43    1
    47    27    44    1
    48    28    45    1
    49    29    46    1
