@<TRIPOS>MOLECULE
*****
 29 30 0 0 0
SMALL
GASTEIGER

@<TRIPOS>ATOM
      1 C          -0.5839    0.4603   -0.3343 C.3     1  UNL1        0.0368
      2 C          -0.2936    0.7930   -1.7693 C.3     1  UNL1       -0.0292
      3 C           0.8463   -0.1642   -2.0643 C.3     1  UNL1       -0.0256
      4 C           1.6873    0.0885   -0.8336 C.ar    1  UNL1       -0.0426
      5 C           0.8253    0.4751    0.2062 C.ar    1  UNL1       -0.0271
      6 C           1.4779    0.7485    1.3827 C.ar    1  UNL1       -0.0568
      7 C           2.8290    0.6541    1.5304 C.ar    1  UNL1       -0.0614
      8 C           3.6387    0.2707    0.4854 C.ar    1  UNL1       -0.0615
      9 C           3.0565   -0.0199   -0.7279 C.ar    1  UNL1       -0.0583
     10 N          -1.1089   -0.8432   -0.1218 N.3     1  UNL1       -0.2876
     11 C          -2.3249   -1.1394   -0.8289 C.3     1  UNL1       -0.0113
     12 C          -1.4487   -0.9747    1.2908 C.3     1  UNL1        0.0609
     13 C          -2.5896   -0.0722    1.5352 C.1     1  UNL1       -0.0900
     14 C          -3.5436    0.6598    1.7326 C.1     1  UNL1       -0.1179
     15 H          -1.1962    1.2652    0.0986 H       1  UNL1        0.0512
     16 H           0.1455    1.8115   -1.7885 H       1  UNL1        0.0287
     17 H          -1.1269    0.7556   -2.4527 H       1  UNL1        0.0287
     18 H           1.3711    0.0484   -2.9933 H       1  UNL1        0.0314
     19 H           0.5475   -1.2128   -2.0416 H       1  UNL1        0.0314
     20 H           0.8891    1.0531    2.2173 H       1  UNL1        0.0621
     21 H           3.3094    0.8791    2.4756 H       1  UNL1        0.0618
     22 H           4.7155    0.1709    0.5167 H       1  UNL1        0.0618
     23 H           3.6514   -0.3248   -1.5761 H       1  UNL1        0.0620
     24 H          -2.3962   -2.2641   -0.8415 H       1  UNL1        0.0391
     25 H          -2.3390   -0.8364   -1.8754 H       1  UNL1        0.0391
     26 H          -3.2072   -0.8095   -0.2435 H       1  UNL1        0.0391
     27 H          -0.6116   -0.7634    1.9629 H       1  UNL1        0.0563
     28 H          -1.8396   -2.0151    1.4259 H       1  UNL1        0.0563
     29 H          -4.3806    1.3060    1.8908 H       1  UNL1        0.1228
@<TRIPOS>BOND
     1     1     2    1
     2     2     3    1
     3     3     4    1
     4     4     5   ar
     5     5     6   ar
     6     6     7   ar
     7     7     8   ar
     8     8     9   ar
     9     1    10    1
    10    10    11    1
    11    10    12    1
    12    12    13    1
    13    13    14    3
    14     5     1    1
    15     9     4   ar
    16     1    15    1
    17     2    16    1
    18     2    17    1
    19     3    18    1
    20     3    19    1
    21     6    20    1
    22     7    21    1
    23     8    22    1
    24     9    23    1
    25    11    24    1
    26    11    25    1
    27    11    26    1
    28    12    27    1
    29    12    28    1
    30    14    29    1
