
     RDKit          3D

 29 30  0  0  0  0  0  0  0  0999 V2000
   -0.5839    0.4603   -0.3343 C   0  0  2  0  0  0  0  0  0  0  0  0
   -0.2936    0.7930   -1.7693 C   0  0  0  0  0  0  0  0  0  0  0  0
    0.8463   -0.1642   -2.0643 C   0  0  0  0  0  0  0  0  0  0  0  0
    1.6873    0.0885   -0.8336 C   0  0  0  0  0  0  0  0  0  0  0  0
    0.8253    0.4751    0.2062 C   0  0  0  0  0  0  0  0  0  0  0  0
    1.4779    0.7485    1.3827 C   0  0  0  0  0  0  0  0  0  0  0  0
    2.8290    0.6541    1.5304 C   0  0  0  0  0  0  0  0  0  0  0  0
    3.6387    0.2707    0.4854 C   0  0  0  0  0  0  0  0  0  0  0  0
    3.0565   -0.0199   -0.7279 C   0  0  0  0  0  0  0  0  0  0  0  0
   -1.1089   -0.8432   -0.1218 N   0  0  0  0  0  0  0  0  0  0  0  0
   -2.3249   -1.1394   -0.8289 C   0  0  0  0  0  0  0  0  0  0  0  0
   -1.4487   -0.9747    1.2908 C   0  0  0  0  0  0  0  0  0  0  0  0
   -2.5896   -0.0722    1.5352 C   0  0  0  0  0  0  0  0  0  0  0  0
   -3.5436    0.6598    1.7326 C   0  0  0  0  0  0  0  0  0  0  0  0
   -1.1962    1.2652    0.0986 H   0  0  0  0  0  0  0  0  0  0  0  0
    0.1455    1.8115   -1.7885 H   0  0  0  0  0  0  0  0  0  0  0  0
   -1.1269    0.7556   -2.4527 H   0  0  0  0  0  0  0  0  0  0  0  0
    1.3711    0.0484   -2.9933 H   0  0  0  0  0  0  0  0  0  0  0  0
    0.5475   -1.2128   -2.0416 H   0  0  0  0  0  0  0  0  0  0  0  0
    0.8891    1.0531    2.2173 H   0  0  0  0  0  0  0  0  0  0  0  0
    3.3094    0.8791    2.4756 H   0  0  0  0  0  0  0  0  0  0  0  0
    4.7155    0.1709    0.5167 H   0  0  0  0  0  0  0  0  0  0  0  0
    3.6514   -0.3248   -1.5761 H   0  0  0  0  0  0  0  0  0  0  0  0
   -2.3962   -2.2641   -0.8415 H   0  0  0  0  0  0  0  0  0  0  0  0
   -2.3390   -0.8364   -1.8754 H   0  0  0  0  0  0  0  0  0  0  0  0
   -3.2072   -0.8095   -0.2435 H   0  0  0  0  0  0  0  0  0  0  0  0
   -0.6116   -0.7634    1.9629 H   0  0  0  0  0  0  0  0  0  0  0  0
   -1.8396   -2.0151    1.4259 H   0  0  0  0  0  0  0  0  0  0  0  0
   -4.3806    1.3060    1.8908 H   0  0  0  0  0  0  0  0  0  0  0  0
  1  2  1  0
  2  3  1  0
  3  4  1  0
  4  5  2  0
  5  6  1  0
  6  7  2  0
  7  8  1  0
  8  9  2  0
  1 10  1  0
 10 11  1  0
 10 12  1  0
 12 13  1  0
 13 14  3  0
  5  1  1  0
  9  4  1  0
  1 15  1  1
  2 16  1  0
  2 17  1  0
  3 18  1  0
  3 19  1  0
  6 20  1  0
  7 21  1  0
  8 22  1  0
  9 23  1  0
 11 24  1  0
 11 25  1  0
 11 26  1  0
 12 27  1  0
 12 28  1  0
 14 29  1  0
M  END
$$$$
