
     RDKit          3D

 94 95  0  0  0  0  0  0  0  0999 V2000
    7.8371    2.2177   -1.7646 C   0  0  0  0  0  0  0  0  0  0  0  0
    7.5113    1.8107   -0.3683 C   0  0  0  0  0  0  0  0  0  0  0  0
    7.6269    3.0527    0.5118 C   0  0  0  0  0  0  0  0  0  0  0  0
    8.4131    0.7665    0.2178 C   0  0  0  0  0  0  0  0  0  0  0  0
    6.1001    1.2984   -0.2324 C   0  0  0  0  0  0  0  0  0  0  0  0
    5.1945    1.9077    0.6111 C   0  0  0  0  0  0  0  0  0  0  0  0
    3.9020    1.4475    0.7458 C   0  0  0  0  0  0  0  0  0  0  0  0
    2.8136    2.3314    1.8856 S   0  0  0  0  0  0  0  0  0  0  0  0
    1.1665    1.5747    1.9282 C   0  0  0  0  0  0  0  0  0  0  0  0
    0.3498    2.3791    2.9159 C   0  0  0  0  0  0  0  0  0  0  0  0
    1.3424    0.1790    2.4630 C   0  0  0  0  0  0  0  0  0  0  0  0
    0.3448    1.6584    0.3386 S   0  0  0  0  0  0  0  0  0  0  0  0
   -1.2835    0.9379    0.3606 C   0  0  0  0  0  0  0  0  0  0  0  0
   -1.8869    0.3708    1.4620 C   0  0  0  0  0  0  0  0  0  0  0  0
   -3.1483   -0.2079    1.5377 C   0  0  0  0  0  0  0  0  0  0  0  0
   -3.8533   -0.1861    0.3108 C   0  0  0  0  0  0  0  0  0  0  0  0
   -5.0874   -0.7578    0.4044 O   0  0  0  0  0  0  0  0  0  0  0  0
   -5.4585   -2.0414    0.1296 C   0  0  0  0  0  0  0  0  0  0  0  0
   -4.5549   -2.8479   -0.2955 O   0  0  0  0  0  0  0  0  0  0  0  0
   -6.7700   -2.6772    0.2492 C   0  0  0  0  0  0  0  0  0  0  0  0
   -7.6957   -2.4840   -0.9125 C   0  0  0  0  0  0  0  0  0  0  0  0
   -8.0161   -1.0598   -1.0819 C   0  0  0  0  0  0  0  0  0  0  0  0
   -7.8041    0.1820   -0.5050 O   0  0  0  0  0  0  0  0  0  0  0  0
   -8.7348   -0.9542   -2.1167 O   0  0  0  0  0  0  0  0  0  0  0  0
   -3.3218    0.3634   -0.8354 C   0  0  0  0  0  0  0  0  0  0  0  0
   -2.0346    0.9216   -0.7949 C   0  0  0  0  0  0  0  0  0  0  0  0
   -4.0076    0.4573   -2.1276 C   0  0  0  0  0  0  0  0  0  0  0  0
   -3.1124    1.1478   -3.1718 C   0  0  0  0  0  0  0  0  0  0  0  0
   -4.4943   -0.8176   -2.7293 C   0  0  0  0  0  0  0  0  0  0  0  0
   -5.1988    1.4000   -1.9713 C   0  0  0  0  0  0  0  0  0  0  0  0
   -3.5486   -0.7203    2.8342 C   0  0  0  0  0  0  0  0  0  0  0  0
   -2.4676   -0.4960    3.8730 C   0  0  0  0  0  0  0  0  0  0  0  0
   -4.0183   -2.1582    2.8760 C   0  0  0  0  0  0  0  0  0  0  0  0
   -4.7439    0.1087    3.3076 C   0  0  0  0  0  0  0  0  0  0  0  0
    3.5093    0.3439    0.0114 C   0  0  0  0  0  0  0  0  0  0  0  0
    4.4111   -0.2552   -0.8226 C   0  0  0  0  0  0  0  0  0  0  0  0
    5.7140    0.1899   -0.9731 C   0  0  0  0  0  0  0  0  0  0  0  0
    6.6404   -0.4088   -1.8161 O   0  0  0  0  0  0  0  0  0  0  0  0
    4.0305   -1.4440   -1.6322 C   0  0  0  0  0  0  0  0  0  0  0  0
    4.9391   -2.6088   -1.2425 C   0  0  0  0  0  0  0  0  0  0  0  0
    2.5969   -1.8394   -1.4028 C   0  0  0  0  0  0  0  0  0  0  0  0
    4.1666   -1.1926   -3.1254 C   0  0  0  0  0  0  0  0  0  0  0  0
    6.9669    2.3194   -2.4347 H   0  0  0  0  0  0  0  0  0  0  0  0
    8.3529    3.1979   -1.7875 H   0  0  0  0  0  0  0  0  0  0  0  0
    8.5854    1.4856   -2.1535 H   0  0  0  0  0  0  0  0  0  0  0  0
    7.5277    2.8267    1.5902 H   0  0  0  0  0  0  0  0  0  0  0  0
    6.9379    3.8501    0.1537 H   0  0  0  0  0  0  0  0  0  0  0  0
    8.6608    3.4382    0.3728 H   0  0  0  0  0  0  0  0  0  0  0  0
    7.8674    0.3176    1.0988 H   0  0  0  0  0  0  0  0  0  0  0  0
    8.5661   -0.0956   -0.4728 H   0  0  0  0  0  0  0  0  0  0  0  0
    9.3764    1.1708    0.5986 H   0  0  0  0  0  0  0  0  0  0  0  0
    5.5179    2.7766    1.1831 H   0  0  0  0  0  0  0  0  0  0  0  0
    0.1235    1.8167    3.8523 H   0  0  0  0  0  0  0  0  0  0  0  0
    0.8759    3.3106    3.2589 H   0  0  0  0  0  0  0  0  0  0  0  0
   -0.6092    2.7539    2.4917 H   0  0  0  0  0  0  0  0  0  0  0  0
    2.4184   -0.0682    2.6843 H   0  0  0  0  0  0  0  0  0  0  0  0
    0.8892   -0.5660    1.7887 H   0  0  0  0  0  0  0  0  0  0  0  0
    0.8465    0.0397    3.4666 H   0  0  0  0  0  0  0  0  0  0  0  0
   -1.2031    0.4411    2.3264 H   0  0  0  0  0  0  0  0  0  0  0  0
   -6.6241   -3.7725    0.4414 H   0  0  0  0  0  0  0  0  0  0  0  0
   -7.2996   -2.3428    1.2053 H   0  0  0  0  0  0  0  0  0  0  0  0
   -7.2228   -2.8992   -1.8307 H   0  0  0  0  0  0  0  0  0  0  0  0
   -8.6041   -3.1147   -0.7566 H   0  0  0  0  0  0  0  0  0  0  0  0
   -8.5948    0.6974   -0.1669 H   0  0  0  0  0  0  0  0  0  0  0  0
   -1.5570    1.3738   -1.6666 H   0  0  0  0  0  0  0  0  0  0  0  0
   -2.9798    2.1853   -2.8232 H   0  0  0  0  0  0  0  0  0  0  0  0
   -2.1960    0.6037   -3.3680 H   0  0  0  0  0  0  0  0  0  0  0  0
   -3.7464    1.1616   -4.0979 H   0  0  0  0  0  0  0  0  0  0  0  0
   -5.5386   -1.0233   -2.5066 H   0  0  0  0  0  0  0  0  0  0  0  0
   -4.4898   -0.6571   -3.8621 H   0  0  0  0  0  0  0  0  0  0  0  0
   -3.8081   -1.6820   -2.6057 H   0  0  0  0  0  0  0  0  0  0  0  0
   -6.0695    0.9583   -2.4852 H   0  0  0  0  0  0  0  0  0  0  0  0
   -5.4474    1.5147   -0.8866 H   0  0  0  0  0  0  0  0  0  0  0  0
   -5.0082    2.3898   -2.4437 H   0  0  0  0  0  0  0  0  0  0  0  0
   -1.5180   -0.9784    3.6682 H   0  0  0  0  0  0  0  0  0  0  0  0
   -2.3149    0.5937    3.9617 H   0  0  0  0  0  0  0  0  0  0  0  0
   -2.8940   -0.7969    4.8732 H   0  0  0  0  0  0  0  0  0  0  0  0
   -3.4994   -2.7745    2.1458 H   0  0  0  0  0  0  0  0  0  0  0  0
   -3.6960   -2.6079    3.8804 H   0  0  0  0  0  0  0  0  0  0  0  0
   -5.1168   -2.2465    2.9198 H   0  0  0  0  0  0  0  0  0  0  0  0
   -5.2128   -0.4701    4.1307 H   0  0  0  0  0  0  0  0  0  0  0  0
   -4.3217    1.0770    3.6554 H   0  0  0  0  0  0  0  0  0  0  0  0
   -5.4444    0.2704    2.4660 H   0  0  0  0  0  0  0  0  0  0  0  0
    2.5113   -0.0026    0.1221 H   0  0  0  0  0  0  0  0  0  0  0  0
    6.8185   -0.0974   -2.7739 H   0  0  0  0  0  0  0  0  0  0  0  0
    5.7632   -2.2707   -0.5783 H   0  0  0  0  0  0  0  0  0  0  0  0
    5.4365   -3.0265   -2.1533 H   0  0  0  0  0  0  0  0  0  0  0  0
    4.3603   -3.4148   -0.7106 H   0  0  0  0  0  0  0  0  0  0  0  0
    1.9254   -1.1805   -1.9816 H   0  0  0  0  0  0  0  0  0  0  0  0
    2.3185   -1.9773   -0.3524 H   0  0  0  0  0  0  0  0  0  0  0  0
    2.4815   -2.8626   -1.8681 H   0  0  0  0  0  0  0  0  0  0  0  0
    4.0317   -0.1375   -3.4061 H   0  0  0  0  0  0  0  0  0  0  0  0
    3.3680   -1.7511   -3.6959 H   0  0  0  0  0  0  0  0  0  0  0  0
    5.1199   -1.6438   -3.4633 H   0  0  0  0  0  0  0  0  0  0  0  0
  1  2  1  0
  2  3  1  0
  2  4  1  0
  2  5  1  0
  5  6  2  0
  6  7  1  0
  7  8  1  0
  8  9  1  0
  9 10  1  0
  9 11  1  0
  9 12  1  0
 12 13  1  0
 13 14  2  0
 14 15  1  0
 15 16  2  0
 16 17  1  0
 17 18  1  0
 18 19  2  0
 18 20  1  0
 20 21  1  0
 21 22  1  0
 22 23  1  0
 22 24  2  0
 16 25  1  0
 25 26  2  0
 25 27  1  0
 27 28  1  0
 27 29  1  0
 27 30  1  0
 15 31  1  0
 31 32  1  0
 31 33  1  0
 31 34  1  0
  7 35  2  0
 35 36  1  0
 36 37  2  0
 37 38  1  0
 36 39  1  0
 39 40  1  0
 39 41  1  0
 39 42  1  0
 37  5  1  0
 26 13  1  0
  1 43  1  0
  1 44  1  0
  1 45  1  0
  3 46  1  0
  3 47  1  0
  3 48  1  0
  4 49  1  0
  4 50  1  0
  4 51  1  0
  6 52  1  0
 10 53  1  0
 10 54  1  0
 10 55  1  0
 11 56  1  0
 11 57  1  0
 11 58  1  0
 14 59  1  0
 20 60  1  0
 20 61  1  0
 21 62  1  0
 21 63  1  0
 23 64  1  0
 26 65  1  0
 28 66  1  0
 28 67  1  0
 28 68  1  0
 29 69  1  0
 29 70  1  0
 29 71  1  0
 30 72  1  0
 30 73  1  0
 30 74  1  0
 32 75  1  0
 32 76  1  0
 32 77  1  0
 33 78  1  0
 33 79  1  0
 33 80  1  0
 34 81  1  0
 34 82  1  0
 34 83  1  0
 35 84  1  0
 38 85  1  0
 40 86  1  0
 40 87  1  0
 40 88  1  0
 41 89  1  0
 41 90  1  0
 41 91  1  0
 42 92  1  0
 42 93  1  0
 42 94  1  0
M  END
$$$$
