@<TRIPOS>MOLECULE
*****
 94 95 0 0 0
SMALL
GASTEIGER

@<TRIPOS>ATOM
      1 C           7.8371    2.2177   -1.7646 C.3     1  UNL1       -0.0559
      2 C           7.5113    1.8107   -0.3683 C.3     1  UNL1       -0.0092
      3 C           7.6269    3.0527    0.5118 C.3     1  UNL1       -0.0559
      4 C           8.4131    0.7665    0.2178 C.3     1  UNL1       -0.0559
      5 C           6.1001    1.2984   -0.2324 C.ar    1  UNL1        0.0007
      6 C           5.1945    1.9077    0.6111 C.ar    1  UNL1       -0.0411
      7 C           3.9020    1.4475    0.7458 C.ar    1  UNL1        0.0100
      8 S           2.8136    2.3314    1.8856 S.3     1  UNL1       -0.1078
      9 C           1.1665    1.5747    1.9282 C.3     1  UNL1        0.0655
     10 C           0.3498    2.3791    2.9159 C.3     1  UNL1       -0.0408
     11 C           1.3424    0.1790    2.4630 C.3     1  UNL1       -0.0408
     12 S           0.3448    1.6584    0.3386 S.3     1  UNL1       -0.1078
     13 C          -1.2835    0.9379    0.3606 C.ar    1  UNL1        0.0100
     14 C          -1.8869    0.3708    1.4620 C.ar    1  UNL1       -0.0411
     15 C          -3.1483   -0.2079    1.5377 C.ar    1  UNL1        0.0017
     16 C          -3.8533   -0.1861    0.3108 C.ar    1  UNL1        0.1390
     17 O          -5.0874   -0.7578    0.4044 O.3     1  UNL1       -0.4252
     18 C          -5.4585   -2.0414    0.1296 C.2     1  UNL1        0.3129
     19 O          -4.5549   -2.8479   -0.2955 O.2     1  UNL1       -0.2504
     20 C          -6.7700   -2.6772    0.2492 C.3     1  UNL1        0.0554
     21 C          -7.6957   -2.4840   -0.9125 C.3     1  UNL1        0.0548
     22 C          -8.0161   -1.0598   -1.0819 C.2     1  UNL1        0.3052
     23 O          -7.8041    0.1820   -0.5050 O.3     1  UNL1       -0.4806
     24 O          -8.7348   -0.9542   -2.1167 O.2     1  UNL1       -0.2510
     25 C          -3.3218    0.3634   -0.8354 C.ar    1  UNL1        0.0017
     26 C          -2.0346    0.9216   -0.7949 C.ar    1  UNL1       -0.0411
     27 C          -4.0076    0.4573   -2.1276 C.3     1  UNL1       -0.0092
     28 C          -3.1124    1.1478   -3.1718 C.3     1  UNL1       -0.0559
     29 C          -4.4943   -0.8176   -2.7293 C.3     1  UNL1       -0.0559
     30 C          -5.1988    1.4000   -1.9713 C.3     1  UNL1       -0.0559
     31 C          -3.5486   -0.7203    2.8342 C.3     1  UNL1       -0.0092
     32 C          -2.4676   -0.4960    3.8730 C.3     1  UNL1       -0.0559
     33 C          -4.0183   -2.1582    2.8760 C.3     1  UNL1       -0.0559
     34 C          -4.7439    0.1087    3.3076 C.3     1  UNL1       -0.0559
     35 C           3.5093    0.3439    0.0114 C.ar    1  UNL1       -0.0411
     36 C           4.4111   -0.2552   -0.8226 C.ar    1  UNL1        0.0007
     37 C           5.7140    0.1899   -0.9731 C.ar    1  UNL1        0.1242
     38 O           6.6404   -0.4088   -1.8161 O.3     1  UNL1       -0.5062
     39 C           4.0305   -1.4440   -1.6322 C.3     1  UNL1       -0.0092
     40 C           4.9391   -2.6088   -1.2425 C.3     1  UNL1       -0.0559
     41 C           2.5969   -1.8394   -1.4028 C.3     1  UNL1       -0.0559
     42 C           4.1666   -1.1926   -3.1254 C.3     1  UNL1       -0.0559
     43 H           6.9669    2.3194   -2.4347 H       1  UNL1        0.0238
     44 H           8.3529    3.1979   -1.7875 H       1  UNL1        0.0238
     45 H           8.5854    1.4856   -2.1535 H       1  UNL1        0.0238
     46 H           7.5277    2.8267    1.5902 H       1  UNL1        0.0238
     47 H           6.9379    3.8501    0.1537 H       1  UNL1        0.0238
     48 H           8.6608    3.4382    0.3728 H       1  UNL1        0.0238
     49 H           7.8674    0.3176    1.0988 H       1  UNL1        0.0238
     50 H           8.5661   -0.0956   -0.4728 H       1  UNL1        0.0238
     51 H           9.3764    1.1708    0.5986 H       1  UNL1        0.0238
     52 H           5.5179    2.7766    1.1831 H       1  UNL1        0.0633
     53 H           0.1235    1.8167    3.8523 H       1  UNL1        0.0251
     54 H           0.8759    3.3106    3.2589 H       1  UNL1        0.0251
     55 H          -0.6092    2.7539    2.4917 H       1  UNL1        0.0251
     56 H           2.4184   -0.0682    2.6843 H       1  UNL1        0.0251
     57 H           0.8892   -0.5660    1.7887 H       1  UNL1        0.0251
     58 H           0.8465    0.0397    3.4666 H       1  UNL1        0.0251
     59 H          -1.2031    0.4411    2.3264 H       1  UNL1        0.0633
     60 H          -6.6241   -3.7725    0.4414 H       1  UNL1        0.0383
     61 H          -7.2996   -2.3428    1.2053 H       1  UNL1        0.0383
     62 H          -7.2228   -2.8992   -1.8307 H       1  UNL1        0.0383
     63 H          -8.6041   -3.1147   -0.7566 H       1  UNL1        0.0383
     64 H          -8.5948    0.6974   -0.1669 H       1  UNL1        0.2951
     65 H          -1.5570    1.3738   -1.6666 H       1  UNL1        0.0633
     66 H          -2.9798    2.1853   -2.8232 H       1  UNL1        0.0238
     67 H          -2.1960    0.6037   -3.3680 H       1  UNL1        0.0238
     68 H          -3.7464    1.1616   -4.0979 H       1  UNL1        0.0238
     69 H          -5.5386   -1.0233   -2.5066 H       1  UNL1        0.0238
     70 H          -4.4898   -0.6571   -3.8621 H       1  UNL1        0.0238
     71 H          -3.8081   -1.6820   -2.6057 H       1  UNL1        0.0238
     72 H          -6.0695    0.9583   -2.4852 H       1  UNL1        0.0238
     73 H          -5.4474    1.5147   -0.8866 H       1  UNL1        0.0238
     74 H          -5.0082    2.3898   -2.4437 H       1  UNL1        0.0238
     75 H          -1.5180   -0.9784    3.6682 H       1  UNL1        0.0238
     76 H          -2.3149    0.5937    3.9617 H       1  UNL1        0.0238
     77 H          -2.8940   -0.7969    4.8732 H       1  UNL1        0.0238
     78 H          -3.4994   -2.7745    2.1458 H       1  UNL1        0.0238
     79 H          -3.6960   -2.6079    3.8804 H       1  UNL1        0.0238
     80 H          -5.1168   -2.2465    2.9198 H       1  UNL1        0.0238
     81 H          -5.2128   -0.4701    4.1307 H       1  UNL1        0.0238
     82 H          -4.3217    1.0770    3.6554 H       1  UNL1        0.0238
     83 H          -5.4444    0.2704    2.4660 H       1  UNL1        0.0238
     84 H           2.5113   -0.0026    0.1221 H       1  UNL1        0.0633
     85 H           6.8185   -0.0974   -2.7739 H       1  UNL1        0.2922
     86 H           5.7632   -2.2707   -0.5783 H       1  UNL1        0.0238
     87 H           5.4365   -3.0265   -2.1533 H       1  UNL1        0.0238
     88 H           4.3603   -3.4148   -0.7106 H       1  UNL1        0.0238
     89 H           1.9254   -1.1805   -1.9816 H       1  UNL1        0.0238
     90 H           2.3185   -1.9773   -0.3524 H       1  UNL1        0.0238
     91 H           2.4815   -2.8626   -1.8681 H       1  UNL1        0.0238
     92 H           4.0317   -0.1375   -3.4061 H       1  UNL1        0.0238
     93 H           3.3680   -1.7511   -3.6959 H       1  UNL1        0.0238
     94 H           5.1199   -1.6438   -3.4633 H       1  UNL1        0.0238
@<TRIPOS>BOND
     1     1     2    1
     2     2     3    1
     3     2     4    1
     4     2     5    1
     5     5     6   ar
     6     6     7   ar
     7     7     8    1
     8     8     9    1
     9     9    10    1
    10     9    11    1
    11     9    12    1
    12    12    13    1
    13    13    14   ar
    14    14    15   ar
    15    15    16   ar
    16    16    17    1
    17    17    18    1
    18    18    19    2
    19    18    20    1
    20    20    21    1
    21    21    22    1
    22    22    23    1
    23    22    24    2
    24    16    25   ar
    25    25    26   ar
    26    25    27    1
    27    27    28    1
    28    27    29    1
    29    27    30    1
    30    15    31    1
    31    31    32    1
    32    31    33    1
    33    31    34    1
    34     7    35   ar
    35    35    36   ar
    36    36    37   ar
    37    37    38    1
    38    36    39    1
    39    39    40    1
    40    39    41    1
    41    39    42    1
    42    37     5   ar
    43    26    13   ar
    44     1    43    1
    45     1    44    1
    46     1    45    1
    47     3    46    1
    48     3    47    1
    49     3    48    1
    50     4    49    1
    51     4    50    1
    52     4    51    1
    53     6    52    1
    54    10    53    1
    55    10    54    1
    56    10    55    1
    57    11    56    1
    58    11    57    1
    59    11    58    1
    60    14    59    1
    61    20    60    1
    62    20    61    1
    63    21    62    1
    64    21    63    1
    65    23    64    1
    66    26    65    1
    67    28    66    1
    68    28    67    1
    69    28    68    1
    70    29    69    1
    71    29    70    1
    72    29    71    1
    73    30    72    1
    74    30    73    1
    75    30    74    1
    76    32    75    1
    77    32    76    1
    78    32    77    1
    79    33    78    1
    80    33    79    1
    81    33    80    1
    82    34    81    1
    83    34    82    1
    84    34    83    1
    85    35    84    1
    86    38    85    1
    87    40    86    1
    88    40    87    1
    89    40    88    1
    90    41    89    1
    91    41    90    1
    92    41    91    1
    93    42    92    1
    94    42    93    1
    95    42    94    1
