@<TRIPOS>MOLECULE
*****
 63 66 0 0 0
SMALL
GASTEIGER

@<TRIPOS>ATOM
      1 C           8.7272    1.3030    0.1934 C.3     1  UNL1       -0.0143
      2 C           7.7611    0.1890   -0.1590 C.3     1  UNL1        0.2034
      3 C           8.2659   -1.1152    0.2981 C.2     1  UNL1        0.3488
      4 O           9.3691   -1.5356   -0.1074 O.2     1  UNL1       -0.2465
      5 O           7.5278   -1.8765    1.1720 O.3     1  UNL1       -0.4779
      6 C           7.6142    0.0768   -1.6823 C.3     1  UNL1        0.0015
      7 C           6.3924    0.7859   -2.1816 C.3     1  UNL1       -0.0201
      8 C           5.1957    0.2253   -1.4938 C.ar    1  UNL1       -0.0053
      9 C           4.0430   -0.1111   -2.1351 C.ar    1  UNL1       -0.0517
     10 C           2.9756   -0.6264   -1.4173 C.ar    1  UNL1       -0.0195
     11 C           3.0342   -0.8152   -0.0581 C.ar    1  UNL1        0.1240
     12 O           2.0234   -1.3181    0.7185 O.3     1  UNL1       -0.4917
     13 C           0.7682   -1.7203    0.2519 C.3     1  UNL1        0.0927
     14 C          -0.0276   -2.2126    1.4833 C.3     1  UNL1        0.0157
     15 C          -0.1470   -1.0805    2.4564 C.3     1  UNL1        0.0927
     16 O          -0.8110   -0.0073    1.9070 O.3     1  UNL1       -0.4904
     17 C          -2.1364    0.0186    1.5423 C.ar    1  UNL1        0.1387
     18 C          -3.0249   -1.0073    1.7072 C.ar    1  UNL1       -0.0182
     19 C          -4.3607   -0.8959    1.3106 C.ar    1  UNL1       -0.0548
     20 C          -4.8487    0.2494    0.7369 C.ar    1  UNL1       -0.0427
     21 C          -6.2644    0.3453    0.3253 C.3     1  UNL1       -0.0158
     22 C          -6.3880    0.6420   -1.1668 C.3     1  UNL1       -0.0462
     23 C          -7.8567    0.4666   -1.5104 C.3     1  UNL1       -0.0525
     24 C          -8.7393    1.3583   -0.6974 C.3     1  UNL1       -0.0530
     25 C          -8.4419    1.3481    0.7667 C.3     1  UNL1       -0.0525
     26 C          -6.9625    1.5044    1.0350 C.3     1  UNL1       -0.0462
     27 C          -3.9514    1.2777    0.5752 C.ar    1  UNL1       -0.0364
     28 C          -2.6432    1.1981    0.9514 C.ar    1  UNL1        0.0828
     29 CL         -1.5379    2.5431    0.7221 Cl      1  UNL1       -0.0797
     30 C           4.2260   -0.4623    0.5721 C.ar    1  UNL1        0.0221
     31 C           5.2926    0.0486   -0.1205 C.ar    1  UNL1        0.1287
     32 O           6.5039    0.4183    0.4480 O.3     1  UNL1       -0.4744
     33 H           8.1595    2.1771    0.5134 H       1  UNL1        0.0274
     34 H           9.3876    1.4657   -0.6774 H       1  UNL1        0.0274
     35 H           9.3706    0.9204    1.0135 H       1  UNL1        0.0274
     36 H           7.9986   -2.5787    1.7520 H       1  UNL1        0.2952
     37 H           7.5544   -0.9768   -2.0042 H       1  UNL1        0.0312
     38 H           8.5257    0.4996   -2.1824 H       1  UNL1        0.0312
     39 H           6.4888    1.8813   -1.9986 H       1  UNL1        0.0316
     40 H           6.2813    0.5471   -3.2491 H       1  UNL1        0.0316
     41 H           3.9960    0.0376   -3.2072 H       1  UNL1        0.0623
     42 H           2.0670   -0.8900   -1.9341 H       1  UNL1        0.0654
     43 H           0.7871   -2.5571   -0.4528 H       1  UNL1        0.0697
     44 H           0.1642   -0.9088   -0.1907 H       1  UNL1        0.0697
     45 H           0.6181   -3.0250    1.9035 H       1  UNL1        0.0331
     46 H          -0.9430   -2.6606    1.1080 H       1  UNL1        0.0331
     47 H          -0.6789   -1.5041    3.3633 H       1  UNL1        0.0697
     48 H           0.8565   -0.7765    2.8560 H       1  UNL1        0.0697
     49 H          -2.6911   -1.9276    2.1918 H       1  UNL1        0.0655
     50 H          -5.0171   -1.7401    1.4645 H       1  UNL1        0.0622
     51 H          -6.8282   -0.5659    0.5305 H       1  UNL1        0.0349
     52 H          -5.8063   -0.0707   -1.7576 H       1  UNL1        0.0271
     53 H          -6.0815    1.6891   -1.2986 H       1  UNL1        0.0271
     54 H          -8.0366    0.7168   -2.5882 H       1  UNL1        0.0265
     55 H          -8.1243   -0.5826   -1.2988 H       1  UNL1        0.0265
     56 H          -9.7927    0.9739   -0.8260 H       1  UNL1        0.0265
     57 H          -8.7333    2.4123   -1.0657 H       1  UNL1        0.0265
     58 H          -8.9331    2.2645    1.2049 H       1  UNL1        0.0265
     59 H          -8.8006    0.4342    1.2892 H       1  UNL1        0.0265
     60 H          -6.6016    2.4356    0.5473 H       1  UNL1        0.0271
     61 H          -6.7580    1.4908    2.1110 H       1  UNL1        0.0271
     62 H          -4.3438    2.1906    0.1179 H       1  UNL1        0.0636
     63 H           4.3362   -0.5868    1.6445 H       1  UNL1        0.0691
@<TRIPOS>BOND
     1     2     1    1
     2     2     3    1
     3     3     4    2
     4     3     5    1
     5     2     6    1
     6     6     7    1
     7     7     8    1
     8     8     9   ar
     9     9    10   ar
    10    10    11   ar
    11    11    12    1
    12    12    13    1
    13    13    14    1
    14    14    15    1
    15    15    16    1
    16    16    17    1
    17    17    18   ar
    18    18    19   ar
    19    19    20   ar
    20    20    21    1
    21    21    22    1
    22    22    23    1
    23    23    24    1
    24    24    25    1
    25    25    26    1
    26    20    27   ar
    27    27    28   ar
    28    28    29    1
    29    11    30   ar
    30    30    31   ar
    31    31    32    1
    32    32     2    1
    33    31     8   ar
    34    28    17   ar
    35    26    21    1
    36     1    33    1
    37     1    34    1
    38     1    35    1
    39     5    36    1
    40     6    37    1
    41     6    38    1
    42     7    39    1
    43     7    40    1
    44     9    41    1
    45    10    42    1
    46    13    43    1
    47    13    44    1
    48    14    45    1
    49    14    46    1
    50    15    47    1
    51    15    48    1
    52    18    49    1
    53    19    50    1
    54    21    51    1
    55    22    52    1
    56    22    53    1
    57    23    54    1
    58    23    55    1
    59    24    56    1
    60    24    57    1
    61    25    58    1
    62    25    59    1
    63    26    60    1
    64    26    61    1
    65    27    62    1
    66    30    63    1
