
     RDKit          3D

 63 66  0  0  0  0  0  0  0  0999 V2000
    8.7272    1.3030    0.1934 C   0  0  0  0  0  0  0  0  0  0  0  0
    7.7611    0.1890   -0.1590 C   0  0  2  0  0  0  0  0  0  0  0  0
    8.2659   -1.1152    0.2981 C   0  0  0  0  0  0  0  0  0  0  0  0
    9.3691   -1.5356   -0.1074 O   0  0  0  0  0  0  0  0  0  0  0  0
    7.5278   -1.8765    1.1720 O   0  0  0  0  0  0  0  0  0  0  0  0
    7.6142    0.0768   -1.6823 C   0  0  0  0  0  0  0  0  0  0  0  0
    6.3924    0.7859   -2.1816 C   0  0  0  0  0  0  0  0  0  0  0  0
    5.1957    0.2253   -1.4938 C   0  0  0  0  0  0  0  0  0  0  0  0
    4.0430   -0.1111   -2.1351 C   0  0  0  0  0  0  0  0  0  0  0  0
    2.9756   -0.6264   -1.4173 C   0  0  0  0  0  0  0  0  0  0  0  0
    3.0342   -0.8152   -0.0581 C   0  0  0  0  0  0  0  0  0  0  0  0
    2.0234   -1.3181    0.7185 O   0  0  0  0  0  0  0  0  0  0  0  0
    0.7682   -1.7203    0.2519 C   0  0  0  0  0  0  0  0  0  0  0  0
   -0.0276   -2.2126    1.4833 C   0  0  0  0  0  0  0  0  0  0  0  0
   -0.1470   -1.0805    2.4564 C   0  0  0  0  0  0  0  0  0  0  0  0
   -0.8110   -0.0073    1.9070 O   0  0  0  0  0  0  0  0  0  0  0  0
   -2.1364    0.0186    1.5423 C   0  0  0  0  0  0  0  0  0  0  0  0
   -3.0249   -1.0073    1.7072 C   0  0  0  0  0  0  0  0  0  0  0  0
   -4.3607   -0.8959    1.3106 C   0  0  0  0  0  0  0  0  0  0  0  0
   -4.8487    0.2494    0.7369 C   0  0  0  0  0  0  0  0  0  0  0  0
   -6.2644    0.3453    0.3253 C   0  0  0  0  0  0  0  0  0  0  0  0
   -6.3880    0.6420   -1.1668 C   0  0  0  0  0  0  0  0  0  0  0  0
   -7.8567    0.4666   -1.5104 C   0  0  0  0  0  0  0  0  0  0  0  0
   -8.7393    1.3583   -0.6974 C   0  0  0  0  0  0  0  0  0  0  0  0
   -8.4419    1.3481    0.7667 C   0  0  0  0  0  0  0  0  0  0  0  0
   -6.9625    1.5044    1.0350 C   0  0  0  0  0  0  0  0  0  0  0  0
   -3.9514    1.2777    0.5752 C   0  0  0  0  0  0  0  0  0  0  0  0
   -2.6432    1.1981    0.9514 C   0  0  0  0  0  0  0  0  0  0  0  0
   -1.5379    2.5431    0.7221 Cl  0  0  0  0  0  0  0  0  0  0  0  0
    4.2260   -0.4623    0.5721 C   0  0  0  0  0  0  0  0  0  0  0  0
    5.2926    0.0486   -0.1205 C   0  0  0  0  0  0  0  0  0  0  0  0
    6.5039    0.4183    0.4480 O   0  0  0  0  0  0  0  0  0  0  0  0
    8.1595    2.1771    0.5134 H   0  0  0  0  0  0  0  0  0  0  0  0
    9.3876    1.4657   -0.6774 H   0  0  0  0  0  0  0  0  0  0  0  0
    9.3706    0.9204    1.0135 H   0  0  0  0  0  0  0  0  0  0  0  0
    7.9986   -2.5787    1.7520 H   0  0  0  0  0  0  0  0  0  0  0  0
    7.5544   -0.9768   -2.0042 H   0  0  0  0  0  0  0  0  0  0  0  0
    8.5257    0.4996   -2.1824 H   0  0  0  0  0  0  0  0  0  0  0  0
    6.4888    1.8813   -1.9986 H   0  0  0  0  0  0  0  0  0  0  0  0
    6.2813    0.5471   -3.2491 H   0  0  0  0  0  0  0  0  0  0  0  0
    3.9960    0.0376   -3.2072 H   0  0  0  0  0  0  0  0  0  0  0  0
    2.0670   -0.8900   -1.9341 H   0  0  0  0  0  0  0  0  0  0  0  0
    0.7871   -2.5571   -0.4528 H   0  0  0  0  0  0  0  0  0  0  0  0
    0.1642   -0.9088   -0.1907 H   0  0  0  0  0  0  0  0  0  0  0  0
    0.6181   -3.0250    1.9035 H   0  0  0  0  0  0  0  0  0  0  0  0
   -0.9430   -2.6606    1.1080 H   0  0  0  0  0  0  0  0  0  0  0  0
   -0.6789   -1.5041    3.3633 H   0  0  0  0  0  0  0  0  0  0  0  0
    0.8565   -0.7765    2.8560 H   0  0  0  0  0  0  0  0  0  0  0  0
   -2.6911   -1.9276    2.1918 H   0  0  0  0  0  0  0  0  0  0  0  0
   -5.0171   -1.7401    1.4645 H   0  0  0  0  0  0  0  0  0  0  0  0
   -6.8282   -0.5659    0.5305 H   0  0  0  0  0  0  0  0  0  0  0  0
   -5.8063   -0.0707   -1.7576 H   0  0  0  0  0  0  0  0  0  0  0  0
   -6.0815    1.6891   -1.2986 H   0  0  0  0  0  0  0  0  0  0  0  0
   -8.0366    0.7168   -2.5882 H   0  0  0  0  0  0  0  0  0  0  0  0
   -8.1243   -0.5826   -1.2988 H   0  0  0  0  0  0  0  0  0  0  0  0
   -9.7927    0.9739   -0.8260 H   0  0  0  0  0  0  0  0  0  0  0  0
   -8.7333    2.4123   -1.0657 H   0  0  0  0  0  0  0  0  0  0  0  0
   -8.9331    2.2645    1.2049 H   0  0  0  0  0  0  0  0  0  0  0  0
   -8.8006    0.4342    1.2892 H   0  0  0  0  0  0  0  0  0  0  0  0
   -6.6016    2.4356    0.5473 H   0  0  0  0  0  0  0  0  0  0  0  0
   -6.7580    1.4908    2.1110 H   0  0  0  0  0  0  0  0  0  0  0  0
   -4.3438    2.1906    0.1179 H   0  0  0  0  0  0  0  0  0  0  0  0
    4.3362   -0.5868    1.6445 H   0  0  0  0  0  0  0  0  0  0  0  0
  2  1  1  6
  2  3  1  0
  3  4  2  0
  3  5  1  0
  2  6  1  0
  6  7  1  0
  7  8  1  0
  8  9  2  0
  9 10  1  0
 10 11  2  0
 11 12  1  0
 12 13  1  0
 13 14  1  0
 14 15  1  0
 15 16  1  0
 16 17  1  0
 17 18  2  0
 18 19  1  0
 19 20  2  0
 20 21  1  0
 21 22  1  0
 22 23  1  0
 23 24  1  0
 24 25  1  0
 25 26  1  0
 20 27  1  0
 27 28  2  0
 28 29  1  0
 11 30  1  0
 30 31  2  0
 31 32  1  0
 32  2  1  0
 31  8  1  0
 28 17  1  0
 26 21  1  0
  1 33  1  0
  1 34  1  0
  1 35  1  0
  5 36  1  0
  6 37  1  0
  6 38  1  0
  7 39  1  0
  7 40  1  0
  9 41  1  0
 10 42  1  0
 13 43  1  0
 13 44  1  0
 14 45  1  0
 14 46  1  0
 15 47  1  0
 15 48  1  0
 18 49  1  0
 19 50  1  0
 21 51  1  0
 22 52  1  0
 22 53  1  0
 23 54  1  0
 23 55  1  0
 24 56  1  0
 24 57  1  0
 25 58  1  0
 25 59  1  0
 26 60  1  0
 26 61  1  0
 27 62  1  0
 30 63  1  0
M  END
$$$$
