@<TRIPOS>MOLECULE
*****
 57 62 0 0 0
SMALL
GASTEIGER

@<TRIPOS>ATOM
      1 O          -4.8796   -0.7607    1.4813 O.2     1  UNL1       -0.2702
      2 C          -4.9927   -0.7626    0.2280 C.2     1  UNL1        0.2443
      3 N          -6.2929   -0.8758   -0.3129 N.am    1  UNL1       -0.3072
      4 C          -7.5169   -0.9894    0.4529 C.3     1  UNL1        0.0372
      5 C          -8.0151    0.2461    1.0313 C.ar    1  UNL1       -0.0275
      6 C          -7.6769    0.6209    2.3084 C.ar    1  UNL1       -0.0389
      7 C          -8.1543    1.8150    2.8629 C.ar    1  UNL1        0.0279
      8 N          -8.9574    2.5984    2.1206 N.ar    1  UNL1       -0.2632
      9 C          -9.2970    2.2355    0.8577 C.ar    1  UNL1        0.0279
     10 C          -8.8366    1.0675    0.2993 C.ar    1  UNL1       -0.0389
     11 C          -3.7645   -0.6478   -0.5368 C.ar    1  UNL1        0.0370
     12 C          -3.7570   -0.6137   -1.9103 C.ar    1  UNL1       -0.0490
     13 C          -2.5934   -0.5091   -2.6578 C.ar    1  UNL1       -0.0516
     14 C          -1.3831   -0.4352   -2.0090 C.ar    1  UNL1        0.0036
     15 C          -1.3496   -0.4661   -0.6316 C.ar    1  UNL1       -0.0331
     16 C          -2.5353   -0.5714    0.0809 C.ar    1  UNL1       -0.0455
     17 C           0.0713   -0.3729   -0.1506 C.3     1  UNL1        0.0023
     18 C           0.8562   -0.2886   -1.3802 C.ar    1  UNL1        0.0099
     19 C           2.1632   -0.1845   -1.8655 C.ar    1  UNL1        0.0966
     20 C           3.3747   -0.1177   -1.0652 C.ar    1  UNL1        0.0024
     21 C           4.4833   -0.8811   -1.4009 C.ar    1  UNL1       -0.0519
     22 C           5.6477   -0.8469   -0.6676 C.ar    1  UNL1       -0.0534
     23 C           5.7543   -0.0386    0.4449 C.ar    1  UNL1       -0.0178
     24 C           6.9927    0.0068    1.2365 C.ar    1  UNL1       -0.0177
     25 C           7.7744   -1.1177    1.3386 C.ar    1  UNL1       -0.0506
     26 C           8.9315   -1.0499    2.0835 C.ar    1  UNL1       -0.0196
     27 C           9.3337    0.0930    2.7263 C.ar    1  UNL1        0.1169
     28 O          10.5142    0.1594    3.4857 O.3     1  UNL1       -0.5068
     29 C           8.5254    1.1971    2.6006 C.ar    1  UNL1       -0.0196
     30 C           7.3728    1.1578    1.8682 C.ar    1  UNL1       -0.0506
     31 C           4.6487    0.7232    0.7799 C.ar    1  UNL1       -0.0534
     32 C           3.4800    0.6923    0.0488 C.ar    1  UNL1       -0.0519
     33 N           2.0426   -0.1618   -3.2005 N.ar    1  UNL1       -0.1730
     34 N           0.7659   -0.2443   -3.5483 N.ar    1  UNL1       -0.2761
     35 C           0.0065   -0.3242   -2.4468 C.ar    1  UNL1        0.0701
     36 H          -6.3376   -0.8744   -1.3737 H       1  UNL1        0.1493
     37 H          -7.2637   -1.6827    1.3069 H       1  UNL1        0.0512
     38 H          -8.2623   -1.5250   -0.1724 H       1  UNL1        0.0512
     39 H          -7.0445   -0.0008    2.9032 H       1  UNL1        0.0636
     40 H          -7.8893    2.1091    3.8630 H       1  UNL1        0.0829
     41 H          -9.9408    2.9031    0.3178 H       1  UNL1        0.0829
     42 H          -9.1007    0.7627   -0.7154 H       1  UNL1        0.0636
     43 H          -4.6934   -0.6694   -2.4751 H       1  UNL1        0.0625
     44 H          -2.5924   -0.4821   -3.7398 H       1  UNL1        0.0624
     45 H          -2.5186   -0.5964    1.1725 H       1  UNL1        0.0628
     46 H           0.3089   -1.2207    0.4985 H       1  UNL1        0.0363
     47 H           0.1172    0.5821    0.4495 H       1  UNL1        0.0363
     48 H           4.3804   -1.5093   -2.2766 H       1  UNL1        0.0624
     49 H           6.4925   -1.4566   -0.9596 H       1  UNL1        0.0624
     50 H           7.4863   -2.0589    0.8364 H       1  UNL1        0.0625
     51 H           9.5694   -1.9395    2.1761 H       1  UNL1        0.0654
     52 H          11.2464    0.7390    3.0499 H       1  UNL1        0.2921
     53 H           8.8307    2.1116    3.1048 H       1  UNL1        0.0654
     54 H           6.7708    2.0495    1.7983 H       1  UNL1        0.0625
     55 H           4.7160    1.3609    1.6483 H       1  UNL1        0.0624
     56 H           2.6051    1.2933    0.3119 H       1  UNL1        0.0624
     57 H           0.3829   -0.2488   -4.5237 H       1  UNL1        0.1889
@<TRIPOS>BOND
     1     1     2    2
     2     2     3   am
     3     3     4    1
     4     4     5    1
     5     5     6   ar
     6     6     7   ar
     7     7     8   ar
     8     8     9   ar
     9     9    10   ar
    10     2    11    1
    11    11    12   ar
    12    12    13   ar
    13    13    14   ar
    14    14    15   ar
    15    15    16   ar
    16    15    17    1
    17    17    18    1
    18    18    19   ar
    19    19    20    1
    20    20    21   ar
    21    21    22   ar
    22    22    23   ar
    23    23    24    1
    24    24    25   ar
    25    25    26   ar
    26    26    27   ar
    27    27    28    1
    28    27    29   ar
    29    29    30   ar
    30    23    31   ar
    31    31    32   ar
    32    19    33   ar
    33    33    34   ar
    34    34    35   ar
    35    10     5   ar
    36    16    11   ar
    37    35    18   ar
    38    35    14    1
    39    32    20   ar
    40    30    24   ar
    41     3    36    1
    42     4    37    1
    43     4    38    1
    44     6    39    1
    45     7    40    1
    46     9    41    1
    47    10    42    1
    48    12    43    1
    49    13    44    1
    50    16    45    1
    51    17    46    1
    52    17    47    1
    53    21    48    1
    54    22    49    1
    55    25    50    1
    56    26    51    1
    57    28    52    1
    58    29    53    1
    59    30    54    1
    60    31    55    1
    61    32    56    1
    62    34    57    1
