
     RDKit          3D

 45 47  0  0  0  0  0  0  0  0999 V2000
    8.7691   -1.1422    0.4849 N   0  0  0  0  0  0  0  0  0  0  0  0
    7.6801   -0.7301    1.3376 C   0  0  0  0  0  0  0  0  0  0  0  0
    7.7924   -0.6024    2.6534 N   0  0  0  0  0  0  0  0  0  0  0  0
    6.7988   -0.2226    3.4705 C   0  0  0  0  0  0  0  0  0  0  0  0
    5.5972    0.0415    2.8491 C   0  0  0  0  0  0  0  0  0  0  0  0
    5.3734   -0.0583    1.5043 C   0  0  0  0  0  0  0  0  0  0  0  0
    4.2475    0.1973    0.9914 O   0  0  0  0  0  0  0  0  0  0  0  0
    3.1070    0.4616    0.5115 C   0  0  0  0  0  0  0  0  0  0  0  0
    1.9638   -0.1961    0.8862 C   0  0  0  0  0  0  0  0  0  0  0  0
    2.0865   -1.1718    1.8187 F   0  0  0  0  0  0  0  0  0  0  0  0
    0.7715    0.1781    0.2932 C   0  0  0  0  0  0  0  0  0  0  0  0
    0.7061    1.1675   -0.6387 C   0  0  0  0  0  0  0  0  0  0  0  0
   -0.5334    1.5445   -1.2585 N   0  0  0  0  0  0  0  0  0  0  0  0
   -1.7422    0.8379   -0.8903 C   0  0  0  0  0  0  0  0  0  0  0  0
   -1.9998   -0.0702   -0.1196 O   0  0  0  0  0  0  0  0  0  0  0  0
   -2.5695    1.5562   -1.7357 N   0  0  0  0  0  0  0  0  0  0  0  0
   -4.0063    1.1981   -1.7486 C   0  0  0  0  0  0  0  0  0  0  0  0
   -4.3796    0.2488   -0.9885 O   0  0  0  0  0  0  0  0  0  0  0  0
   -5.4991    1.0280   -1.9420 C   0  0  0  0  0  0  0  0  0  0  0  0
   -5.9943   -0.0649   -1.1011 C   0  0  0  0  0  0  0  0  0  0  0  0
   -6.0553   -1.3104   -1.7358 C   0  0  0  0  0  0  0  0  0  0  0  0
   -6.4928   -2.4205   -1.0805 C   0  0  0  0  0  0  0  0  0  0  0  0
   -6.9091   -2.4456    0.2333 C   0  0  0  0  0  0  0  0  0  0  0  0
   -7.3510   -3.4899    0.9484 F   0  0  0  0  0  0  0  0  0  0  0  0
   -6.8284   -1.1785    0.8196 C   0  0  0  0  0  0  0  0  0  0  0  0
   -6.3959   -0.0281    0.2054 C   0  0  0  0  0  0  0  0  0  0  0  0
    1.8471    1.8322   -1.0193 C   0  0  0  0  0  0  0  0  0  0  0  0
    3.0380    1.4616   -0.4299 C   0  0  0  0  0  0  0  0  0  0  0  0
    6.4605   -0.4565    0.7538 C   0  0  0  0  0  0  0  0  0  0  0  0
    8.5704   -2.1803    0.6114 H   0  0  0  0  0  0  0  0  0  0  0  0
    9.2074   -0.2524    0.1696 H   0  0  0  0  0  0  0  0  0  0  0  0
    6.8951   -0.1198    4.5438 H   0  0  0  0  0  0  0  0  0  0  0  0
    4.7753    0.3519    3.4975 H   0  0  0  0  0  0  0  0  0  0  0  0
   -0.0477   -0.3998    0.6633 H   0  0  0  0  0  0  0  0  0  0  0  0
   -0.4192    2.3480   -1.9578 H   0  0  0  0  0  0  0  0  0  0  0  0
   -3.1520    2.0619   -2.3308 H   0  0  0  0  0  0  0  0  0  0  0  0
   -5.6712    0.8745   -3.0143 H   0  0  0  0  0  0  0  0  0  0  0  0
   -5.9994    1.9690   -1.6613 H   0  0  0  0  0  0  0  0  0  0  0  0
   -5.7597   -1.4476   -2.7708 H   0  0  0  0  0  0  0  0  0  0  0  0
   -6.5364   -3.3909   -1.5914 H   0  0  0  0  0  0  0  0  0  0  0  0
   -7.1195   -1.0056    1.8695 H   0  0  0  0  0  0  0  0  0  0  0  0
   -6.3432    0.9338    0.6780 H   0  0  0  0  0  0  0  0  0  0  0  0
    1.8469    2.6441   -1.7723 H   0  0  0  0  0  0  0  0  0  0  0  0
    3.8949    2.0089   -0.7596 H   0  0  0  0  0  0  0  0  0  0  0  0
    6.3762   -0.5612   -0.3068 H   0  0  0  0  0  0  0  0  0  0  0  0
  1  2  1  0
  2  3  2  0
  3  4  1  0
  4  5  2  0
  5  6  1  0
  6  7  1  0
  7  8  1  0
  8  9  2  0
  9 10  1  0
  9 11  1  0
 11 12  2  0
 12 13  1  0
 13 14  1  0
 14 15  2  0
 14 16  1  0
 16 17  1  0
 17 18  2  0
 17 19  1  0
 19 20  1  0
 20 21  2  0
 21 22  1  0
 22 23  2  0
 23 24  1  0
 23 25  1  0
 25 26  2  0
 12 27  1  0
 27 28  2  0
  6 29  2  0
 29  2  1  0
 28  8  1  0
 26 20  1  0
  1 30  1  0
  1 31  1  0
  4 32  1  0
  5 33  1  0
 11 34  1  0
 13 35  1  0
 16 36  1  0
 19 37  1  0
 19 38  1  0
 21 39  1  0
 22 40  1  0
 25 41  1  0
 26 42  1  0
 27 43  1  0
 28 44  1  0
 29 45  1  0
M  END
$$$$
