@<TRIPOS>MOLECULE
*****
 45 47 0 0 0
SMALL
GASTEIGER

@<TRIPOS>ATOM
      1 N           8.7691   -1.1422    0.4849 N.pl3   1  UNL1       -0.3430
      2 C           7.6801   -0.7301    1.3376 C.ar    1  UNL1        0.1196
      3 N           7.7924   -0.6024    2.6534 N.ar    1  UNL1       -0.2405
      4 C           6.7988   -0.2226    3.4705 C.ar    1  UNL1        0.0332
      5 C           5.5972    0.0415    2.8491 C.ar    1  UNL1       -0.0011
      6 C           5.3734   -0.0583    1.5043 C.ar    1  UNL1        0.1333
      7 O           4.2475    0.1973    0.9914 O.3     1  UNL1       -0.4530
      8 C           3.1070    0.4616    0.5115 C.ar    1  UNL1        0.1636
      9 C           1.9638   -0.1961    0.8862 C.ar    1  UNL1        0.1672
     10 F           2.0865   -1.1718    1.8187 F       1  UNL1       -0.2016
     11 C           0.7715    0.1781    0.2932 C.ar    1  UNL1       -0.0015
     12 C           0.7061    1.1675   -0.6387 C.ar    1  UNL1        0.0377
     13 N          -0.5334    1.5445   -1.2585 N.am    1  UNL1       -0.2691
     14 C          -1.7422    0.8379   -0.8903 C.2     1  UNL1        0.3101
     15 O          -1.9998   -0.0702   -0.1196 O.2     1  UNL1       -0.2521
     16 N          -2.5695    1.5562   -1.7357 N.am    1  UNL1       -0.2397
     17 C          -4.0063    1.1981   -1.7486 C.2     1  UNL1        0.2247
     18 O          -4.3796    0.2488   -0.9885 O.2     1  UNL1       -0.2750
     19 C          -5.4991    1.0280   -1.9420 C.3     1  UNL1        0.0495
     20 C          -5.9943   -0.0649   -1.1011 C.ar    1  UNL1       -0.0384
     21 C          -6.0553   -1.3104   -1.7358 C.ar    1  UNL1       -0.0554
     22 C          -6.4928   -2.4205   -1.0805 C.ar    1  UNL1       -0.0262
     23 C          -6.9091   -2.4456    0.2333 C.ar    1  UNL1        0.1234
     24 F          -7.3510   -3.4899    0.9484 F       1  UNL1       -0.2055
     25 C          -6.8284   -1.1785    0.8196 C.ar    1  UNL1       -0.0262
     26 C          -6.3959   -0.0281    0.2054 C.ar    1  UNL1       -0.0554
     27 C           1.8471    1.8322   -1.0193 C.ar    1  UNL1       -0.0368
     28 C           3.0380    1.4616   -0.4299 C.ar    1  UNL1       -0.0147
     29 C           6.4605   -0.4565    0.7538 C.ar    1  UNL1        0.0202
     30 H           8.5704   -2.1803    0.6114 H       1  UNL1        0.1437
     31 H           9.2074   -0.2524    0.1696 H       1  UNL1        0.1437
     32 H           6.8951   -0.1198    4.5438 H       1  UNL1        0.0831
     33 H           4.7753    0.3519    3.4975 H       1  UNL1        0.0669
     34 H          -0.0477   -0.3998    0.6633 H       1  UNL1        0.0666
     35 H          -0.4192    2.3480   -1.9578 H       1  UNL1        0.1564
     36 H          -3.1520    2.0619   -2.3308 H       1  UNL1        0.1591
     37 H          -5.6712    0.8745   -3.0143 H       1  UNL1        0.0407
     38 H          -5.9994    1.9690   -1.6613 H       1  UNL1        0.0407
     39 H          -5.7597   -1.4476   -2.7708 H       1  UNL1        0.0621
     40 H          -6.5364   -3.3909   -1.5914 H       1  UNL1        0.0646
     41 H          -7.1195   -1.0056    1.8695 H       1  UNL1        0.0646
     42 H          -6.3432    0.9338    0.6780 H       1  UNL1        0.0621
     43 H           1.8469    2.6441   -1.7723 H       1  UNL1        0.0637
     44 H           3.8949    2.0089   -0.7596 H       1  UNL1        0.0656
     45 H           6.3762   -0.5612   -0.3068 H       1  UNL1        0.0689
@<TRIPOS>BOND
     1     1     2    1
     2     2     3   ar
     3     3     4   ar
     4     4     5   ar
     5     5     6   ar
     6     6     7    1
     7     7     8    1
     8     8     9   ar
     9     9    10    1
    10     9    11   ar
    11    11    12   ar
    12    12    13    1
    13    13    14   am
    14    14    15    2
    15    14    16   am
    16    16    17   am
    17    17    18    2
    18    17    19    1
    19    19    20    1
    20    20    21   ar
    21    21    22   ar
    22    22    23   ar
    23    23    24    1
    24    23    25   ar
    25    25    26   ar
    26    12    27   ar
    27    27    28   ar
    28     6    29   ar
    29    29     2   ar
    30    28     8   ar
    31    26    20   ar
    32     1    30    1
    33     1    31    1
    34     4    32    1
    35     5    33    1
    36    11    34    1
    37    13    35    1
    38    16    36    1
    39    19    37    1
    40    19    38    1
    41    21    39    1
    42    22    40    1
    43    25    41    1
    44    26    42    1
    45    27    43    1
    46    28    44    1
    47    29    45    1
