@<TRIPOS>MOLECULE
*****
 43 45 0 0 0
SMALL
GASTEIGER

@<TRIPOS>ATOM
      1 C          -0.6611    3.9985    0.6320 C.3     1  UNL1        0.0817
      2 O          -0.8471    2.8617   -0.1882 O.3     1  UNL1       -0.4677
      3 C          -1.5212    1.7213    0.2424 C.2     1  UNL1        0.3123
      4 O          -1.9686    1.7408    1.4148 O.2     1  UNL1       -0.2505
      5 C          -1.7196    0.5250   -0.6143 C.3     1  UNL1        0.0848
      6 C          -2.4784   -0.4919    0.1621 C.3     1  UNL1        0.0241
      7 C          -3.6474   -0.9978   -0.6751 C.3     1  UNL1       -0.0351
      8 C          -2.8674   -1.7566   -1.7521 C.3     1  UNL1       -0.0359
      9 C          -1.6239   -2.1731   -1.0386 C.3     1  UNL1        0.0113
     10 C          -0.4116   -1.4056   -1.5726 C.3     1  UNL1       -0.0236
     11 C          -0.4392    0.0397   -1.2252 C.3     1  UNL1        0.0726
     12 C           0.7369    0.3222   -0.3457 C.2     1  UNL1        0.3164
     13 O           0.6223    0.8967    0.7650 O.2     1  UNL1       -0.2501
     14 O           2.0134   -0.0503   -0.7406 O.3     1  UNL1       -0.4256
     15 C           3.1472    0.1785    0.0207 C.ar    1  UNL1        0.1316
     16 C           3.8293    1.3623   -0.1607 C.ar    1  UNL1       -0.0192
     17 C           4.9821    1.6500    0.5797 C.ar    1  UNL1       -0.0583
     18 C           5.4398    0.7493    1.4941 C.ar    1  UNL1       -0.0615
     19 C           4.7814   -0.4376    1.6963 C.ar    1  UNL1       -0.0583
     20 C           3.6439   -0.7039    0.9549 C.ar    1  UNL1       -0.0192
     21 N          -1.7292   -1.7115    0.3363 N.3     1  UNL1       -0.2986
     22 C          -2.3331   -2.6498    1.2061 C.3     1  UNL1       -0.0122
     23 H          -0.7645    3.7760    1.7072 H       1  UNL1        0.0661
     24 H          -1.4946    4.6987    0.3813 H       1  UNL1        0.0661
     25 H           0.2702    4.5386    0.3743 H       1  UNL1        0.0661
     26 H          -2.3645    0.8650   -1.4575 H       1  UNL1        0.0437
     27 H          -2.8214   -0.1153    1.1518 H       1  UNL1        0.0471
     28 H          -4.3142   -1.6506   -0.1152 H       1  UNL1        0.0281
     29 H          -4.1962   -0.1449   -1.0853 H       1  UNL1        0.0281
     30 H          -3.4495   -2.5645   -2.1929 H       1  UNL1        0.0281
     31 H          -2.6098   -0.9695   -2.5205 H       1  UNL1        0.0281
     32 H          -1.4175   -3.2550   -1.0976 H       1  UNL1        0.0463
     33 H           0.4683   -1.9224   -1.1220 H       1  UNL1        0.0288
     34 H          -0.3018   -1.5827   -2.6726 H       1  UNL1        0.0288
     35 H          -0.2294    0.6072   -2.1681 H       1  UNL1        0.0423
     36 H           3.5321    2.1216   -0.8611 H       1  UNL1        0.0654
     37 H           5.5244    2.5747    0.4456 H       1  UNL1        0.0619
     38 H           6.3345    0.9249    2.0979 H       1  UNL1        0.0618
     39 H           5.1339   -1.1639    2.4205 H       1  UNL1        0.0619
     40 H           3.1353   -1.6382    1.1217 H       1  UNL1        0.0654
     41 H          -2.6692   -2.1370    2.1249 H       1  UNL1        0.0391
     42 H          -3.1555   -3.2411    0.7563 H       1  UNL1        0.0391
     43 H          -1.5590   -3.3893    1.5198 H       1  UNL1        0.0391
@<TRIPOS>BOND
     1     1     2    1
     2     2     3    1
     3     3     4    2
     4     3     5    1
     5     5     6    1
     6     6     7    1
     7     7     8    1
     8     8     9    1
     9     9    10    1
    10    10    11    1
    11    11    12    1
    12    12    13    2
    13    12    14    1
    14    14    15    1
    15    15    16   ar
    16    16    17   ar
    17    17    18   ar
    18    18    19   ar
    19    19    20   ar
    20     9    21    1
    21    21    22    1
    22    11     5    1
    23    20    15   ar
    24    21     6    1
    25     1    23    1
    26     1    24    1
    27     1    25    1
    28     5    26    1
    29     6    27    1
    30     7    28    1
    31     7    29    1
    32     8    30    1
    33     8    31    1
    34     9    32    1
    35    10    33    1
    36    10    34    1
    37    11    35    1
    38    16    36    1
    39    17    37    1
    40    18    38    1
    41    19    39    1
    42    20    40    1
    43    22    41    1
    44    22    42    1
    45    22    43    1
