@<TRIPOS>MOLECULE
*****
 61 65 0 0 0
SMALL
GASTEIGER

@<TRIPOS>ATOM
      1 C           8.8428   -2.2980   -1.0073 C.3     1  UNL1        0.0804
      2 O           7.4468   -2.5975   -0.9223 O.3     1  UNL1       -0.4796
      3 C           6.5527   -1.5219   -0.8650 C.ar    1  UNL1        0.2162
      4 C           5.2151   -1.7822   -0.7831 C.ar    1  UNL1        0.0212
      5 C           4.2710   -0.7365   -0.7228 C.ar    1  UNL1        0.0400
      6 N           2.9027   -1.0528   -0.6528 N.pl3   1  UNL1       -0.2834
      7 C           1.8147   -0.1931   -0.3630 C.ar    1  UNL1        0.2212
      8 N           1.9851    1.1003   -0.0514 N.ar    1  UNL1       -0.2219
      9 C           0.9895    1.9386    0.2221 C.ar    1  UNL1        0.0437
     10 C          -0.3503    1.4861    0.1954 C.ar    1  UNL1        0.0583
     11 C          -1.4066    2.4870    0.2597 C.ar    1  UNL1        0.0764
     12 C          -2.6914    2.3480   -0.1394 C.ar    1  UNL1       -0.0349
     13 C          -3.5441    3.4652   -0.0999 C.ar    1  UNL1       -0.0505
     14 C          -3.0873    4.6841    0.3327 C.ar    1  UNL1        0.0004
     15 C          -3.8875    5.8102    0.3889 C.ar    1  UNL1       -0.0526
     16 C          -3.4461    7.0431    0.8206 C.ar    1  UNL1       -0.0611
     17 C          -2.1268    7.1573    1.2198 C.ar    1  UNL1       -0.0597
     18 C          -1.3177    6.0447    1.1694 C.ar    1  UNL1       -0.0357
     19 C          -1.7739    4.8109    0.7333 C.ar    1  UNL1        0.0717
     20 N          -1.0153    3.7357    0.6796 N.ar    1  UNL1       -0.2465
     21 C          -0.5001    0.1772   -0.1127 C.ar    1  UNL1        0.1334
     22 N          -1.7833   -0.4283    0.0819 N.pl3   1  UNL1       -0.3230
     23 C          -2.0483   -1.7723   -0.3992 C.3     1  UNL1        0.0507
     24 C          -3.4947   -2.1566   -0.1682 C.3     1  UNL1       -0.0247
     25 C          -3.4278   -3.6461    0.1975 C.3     1  UNL1        0.0124
     26 C          -4.6445   -4.0685    0.9850 C.3     1  UNL1        0.0495
     27 O          -4.5204   -5.4186    1.2806 O.3     1  UNL1       -0.3946
     28 C          -2.1770   -3.6413    1.0478 C.3     1  UNL1        0.0877
     29 O          -1.7055   -4.9373    1.2602 O.3     1  UNL1       -0.3888
     30 C          -1.2148   -2.8350    0.2113 C.3     1  UNL1        0.0996
     31 O          -0.7850   -3.7074   -0.8146 O.3     1  UNL1       -0.3874
     32 N           0.5426   -0.6756   -0.3969 N.ar    1  UNL1       -0.1988
     33 C           4.7329    0.5514   -0.7489 C.ar    1  UNL1       -0.0221
     34 C           6.1079    0.7792   -0.8329 C.ar    1  UNL1        0.0331
     35 N           6.9508   -0.2583   -0.8868 N.ar    1  UNL1       -0.2212
     36 H           8.9869   -1.8266   -2.0110 H       1  UNL1        0.0660
     37 H           9.1190   -1.5975   -0.2025 H       1  UNL1        0.0660
     38 H           9.4438   -3.2114   -0.9805 H       1  UNL1        0.0660
     39 H           4.8347   -2.8168   -0.7613 H       1  UNL1        0.0689
     40 H           2.6435   -2.0572   -0.8409 H       1  UNL1        0.1550
     41 H           1.1694    2.9676    0.4677 H       1  UNL1        0.0838
     42 H          -3.0832    1.4297   -0.5520 H       1  UNL1        0.0639
     43 H          -4.5612    3.3361   -0.4175 H       1  UNL1        0.0625
     44 H          -4.9230    5.6955    0.0694 H       1  UNL1        0.0624
     45 H          -4.0968    7.9048    0.8528 H       1  UNL1        0.0618
     46 H          -1.7436    8.1259    1.5692 H       1  UNL1        0.0618
     47 H          -0.2914    6.1584    1.4860 H       1  UNL1        0.0639
     48 H          -2.5095    0.0289    0.6265 H       1  UNL1        0.1479
     49 H          -1.8461   -1.7232   -1.5097 H       1  UNL1        0.0524
     50 H          -4.0495   -2.0137   -1.1075 H       1  UNL1        0.0288
     51 H          -3.8817   -1.5738    0.6759 H       1  UNL1        0.0288
     52 H          -3.2827   -4.2572   -0.7106 H       1  UNL1        0.0349
     53 H          -5.5355   -3.9214    0.3422 H       1  UNL1        0.0561
     54 H          -4.7443   -3.4599    1.8912 H       1  UNL1        0.0561
     55 H          -4.4864   -5.9128    0.4230 H       1  UNL1        0.2094
     56 H          -2.4007   -3.1221    2.0067 H       1  UNL1        0.0623
     57 H          -0.9738   -5.1453    0.6024 H       1  UNL1        0.2099
     58 H          -0.3472   -2.4798    0.8065 H       1  UNL1        0.0638
     59 H          -1.3701   -3.6400   -1.6060 H       1  UNL1        0.2100
     60 H           4.0713    1.4099   -0.7148 H       1  UNL1        0.0651
     61 H           6.4520    1.8104   -0.8518 H       1  UNL1        0.0831
@<TRIPOS>BOND
     1     1     2    1
     2     2     3    1
     3     3     4   ar
     4     4     5   ar
     5     5     6    1
     6     6     7    1
     7     7     8   ar
     8     8     9   ar
     9     9    10   ar
    10    10    11    1
    11    11    12   ar
    12    12    13   ar
    13    13    14   ar
    14    14    15   ar
    15    15    16   ar
    16    16    17   ar
    17    17    18   ar
    18    18    19   ar
    19    19    20   ar
    20    10    21   ar
    21    21    22    1
    22    22    23    1
    23    23    24    1
    24    24    25    1
    25    25    26    1
    26    26    27    1
    27    25    28    1
    28    28    29    1
    29    28    30    1
    30    30    31    1
    31    21    32   ar
    32     5    33   ar
    33    33    34   ar
    34    34    35   ar
    35    35     3   ar
    36    32     7   ar
    37    20    11   ar
    38    30    23    1
    39    19    14   ar
    40     1    36    1
    41     1    37    1
    42     1    38    1
    43     4    39    1
    44     6    40    1
    45     9    41    1
    46    12    42    1
    47    13    43    1
    48    15    44    1
    49    16    45    1
    50    17    46    1
    51    18    47    1
    52    22    48    1
    53    23    49    1
    54    24    50    1
    55    24    51    1
    56    25    52    1
    57    26    53    1
    58    26    54    1
    59    27    55    1
    60    28    56    1
    61    29    57    1
    62    30    58    1
    63    31    59    1
    64    33    60    1
    65    34    61    1
