@<TRIPOS>MOLECULE
*****
 48 50 0 0 0
SMALL
GASTEIGER

@<TRIPOS>ATOM
      1 C          -2.1729   -1.2016   -1.2676 C.3     1  UNL1        0.0364
      2 N          -1.2655   -1.9516   -2.1175 N.3     1  UNL1       -0.3248
      3 C          -1.9291   -1.4503    0.1899 C.3     1  UNL1       -0.0100
      4 C          -2.8791   -0.6725    0.9940 C.ar    1  UNL1       -0.0458
      5 C          -2.7255    0.5982    1.5005 C.ar    1  UNL1       -0.0585
      6 C          -3.6797    1.2421    2.2423 C.ar    1  UNL1       -0.0615
      7 C          -4.8710    0.6033    2.5115 C.ar    1  UNL1       -0.0617
      8 C          -5.1207   -0.6715    2.0485 C.ar    1  UNL1       -0.0615
      9 C          -4.0992   -1.2623    1.2992 C.ar    1  UNL1       -0.0585
     10 C          -2.2747    0.2335   -1.6603 C.3     1  UNL1        0.0847
     11 O          -2.7628    0.2625   -2.9815 O.3     1  UNL1       -0.3889
     12 C          -0.9258    0.9263   -1.6948 C.3     1  UNL1        0.0449
     13 N          -0.0089    0.2474   -2.5883 N.3     1  UNL1       -0.1874
     14 S           1.5396    0.9831   -2.6729 S.O2    1  UNL1        0.0585
     15 O           2.3552    0.1792   -3.6461 O.2     1  UNL1       -0.1530
     16 O           1.3760    2.3682   -3.2028 O.2     1  UNL1       -0.1530
     17 C           2.3650    1.0026   -1.1577 C.ar    1  UNL1        0.1058
     18 C           2.2784    2.0108   -0.2308 C.ar    1  UNL1       -0.0348
     19 C           2.9445    2.0147    0.9794 C.ar    1  UNL1       -0.0522
     20 C           3.7420    0.9232    1.2495 C.ar    1  UNL1       -0.0178
     21 C           4.4184    0.9107    2.4605 C.ar    1  UNL1       -0.0540
     22 C           5.2236   -0.1949    2.7295 C.ar    1  UNL1       -0.0612
     23 C           5.3659   -1.2497    1.8532 C.ar    1  UNL1       -0.0612
     24 C           4.6820   -1.2292    0.6373 C.ar    1  UNL1       -0.0540
     25 C           3.8791   -0.1263    0.3696 C.ar    1  UNL1       -0.0160
     26 C           3.1876   -0.0605   -0.8115 C.ar    1  UNL1       -0.0276
     27 H          -3.1893   -1.6493   -1.4803 H       1  UNL1        0.0487
     28 H          -0.8511   -2.7531   -1.5803 H       1  UNL1        0.1186
     29 H          -1.7555   -2.3930   -2.9269 H       1  UNL1        0.1186
     30 H          -0.8809   -1.2390    0.4942 H       1  UNL1        0.0329
     31 H          -2.1190   -2.5430    0.3546 H       1  UNL1        0.0329
     32 H          -1.7958    1.0862    1.2876 H       1  UNL1        0.0620
     33 H          -3.4515    2.2541    2.5958 H       1  UNL1        0.0618
     34 H          -5.6359    1.1072    3.1005 H       1  UNL1        0.0618
     35 H          -6.0320   -1.2047    2.2342 H       1  UNL1        0.0618
     36 H          -4.3094   -2.2649    0.9415 H       1  UNL1        0.0620
     37 H          -2.9167    0.7620   -0.9465 H       1  UNL1        0.0622
     38 H          -2.3655   -0.5171   -3.4447 H       1  UNL1        0.2099
     39 H          -0.4828    0.8319   -0.6830 H       1  UNL1        0.0467
     40 H          -1.1030    1.9711   -1.9864 H       1  UNL1        0.0467
     41 H          -0.3906   -0.0094   -3.5003 H       1  UNL1        0.1481
     42 H           1.6275    2.8583   -0.4980 H       1  UNL1        0.0637
     43 H           2.8404    2.8413    1.6794 H       1  UNL1        0.0624
     44 H           4.3694    1.6900    3.2096 H       1  UNL1        0.0624
     45 H           5.7757   -0.2577    3.6615 H       1  UNL1        0.0618
     46 H           5.9800   -2.1046    2.0460 H       1  UNL1        0.0618
     47 H           4.7543   -2.0185   -0.0801 H       1  UNL1        0.0624
     48 H           3.2895   -0.8833   -1.5115 H       1  UNL1        0.0643
@<TRIPOS>BOND
     1     1     2    1
     2     1     3    1
     3     3     4    1
     4     4     5   ar
     5     5     6   ar
     6     6     7   ar
     7     7     8   ar
     8     8     9   ar
     9     1    10    1
    10    10    11    1
    11    10    12    1
    12    12    13    1
    13    13    14    1
    14    14    15    2
    15    14    16    2
    16    14    17    1
    17    17    18   ar
    18    18    19   ar
    19    19    20   ar
    20    20    21   ar
    21    21    22   ar
    22    22    23   ar
    23    23    24   ar
    24    24    25   ar
    25    25    26   ar
    26     9     4   ar
    27    26    17   ar
    28    25    20   ar
    29     1    27    1
    30     2    28    1
    31     2    29    1
    32     3    30    1
    33     3    31    1
    34     5    32    1
    35     6    33    1
    36     7    34    1
    37     8    35    1
    38     9    36    1
    39    10    37    1
    40    11    38    1
    41    12    39    1
    42    12    40    1
    43    13    41    1
    44    18    42    1
    45    19    43    1
    46    21    44    1
    47    22    45    1
    48    23    46    1
    49    24    47    1
    50    26    48    1
