
     RDKit          3D

 48 50  0  0  0  0  0  0  0  0999 V2000
   -2.1729   -1.2016   -1.2676 C   0  0  1  0  0  0  0  0  0  0  0  0
   -1.2655   -1.9516   -2.1175 N   0  0  0  0  0  0  0  0  0  0  0  0
   -1.9291   -1.4503    0.1899 C   0  0  0  0  0  0  0  0  0  0  0  0
   -2.8791   -0.6725    0.9940 C   0  0  0  0  0  0  0  0  0  0  0  0
   -2.7255    0.5982    1.5005 C   0  0  0  0  0  0  0  0  0  0  0  0
   -3.6797    1.2421    2.2423 C   0  0  0  0  0  0  0  0  0  0  0  0
   -4.8710    0.6033    2.5115 C   0  0  0  0  0  0  0  0  0  0  0  0
   -5.1207   -0.6715    2.0485 C   0  0  0  0  0  0  0  0  0  0  0  0
   -4.0992   -1.2623    1.2992 C   0  0  0  0  0  0  0  0  0  0  0  0
   -2.2747    0.2335   -1.6603 C   0  0  2  0  0  0  0  0  0  0  0  0
   -2.7628    0.2625   -2.9815 O   0  0  0  0  0  0  0  0  0  0  0  0
   -0.9258    0.9263   -1.6948 C   0  0  0  0  0  0  0  0  0  0  0  0
   -0.0089    0.2474   -2.5883 N   0  0  0  0  0  0  0  0  0  0  0  0
    1.5396    0.9831   -2.6729 S   0  0  0  0  0  0  0  0  0  0  0  0
    2.3552    0.1792   -3.6461 O   0  0  0  0  0  0  0  0  0  0  0  0
    1.3760    2.3682   -3.2028 O   0  0  0  0  0  0  0  0  0  0  0  0
    2.3650    1.0026   -1.1577 C   0  0  0  0  0  0  0  0  0  0  0  0
    2.2784    2.0108   -0.2308 C   0  0  0  0  0  0  0  0  0  0  0  0
    2.9445    2.0147    0.9794 C   0  0  0  0  0  0  0  0  0  0  0  0
    3.7420    0.9232    1.2495 C   0  0  0  0  0  0  0  0  0  0  0  0
    4.4184    0.9107    2.4605 C   0  0  0  0  0  0  0  0  0  0  0  0
    5.2236   -0.1949    2.7295 C   0  0  0  0  0  0  0  0  0  0  0  0
    5.3659   -1.2497    1.8532 C   0  0  0  0  0  0  0  0  0  0  0  0
    4.6820   -1.2292    0.6373 C   0  0  0  0  0  0  0  0  0  0  0  0
    3.8791   -0.1263    0.3696 C   0  0  0  0  0  0  0  0  0  0  0  0
    3.1876   -0.0605   -0.8115 C   0  0  0  0  0  0  0  0  0  0  0  0
   -3.1893   -1.6493   -1.4803 H   0  0  0  0  0  0  0  0  0  0  0  0
   -0.8511   -2.7531   -1.5803 H   0  0  0  0  0  0  0  0  0  0  0  0
   -1.7555   -2.3930   -2.9269 H   0  0  0  0  0  0  0  0  0  0  0  0
   -0.8809   -1.2390    0.4942 H   0  0  0  0  0  0  0  0  0  0  0  0
   -2.1190   -2.5430    0.3546 H   0  0  0  0  0  0  0  0  0  0  0  0
   -1.7958    1.0862    1.2876 H   0  0  0  0  0  0  0  0  0  0  0  0
   -3.4515    2.2541    2.5958 H   0  0  0  0  0  0  0  0  0  0  0  0
   -5.6359    1.1072    3.1005 H   0  0  0  0  0  0  0  0  0  0  0  0
   -6.0320   -1.2047    2.2342 H   0  0  0  0  0  0  0  0  0  0  0  0
   -4.3094   -2.2649    0.9415 H   0  0  0  0  0  0  0  0  0  0  0  0
   -2.9167    0.7620   -0.9465 H   0  0  0  0  0  0  0  0  0  0  0  0
   -2.3655   -0.5171   -3.4447 H   0  0  0  0  0  0  0  0  0  0  0  0
   -0.4828    0.8319   -0.6830 H   0  0  0  0  0  0  0  0  0  0  0  0
   -1.1030    1.9711   -1.9864 H   0  0  0  0  0  0  0  0  0  0  0  0
   -0.3906   -0.0094   -3.5003 H   0  0  0  0  0  0  0  0  0  0  0  0
    1.6275    2.8583   -0.4980 H   0  0  0  0  0  0  0  0  0  0  0  0
    2.8404    2.8413    1.6794 H   0  0  0  0  0  0  0  0  0  0  0  0
    4.3694    1.6900    3.2096 H   0  0  0  0  0  0  0  0  0  0  0  0
    5.7757   -0.2577    3.6615 H   0  0  0  0  0  0  0  0  0  0  0  0
    5.9800   -2.1046    2.0460 H   0  0  0  0  0  0  0  0  0  0  0  0
    4.7543   -2.0185   -0.0801 H   0  0  0  0  0  0  0  0  0  0  0  0
    3.2895   -0.8833   -1.5115 H   0  0  0  0  0  0  0  0  0  0  0  0
  1  2  1  0
  1  3  1  0
  3  4  1  0
  4  5  2  0
  5  6  1  0
  6  7  2  0
  7  8  1  0
  8  9  2  0
  1 10  1  0
 10 11  1  0
 10 12  1  0
 12 13  1  0
 13 14  1  0
 14 15  2  0
 14 16  2  0
 14 17  1  0
 17 18  2  0
 18 19  1  0
 19 20  2  0
 20 21  1  0
 21 22  2  0
 22 23  1  0
 23 24  2  0
 24 25  1  0
 25 26  2  0
  9  4  1  0
 26 17  1  0
 25 20  1  0
  1 27  1  6
  2 28  1  0
  2 29  1  0
  3 30  1  0
  3 31  1  0
  5 32  1  0
  6 33  1  0
  7 34  1  0
  8 35  1  0
  9 36  1  0
 10 37  1  1
 11 38  1  0
 12 39  1  0
 12 40  1  0
 13 41  1  0
 18 42  1  0
 19 43  1  0
 21 44  1  0
 22 45  1  0
 23 46  1  0
 24 47  1  0
 26 48  1  0
M  END
$$$$
