
     RDKit          3D

 80 84  0  0  0  0  0  0  0  0999 V2000
   -6.0652    4.2603    0.0143 C   0  0  0  0  0  0  0  0  0  0  0  0
   -4.9465    3.5304   -0.6913 C   0  0  0  0  0  0  0  0  0  0  0  0
   -5.0543    2.1758   -0.3925 O   0  0  0  0  0  0  0  0  0  0  0  0
   -4.0626    1.4251   -0.9926 C   0  0  2  0  0  0  0  0  0  0  0  0
   -4.7727    0.3232   -1.7920 C   0  0  0  0  0  0  0  0  0  0  0  0
   -5.3544   -0.4852   -0.6669 C   0  0  0  0  0  0  0  0  0  0  0  0
   -6.4848   -1.2708   -0.6255 C   0  0  0  0  0  0  0  0  0  0  0  0
   -6.8027   -1.9176    0.5462 C   0  0  0  0  0  0  0  0  0  0  0  0
   -8.0282   -2.7795    0.6285 C   0  0  0  0  0  0  0  0  0  0  0  0
   -9.0961   -1.9429    0.9272 F   0  0  0  0  0  0  0  0  0  0  0  0
   -8.2824   -3.4132   -0.5630 F   0  0  0  0  0  0  0  0  0  0  0  0
   -7.8847   -3.6627    1.6831 F   0  0  0  0  0  0  0  0  0  0  0  0
   -6.0107   -1.7878    1.6603 C   0  0  0  0  0  0  0  0  0  0  0  0
   -4.8655   -0.9813    1.5907 C   0  0  0  0  0  0  0  0  0  0  0  0
   -4.5271   -0.3260    0.4331 C   0  0  0  0  0  0  0  0  0  0  0  0
   -3.4050    0.5788    0.0863 C   0  0  1  0  0  0  0  0  0  0  0  0
   -2.2216   -0.0722   -0.3733 N   0  0  0  0  0  0  0  0  0  0  0  0
   -1.2358    0.8727   -0.7435 C   0  0  0  0  0  0  0  0  0  0  0  0
    0.1778    0.4245   -0.7701 C   0  0  0  0  0  0  0  0  0  0  0  0
    0.4464   -0.6268    0.1031 N   0  0  0  0  0  0  0  0  0  0  0  0
    1.7937   -0.9633    0.3606 C   0  0  0  0  0  0  0  0  0  0  0  0
    1.8614   -2.1296    1.3255 C   0  0  0  0  0  0  0  0  0  0  0  0
    2.4112   -1.4245   -0.9465 C   0  0  0  0  0  0  0  0  0  0  0  0
    3.8794   -1.7491   -0.8155 C   0  0  0  0  0  0  0  0  0  0  0  0
    4.5824   -0.5739   -0.3474 N   0  0  0  0  0  0  0  0  0  0  0  0
    5.9954   -0.5772   -0.3605 C   0  0  0  0  0  0  0  0  0  0  0  0
    6.5943   -1.5959   -0.7816 O   0  0  0  0  0  0  0  0  0  0  0  0
    6.8177    0.5341    0.0833 C   0  0  0  0  0  0  0  0  0  0  0  0
    7.0498    1.6193   -0.7471 C   0  0  0  0  0  0  0  0  0  0  0  0
    6.4752    1.7004   -2.1174 C   0  0  0  0  0  0  0  0  0  0  0  0
    7.8162    2.6654   -0.3432 N   0  0  0  0  0  0  0  0  0  0  0  0
    8.3702    2.6788    0.8698 C   0  0  0  0  0  0  0  0  0  0  0  0
    8.1572    1.6433    1.6800 N   0  0  0  0  0  0  0  0  0  0  0  0
    7.4045    0.5732    1.3382 C   0  0  0  0  0  0  0  0  0  0  0  0
    7.1977   -0.5541    2.2906 C   0  0  0  0  0  0  0  0  0  0  0  0
    3.7913    0.5455    0.1185 C   0  0  0  0  0  0  0  0  0  0  0  0
    2.6202    0.1493    0.9597 C   0  0  0  0  0  0  0  0  0  0  0  0
   -0.5166   -0.9400    1.0698 C   0  0  0  0  0  0  0  0  0  0  0  0
   -1.8189   -1.2341    0.3146 C   0  0  2  0  0  0  0  0  0  0  0  0
   -1.4997   -2.3254   -0.7227 C   0  0  0  0  0  0  0  0  0  0  0  0
   -6.5854    4.9060   -0.7265 H   0  0  0  0  0  0  0  0  0  0  0  0
   -5.7191    4.8875    0.8547 H   0  0  0  0  0  0  0  0  0  0  0  0
   -6.8218    3.5506    0.4378 H   0  0  0  0  0  0  0  0  0  0  0  0
   -3.9910    3.8794   -0.2267 H   0  0  0  0  0  0  0  0  0  0  0  0
   -4.9380    3.6839   -1.7708 H   0  0  0  0  0  0  0  0  0  0  0  0
   -3.3620    1.9889   -1.6019 H   0  0  0  0  0  0  0  0  0  0  0  0
   -4.0377   -0.2729   -2.3549 H   0  0  0  0  0  0  0  0  0  0  0  0
   -5.5426    0.7110   -2.4565 H   0  0  0  0  0  0  0  0  0  0  0  0
   -7.1277   -1.4013   -1.4627 H   0  0  0  0  0  0  0  0  0  0  0  0
   -6.2668   -2.3051    2.5749 H   0  0  0  0  0  0  0  0  0  0  0  0
   -4.2818   -0.9179    2.4994 H   0  0  0  0  0  0  0  0  0  0  0  0
   -3.1842    1.2920    0.9298 H   0  0  0  0  0  0  0  0  0  0  0  0
   -1.4997    1.2206   -1.7876 H   0  0  0  0  0  0  0  0  0  0  0  0
   -1.3963    1.7928   -0.1217 H   0  0  0  0  0  0  0  0  0  0  0  0
    0.8071    1.3299   -0.5250 H   0  0  0  0  0  0  0  0  0  0  0  0
    0.4513    0.1239   -1.8170 H   0  0  0  0  0  0  0  0  0  0  0  0
    1.5891   -1.7982    2.3708 H   0  0  0  0  0  0  0  0  0  0  0  0
    1.2998   -3.0113    0.9921 H   0  0  0  0  0  0  0  0  0  0  0  0
    2.9232   -2.4981    1.4503 H   0  0  0  0  0  0  0  0  0  0  0  0
    2.3580   -0.5723   -1.6738 H   0  0  0  0  0  0  0  0  0  0  0  0
    1.8894   -2.3089   -1.3462 H   0  0  0  0  0  0  0  0  0  0  0  0
    4.2038   -2.0329   -1.8499 H   0  0  0  0  0  0  0  0  0  0  0  0
    4.0992   -2.6083   -0.1857 H   0  0  0  0  0  0  0  0  0  0  0  0
    6.2246    0.6650   -2.4790 H   0  0  0  0  0  0  0  0  0  0  0  0
    7.1869    2.1183   -2.8508 H   0  0  0  0  0  0  0  0  0  0  0  0
    5.5222    2.2585   -2.0803 H   0  0  0  0  0  0  0  0  0  0  0  0
    8.9812    3.5275    1.1634 H   0  0  0  0  0  0  0  0  0  0  0  0
    8.1422   -0.7254    2.8255 H   0  0  0  0  0  0  0  0  0  0  0  0
    6.3796   -0.3459    3.0117 H   0  0  0  0  0  0  0  0  0  0  0  0
    6.9745   -1.5000    1.7319 H   0  0  0  0  0  0  0  0  0  0  0  0
    3.5647    1.1960   -0.7248 H   0  0  0  0  0  0  0  0  0  0  0  0
    4.4757    1.1391    0.7946 H   0  0  0  0  0  0  0  0  0  0  0  0
    2.0019    1.0709    1.1121 H   0  0  0  0  0  0  0  0  0  0  0  0
    3.0123   -0.1096    1.9795 H   0  0  0  0  0  0  0  0  0  0  0  0
   -0.7355   -0.0702    1.7152 H   0  0  0  0  0  0  0  0  0  0  0  0
   -0.3063   -1.8620    1.6362 H   0  0  0  0  0  0  0  0  0  0  0  0
   -2.5153   -1.6476    1.0403 H   0  0  0  0  0  0  0  0  0  0  0  0
   -1.3088   -1.8470   -1.7262 H   0  0  0  0  0  0  0  0  0  0  0  0
   -0.5922   -2.8846   -0.4685 H   0  0  0  0  0  0  0  0  0  0  0  0
   -2.3810   -2.9892   -0.8909 H   0  0  0  0  0  0  0  0  0  0  0  0
  1  2  1  0
  2  3  1  0
  3  4  1  0
  4  5  1  0
  5  6  1  0
  6  7  2  0
  7  8  1  0
  8  9  1  0
  9 10  1  0
  9 11  1  0
  9 12  1  0
  8 13  2  0
 13 14  1  0
 14 15  2  0
 15 16  1  0
 16 17  1  0
 17 18  1  0
 18 19  1  0
 19 20  1  0
 20 21  1  0
 21 22  1  0
 21 23  1  0
 23 24  1  0
 24 25  1  0
 25 26  1  0
 26 27  2  0
 26 28  1  0
 28 29  2  0
 29 30  1  0
 29 31  1  0
 31 32  2  0
 32 33  1  0
 33 34  2  0
 34 35  1  0
 25 36  1  0
 36 37  1  0
 20 38  1  0
 38 39  1  0
 39 40  1  0
 16  4  1  0
 39 17  1  0
 15  6  1  0
 37 21  1  0
 34 28  1  0
  1 41  1  0
  1 42  1  0
  1 43  1  0
  2 44  1  0
  2 45  1  0
  4 46  1  6
  5 47  1  0
  5 48  1  0
  7 49  1  0
 13 50  1  0
 14 51  1  0
 16 52  1  1
 18 53  1  0
 18 54  1  0
 19 55  1  0
 19 56  1  0
 22 57  1  0
 22 58  1  0
 22 59  1  0
 23 60  1  0
 23 61  1  0
 24 62  1  0
 24 63  1  0
 30 64  1  0
 30 65  1  0
 30 66  1  0
 32 67  1  0
 35 68  1  0
 35 69  1  0
 35 70  1  0
 36 71  1  0
 36 72  1  0
 37 73  1  0
 37 74  1  0
 38 75  1  0
 38 76  1  0
 39 77  1  1
 40 78  1  0
 40 79  1  0
 40 80  1  0
M  END
$$$$
