@<TRIPOS>MOLECULE
*****
 80 84 0 0 0
SMALL
GASTEIGER

@<TRIPOS>ATOM
      1 C          -6.0652    4.2603    0.0143 C.3     1  UNL1       -0.0416
      2 C          -4.9465    3.5304   -0.6913 C.3     1  UNL1        0.0453
      3 O          -5.0543    2.1758   -0.3925 O.3     1  UNL1       -0.3746
      4 C          -4.0626    1.4251   -0.9926 C.3     1  UNL1        0.0822
      5 C          -4.7727    0.3232   -1.7920 C.3     1  UNL1        0.0008
      6 C          -5.3544   -0.4852   -0.6669 C.ar    1  UNL1       -0.0396
      7 C          -6.4848   -1.2708   -0.6255 C.ar    1  UNL1       -0.0465
      8 C          -6.8027   -1.9176    0.5462 C.ar    1  UNL1        0.0551
      9 C          -8.0282   -2.7795    0.6285 C.3     1  UNL1        0.4174
     10 F          -9.0961   -1.9429    0.9272 F       1  UNL1       -0.1659
     11 F          -8.2824   -3.4132   -0.5630 F       1  UNL1       -0.1659
     12 F          -7.8847   -3.6627    1.6831 F       1  UNL1       -0.1659
     13 C          -6.0107   -1.7878    1.6603 C.ar    1  UNL1       -0.0498
     14 C          -4.8655   -0.9813    1.5907 C.ar    1  UNL1       -0.0562
     15 C          -4.5271   -0.3260    0.4331 C.ar    1  UNL1       -0.0245
     16 C          -3.4050    0.5788    0.0863 C.3     1  UNL1        0.0627
     17 N          -2.2216   -0.0722   -0.3733 N.3     1  UNL1       -0.2879
     18 C          -1.2358    0.8727   -0.7435 C.3     1  UNL1        0.0127
     19 C           0.1778    0.4245   -0.7701 C.3     1  UNL1        0.0123
     20 N           0.4464   -0.6268    0.1031 N.3     1  UNL1       -0.2942
     21 C           1.7937   -0.9633    0.3606 C.3     1  UNL1        0.0221
     22 C           1.8614   -2.1296    1.3255 C.3     1  UNL1       -0.0465
     23 C           2.4112   -1.4245   -0.9465 C.3     1  UNL1       -0.0188
     24 C           3.8794   -1.7491   -0.8155 C.3     1  UNL1        0.0166
     25 N           4.5824   -0.5739   -0.3474 N.am    1  UNL1       -0.2973
     26 C           5.9954   -0.5772   -0.3605 C.2     1  UNL1        0.2501
     27 O           6.5943   -1.5959   -0.7816 O.2     1  UNL1       -0.2699
     28 C           6.8177    0.5341    0.0833 C.ar    1  UNL1        0.0788
     29 C           7.0498    1.6193   -0.7471 C.ar    1  UNL1        0.0538
     30 C           6.4752    1.7004   -2.1174 C.3     1  UNL1       -0.0215
     31 N           7.8162    2.6654   -0.3432 N.ar    1  UNL1       -0.2398
     32 C           8.3702    2.6788    0.8698 C.ar    1  UNL1        0.1165
     33 N           8.1572    1.6433    1.6800 N.ar    1  UNL1       -0.2398
     34 C           7.4045    0.5732    1.3382 C.ar    1  UNL1        0.0538
     35 C           7.1977   -0.5541    2.2906 C.3     1  UNL1       -0.0215
     36 C           3.7913    0.5455    0.1185 C.3     1  UNL1        0.0166
     37 C           2.6202    0.1493    0.9597 C.3     1  UNL1       -0.0188
     38 C          -0.5166   -0.9400    1.0698 C.3     1  UNL1        0.0148
     39 C          -1.8189   -1.2341    0.3146 C.3     1  UNL1        0.0210
     40 C          -1.4997   -2.3254   -0.7227 C.3     1  UNL1       -0.0483
     41 H          -6.5854    4.9060   -0.7265 H       1  UNL1        0.0252
     42 H          -5.7191    4.8875    0.8547 H       1  UNL1        0.0252
     43 H          -6.8218    3.5506    0.4378 H       1  UNL1        0.0252
     44 H          -3.9910    3.8794   -0.2267 H       1  UNL1        0.0557
     45 H          -4.9380    3.6839   -1.7708 H       1  UNL1        0.0557
     46 H          -3.3620    1.9889   -1.6019 H       1  UNL1        0.0618
     47 H          -4.0377   -0.2729   -2.3549 H       1  UNL1        0.0339
     48 H          -5.5426    0.7110   -2.4565 H       1  UNL1        0.0339
     49 H          -7.1277   -1.4013   -1.4627 H       1  UNL1        0.0626
     50 H          -6.2668   -2.3051    2.5749 H       1  UNL1        0.0623
     51 H          -4.2818   -0.9179    2.4994 H       1  UNL1        0.0621
     52 H          -3.1842    1.2920    0.9298 H       1  UNL1        0.0538
     53 H          -1.4997    1.2206   -1.7876 H       1  UNL1        0.0439
     54 H          -1.3963    1.7928   -0.1217 H       1  UNL1        0.0439
     55 H           0.8071    1.3299   -0.5250 H       1  UNL1        0.0439
     56 H           0.4513    0.1239   -1.8170 H       1  UNL1        0.0439
     57 H           1.5891   -1.7982    2.3708 H       1  UNL1        0.0247
     58 H           1.2998   -3.0113    0.9921 H       1  UNL1        0.0247
     59 H           2.9232   -2.4981    1.4503 H       1  UNL1        0.0247
     60 H           2.3580   -0.5723   -1.6738 H       1  UNL1        0.0298
     61 H           1.8894   -2.3089   -1.3462 H       1  UNL1        0.0298
     62 H           4.2038   -2.0329   -1.8499 H       1  UNL1        0.0465
     63 H           4.0992   -2.6083   -0.1857 H       1  UNL1        0.0465
     64 H           6.2246    0.6650   -2.4790 H       1  UNL1        0.0293
     65 H           7.1869    2.1183   -2.8508 H       1  UNL1        0.0293
     66 H           5.5222    2.2585   -2.0803 H       1  UNL1        0.0293
     67 H           8.9812    3.5275    1.1634 H       1  UNL1        0.1047
     68 H           8.1422   -0.7254    2.8255 H       1  UNL1        0.0293
     69 H           6.3796   -0.3459    3.0117 H       1  UNL1        0.0293
     70 H           6.9745   -1.5000    1.7319 H       1  UNL1        0.0293
     71 H           3.5647    1.1960   -0.7248 H       1  UNL1        0.0465
     72 H           4.4757    1.1391    0.7946 H       1  UNL1        0.0465
     73 H           2.0019    1.0709    1.1121 H       1  UNL1        0.0298
     74 H           3.0123   -0.1096    1.9795 H       1  UNL1        0.0298
     75 H          -0.7355   -0.0702    1.7152 H       1  UNL1        0.0442
     76 H          -0.3063   -1.8620    1.6362 H       1  UNL1        0.0442
     77 H          -2.5153   -1.6476    1.0403 H       1  UNL1        0.0473
     78 H          -1.3088   -1.8470   -1.7262 H       1  UNL1        0.0245
     79 H          -0.5922   -2.8846   -0.4685 H       1  UNL1        0.0245
     80 H          -2.3810   -2.9892   -0.8909 H       1  UNL1        0.0245
@<TRIPOS>BOND
     1     1     2    1
     2     2     3    1
     3     3     4    1
     4     4     5    1
     5     5     6    1
     6     6     7   ar
     7     7     8   ar
     8     8     9    1
     9     9    10    1
    10     9    11    1
    11     9    12    1
    12     8    13   ar
    13    13    14   ar
    14    14    15   ar
    15    15    16    1
    16    16    17    1
    17    17    18    1
    18    18    19    1
    19    19    20    1
    20    20    21    1
    21    21    22    1
    22    21    23    1
    23    23    24    1
    24    24    25    1
    25    25    26   am
    26    26    27    2
    27    26    28    1
    28    28    29   ar
    29    29    30    1
    30    29    31   ar
    31    31    32   ar
    32    32    33   ar
    33    33    34   ar
    34    34    35    1
    35    25    36    1
    36    36    37    1
    37    20    38    1
    38    38    39    1
    39    39    40    1
    40    16     4    1
    41    39    17    1
    42    15     6   ar
    43    37    21    1
    44    34    28   ar
    45     1    41    1
    46     1    42    1
    47     1    43    1
    48     2    44    1
    49     2    45    1
    50     4    46    1
    51     5    47    1
    52     5    48    1
    53     7    49    1
    54    13    50    1
    55    14    51    1
    56    16    52    1
    57    18    53    1
    58    18    54    1
    59    19    55    1
    60    19    56    1
    61    22    57    1
    62    22    58    1
    63    22    59    1
    64    23    60    1
    65    23    61    1
    66    24    62    1
    67    24    63    1
    68    30    64    1
    69    30    65    1
    70    30    66    1
    71    32    67    1
    72    35    68    1
    73    35    69    1
    74    35    70    1
    75    36    71    1
    76    36    72    1
    77    37    73    1
    78    37    74    1
    79    38    75    1
    80    38    76    1
    81    39    77    1
    82    40    78    1
    83    40    79    1
    84    40    80    1
