@<TRIPOS>MOLECULE
*****
 52 54 0 0 0
SMALL
GASTEIGER

@<TRIPOS>ATOM
      1 C          -1.3026   -2.3673   -1.4849 C.3     1  UNL1       -0.0394
      2 C          -1.7349   -2.6505   -0.0923 C.ar    1  UNL1       -0.0456
      3 C          -2.7656   -3.5978    0.0454 C.ar    1  UNL1       -0.0558
      4 C          -3.2516   -3.9443    1.2788 C.ar    1  UNL1       -0.0262
      5 C          -2.7290   -3.3599    2.4163 C.ar    1  UNL1        0.1237
      6 F          -3.1957   -3.6899    3.6437 F       1  UNL1       -0.2055
      7 C          -1.7221   -2.4367    2.2787 C.ar    1  UNL1       -0.0215
      8 C          -1.2124   -2.0670    1.0328 C.ar    1  UNL1       -0.0246
      9 C          -0.1001   -1.1003    0.9285 C.3     1  UNL1        0.0379
     10 N          -0.3955    0.1859    0.3899 N.pl3   1  UNL1       -0.3209
     11 C          -1.4436    1.0451    0.7592 C.ar    1  UNL1        0.0317
     12 C          -2.1383    0.9228    1.9193 C.ar    1  UNL1       -0.0393
     13 C          -3.2623    1.7314    2.1942 C.ar    1  UNL1       -0.0412
     14 C          -3.6754    2.6697    1.2834 C.ar    1  UNL1        0.0701
     15 C          -4.8356    3.5339    1.5561 C.1     1  UNL1        0.1006
     16 N          -5.7161    4.2104    1.7595 N.1     1  UNL1       -0.1908
     17 C          -2.9955    2.8126    0.1120 C.ar    1  UNL1        0.0600
     18 CL         -3.5222    4.0148   -1.0615 Cl      1  UNL1       -0.0822
     19 C          -1.8874    1.9991   -0.1380 C.ar    1  UNL1       -0.0210
     20 C           0.5510    0.7700   -0.5860 C.3     1  UNL1        0.0410
     21 C           0.8206    2.2189   -0.2028 C.3     1  UNL1       -0.0170
     22 C           2.2781    2.1824    0.2680 C.3     1  UNL1        0.0165
     23 N           2.8238    1.2258   -0.7002 N.am    1  UNL1       -0.2975
     24 C           3.9995    1.4002   -1.4305 C.2     1  UNL1        0.2440
     25 O           4.6930    2.4442   -1.2626 O.2     1  UNL1       -0.2728
     26 C           4.4824    0.4027   -2.4014 C.3     1  UNL1        0.1283
     27 C           4.6588   -0.9330   -1.7429 C.3     1  UNL1       -0.0303
     28 O           5.7233    0.8024   -2.9463 O.3     1  UNL1       -0.3828
     29 C           1.8596    0.1077   -0.6818 C.3     1  UNL1        0.0333
     30 H          -0.4218   -1.7066   -1.5005 H       1  UNL1        0.0278
     31 H          -1.0145   -3.2968   -2.0226 H       1  UNL1        0.0278
     32 H          -2.1710   -1.9127   -2.0178 H       1  UNL1        0.0278
     33 H          -3.1928   -4.0715   -0.8309 H       1  UNL1        0.0621
     34 H          -4.0463   -4.6711    1.3887 H       1  UNL1        0.0646
     35 H          -1.3216   -2.0002    3.1934 H       1  UNL1        0.0649
     36 H           0.6264   -1.6292    0.2143 H       1  UNL1        0.0513
     37 H           0.3646   -0.9947    1.9364 H       1  UNL1        0.0513
     38 H          -1.8745    0.2425    2.7136 H       1  UNL1        0.0636
     39 H          -3.7977    1.5978    3.1387 H       1  UNL1        0.0631
     40 H          -1.4334    2.1701   -1.1089 H       1  UNL1        0.0651
     41 H           0.0561    0.7615   -1.5913 H       1  UNL1        0.0516
     42 H           0.7294    2.8758   -1.0747 H       1  UNL1        0.0299
     43 H           0.2398    2.5793    0.6393 H       1  UNL1        0.0299
     44 H           2.3146    1.7066    1.2461 H       1  UNL1        0.0465
     45 H           2.7651    3.1629    0.2103 H       1  UNL1        0.0465
     46 H           3.7384    0.2899   -3.2384 H       1  UNL1        0.0687
     47 H           3.9366   -1.6872   -2.1291 H       1  UNL1        0.0259
     48 H           4.4675   -0.8197   -0.6577 H       1  UNL1        0.0259
     49 H           5.6914   -1.3355   -1.8627 H       1  UNL1        0.0259
     50 H           6.2576    1.2494   -2.2453 H       1  UNL1        0.2104
     51 H           2.1388   -0.5949    0.1231 H       1  UNL1        0.0483
     52 H           1.9433   -0.4489   -1.6589 H       1  UNL1        0.0483
@<TRIPOS>BOND
     1     1     2    1
     2     2     3   ar
     3     3     4   ar
     4     4     5   ar
     5     5     6    1
     6     5     7   ar
     7     7     8   ar
     8     8     9    1
     9     9    10    1
    10    10    11    1
    11    11    12   ar
    12    12    13   ar
    13    13    14   ar
    14    14    15    1
    15    15    16    3
    16    14    17   ar
    17    17    18    1
    18    17    19   ar
    19    10    20    1
    20    20    21    1
    21    21    22    1
    22    22    23    1
    23    23    24   am
    24    24    25    2
    25    24    26    1
    26    26    27    1
    27    26    28    1
    28    23    29    1
    29     8     2   ar
    30    19    11   ar
    31    29    20    1
    32     1    30    1
    33     1    31    1
    34     1    32    1
    35     3    33    1
    36     4    34    1
    37     7    35    1
    38     9    36    1
    39     9    37    1
    40    12    38    1
    41    13    39    1
    42    19    40    1
    43    20    41    1
    44    21    42    1
    45    21    43    1
    46    22    44    1
    47    22    45    1
    48    26    46    1
    49    27    47    1
    50    27    48    1
    51    27    49    1
    52    28    50    1
    53    29    51    1
    54    29    52    1
