
     RDKit          3D

 52 54  0  0  0  0  0  0  0  0999 V2000
   -1.3026   -2.3673   -1.4849 C   0  0  0  0  0  0  0  0  0  0  0  0
   -1.7349   -2.6505   -0.0923 C   0  0  0  0  0  0  0  0  0  0  0  0
   -2.7656   -3.5978    0.0454 C   0  0  0  0  0  0  0  0  0  0  0  0
   -3.2516   -3.9443    1.2788 C   0  0  0  0  0  0  0  0  0  0  0  0
   -2.7290   -3.3599    2.4163 C   0  0  0  0  0  0  0  0  0  0  0  0
   -3.1957   -3.6899    3.6437 F   0  0  0  0  0  0  0  0  0  0  0  0
   -1.7221   -2.4367    2.2787 C   0  0  0  0  0  0  0  0  0  0  0  0
   -1.2124   -2.0670    1.0328 C   0  0  0  0  0  0  0  0  0  0  0  0
   -0.1001   -1.1003    0.9285 C   0  0  0  0  0  0  0  0  0  0  0  0
   -0.3955    0.1859    0.3899 N   0  0  0  0  0  0  0  0  0  0  0  0
   -1.4436    1.0451    0.7592 C   0  0  0  0  0  0  0  0  0  0  0  0
   -2.1383    0.9228    1.9193 C   0  0  0  0  0  0  0  0  0  0  0  0
   -3.2623    1.7314    2.1942 C   0  0  0  0  0  0  0  0  0  0  0  0
   -3.6754    2.6697    1.2834 C   0  0  0  0  0  0  0  0  0  0  0  0
   -4.8356    3.5339    1.5561 C   0  0  0  0  0  0  0  0  0  0  0  0
   -5.7161    4.2104    1.7595 N   0  0  0  0  0  0  0  0  0  0  0  0
   -2.9955    2.8126    0.1120 C   0  0  0  0  0  0  0  0  0  0  0  0
   -3.5222    4.0148   -1.0615 Cl  0  0  0  0  0  0  0  0  0  0  0  0
   -1.8874    1.9991   -0.1380 C   0  0  0  0  0  0  0  0  0  0  0  0
    0.5510    0.7700   -0.5860 C   0  0  1  0  0  0  0  0  0  0  0  0
    0.8206    2.2189   -0.2028 C   0  0  0  0  0  0  0  0  0  0  0  0
    2.2781    2.1824    0.2680 C   0  0  0  0  0  0  0  0  0  0  0  0
    2.8238    1.2258   -0.7002 N   0  0  0  0  0  0  0  0  0  0  0  0
    3.9995    1.4002   -1.4305 C   0  0  0  0  0  0  0  0  0  0  0  0
    4.6930    2.4442   -1.2626 O   0  0  0  0  0  0  0  0  0  0  0  0
    4.4824    0.4027   -2.4014 C   0  0  2  0  0  0  0  0  0  0  0  0
    4.6588   -0.9330   -1.7429 C   0  0  0  0  0  0  0  0  0  0  0  0
    5.7233    0.8024   -2.9463 O   0  0  0  0  0  0  0  0  0  0  0  0
    1.8596    0.1077   -0.6818 C   0  0  0  0  0  0  0  0  0  0  0  0
   -0.4218   -1.7066   -1.5005 H   0  0  0  0  0  0  0  0  0  0  0  0
   -1.0145   -3.2968   -2.0226 H   0  0  0  0  0  0  0  0  0  0  0  0
   -2.1710   -1.9127   -2.0178 H   0  0  0  0  0  0  0  0  0  0  0  0
   -3.1928   -4.0715   -0.8309 H   0  0  0  0  0  0  0  0  0  0  0  0
   -4.0463   -4.6711    1.3887 H   0  0  0  0  0  0  0  0  0  0  0  0
   -1.3216   -2.0002    3.1934 H   0  0  0  0  0  0  0  0  0  0  0  0
    0.6264   -1.6292    0.2143 H   0  0  0  0  0  0  0  0  0  0  0  0
    0.3646   -0.9947    1.9364 H   0  0  0  0  0  0  0  0  0  0  0  0
   -1.8745    0.2425    2.7136 H   0  0  0  0  0  0  0  0  0  0  0  0
   -3.7977    1.5978    3.1387 H   0  0  0  0  0  0  0  0  0  0  0  0
   -1.4334    2.1701   -1.1089 H   0  0  0  0  0  0  0  0  0  0  0  0
    0.0561    0.7615   -1.5913 H   0  0  0  0  0  0  0  0  0  0  0  0
    0.7294    2.8758   -1.0747 H   0  0  0  0  0  0  0  0  0  0  0  0
    0.2398    2.5793    0.6393 H   0  0  0  0  0  0  0  0  0  0  0  0
    2.3146    1.7066    1.2461 H   0  0  0  0  0  0  0  0  0  0  0  0
    2.7651    3.1629    0.2103 H   0  0  0  0  0  0  0  0  0  0  0  0
    3.7384    0.2899   -3.2384 H   0  0  0  0  0  0  0  0  0  0  0  0
    3.9366   -1.6872   -2.1291 H   0  0  0  0  0  0  0  0  0  0  0  0
    4.4675   -0.8197   -0.6577 H   0  0  0  0  0  0  0  0  0  0  0  0
    5.6914   -1.3355   -1.8627 H   0  0  0  0  0  0  0  0  0  0  0  0
    6.2576    1.2494   -2.2453 H   0  0  0  0  0  0  0  0  0  0  0  0
    2.1388   -0.5949    0.1231 H   0  0  0  0  0  0  0  0  0  0  0  0
    1.9433   -0.4489   -1.6589 H   0  0  0  0  0  0  0  0  0  0  0  0
  1  2  1  0
  2  3  2  0
  3  4  1  0
  4  5  2  0
  5  6  1  0
  5  7  1  0
  7  8  2  0
  8  9  1  0
  9 10  1  0
 10 11  1  0
 11 12  2  0
 12 13  1  0
 13 14  2  0
 14 15  1  0
 15 16  3  0
 14 17  1  0
 17 18  1  0
 17 19  2  0
 10 20  1  0
 20 21  1  0
 21 22  1  0
 22 23  1  0
 23 24  1  0
 24 25  2  0
 24 26  1  0
 26 27  1  0
 26 28  1  0
 23 29  1  0
  8  2  1  0
 19 11  1  0
 29 20  1  0
  1 30  1  0
  1 31  1  0
  1 32  1  0
  3 33  1  0
  4 34  1  0
  7 35  1  0
  9 36  1  0
  9 37  1  0
 12 38  1  0
 13 39  1  0
 19 40  1  0
 20 41  1  6
 21 42  1  0
 21 43  1  0
 22 44  1  0
 22 45  1  0
 26 46  1  6
 27 47  1  0
 27 48  1  0
 27 49  1  0
 28 50  1  0
 29 51  1  0
 29 52  1  0
M  END
$$$$
