
     RDKit          3D

 27 29  0  0  0  0  0  0  0  0999 V2000
   -3.2032    1.6965   -1.2562 O   0  0  0  0  0  0  0  0  0  0  0  0
   -1.9854    1.7650   -1.1292 C   0  0  0  0  0  0  0  0  0  0  0  0
   -1.4237    2.9653   -1.6315 O   0  0  0  0  0  0  0  0  0  0  0  0
   -1.1428    0.7571   -0.5351 C   0  0  0  0  0  0  0  0  0  0  0  0
    0.2370    0.9941   -0.4678 C   0  0  0  0  0  0  0  0  0  0  0  0
    1.1031    0.1023    0.0737 C   0  0  0  0  0  0  0  0  0  0  0  0
    2.5488    0.3398    0.1495 C   0  0  0  0  0  0  0  0  0  0  0  0
    3.2364    1.4494   -0.2928 C   0  0  0  0  0  0  0  0  0  0  0  0
    4.5822    1.2070    0.0001 C   0  0  0  0  0  0  0  0  0  0  0  0
    4.6195   -0.0359    0.6014 C   0  0  0  0  0  0  0  0  0  0  0  0
    3.3946   -0.5111    0.6687 O   0  0  0  0  0  0  0  0  0  0  0  0
    0.5892   -1.0413    0.5551 N   0  0  0  0  0  0  0  0  0  0  0  0
   -0.7178   -1.3317    0.5229 C   0  0  0  0  0  0  0  0  0  0  0  0
   -1.2002   -2.5180    1.0289 C   0  0  0  0  0  0  0  0  0  0  0  0
   -2.5526   -2.8145    0.9937 C   0  0  0  0  0  0  0  0  0  0  0  0
   -3.4363   -1.9371    0.4568 C   0  0  0  0  0  0  0  0  0  0  0  0
   -5.3206   -2.3324    0.3993 Br  0  0  0  0  0  0  0  0  0  0  0  0
   -2.9619   -0.7259   -0.0621 C   0  0  0  0  0  0  0  0  0  0  0  0
   -1.6265   -0.4195   -0.0340 C   0  0  0  0  0  0  0  0  0  0  0  0
   -1.9857    3.8212   -1.6221 H   0  0  0  0  0  0  0  0  0  0  0  0
    0.6061    1.9286   -0.8678 H   0  0  0  0  0  0  0  0  0  0  0  0
    2.8298    2.3343   -0.7707 H   0  0  0  0  0  0  0  0  0  0  0  0
    5.3861    1.8894   -0.2218 H   0  0  0  0  0  0  0  0  0  0  0  0
    5.5111   -0.5242    0.9526 H   0  0  0  0  0  0  0  0  0  0  0  0
   -0.5008   -3.2166    1.4559 H   0  0  0  0  0  0  0  0  0  0  0  0
   -2.8900   -3.7657    1.4059 H   0  0  0  0  0  0  0  0  0  0  0  0
   -3.6964   -0.0762   -0.4703 H   0  0  0  0  0  0  0  0  0  0  0  0
  1  2  2  0
  2  3  1  0
  2  4  1  0
  4  5  2  0
  5  6  1  0
  6  7  1  0
  7  8  2  0
  8  9  1  0
  9 10  2  0
 10 11  1  0
  6 12  2  0
 12 13  1  0
 13 14  2  0
 14 15  1  0
 15 16  2  0
 16 17  1  0
 16 18  1  0
 18 19  2  0
 19  4  1  0
 11  7  1  0
 19 13  1  0
  3 20  1  0
  5 21  1  0
  8 22  1  0
  9 23  1  0
 10 24  1  0
 14 25  1  0
 15 26  1  0
 18 27  1  0
M  END
$$$$
