@<TRIPOS>MOLECULE
*****
 27 29 0 0 0
SMALL
GASTEIGER

@<TRIPOS>ATOM
      1 O          -3.2032    1.6965   -1.2562 O.2     1  UNL1       -0.2451
      2 C          -1.9854    1.7650   -1.1292 C.2     1  UNL1        0.3375
      3 O          -1.4237    2.9653   -1.6315 O.3     1  UNL1       -0.4771
      4 C          -1.1428    0.7571   -0.5351 C.ar    1  UNL1        0.0701
      5 C           0.2370    0.9941   -0.4678 C.ar    1  UNL1       -0.0181
      6 C           1.1031    0.1023    0.0737 C.ar    1  UNL1        0.1074
      7 C           2.5488    0.3398    0.1495 C.ar    1  UNL1        0.1529
      8 C           3.2364    1.4494   -0.2928 C.ar    1  UNL1       -0.0144
      9 C           4.5822    1.2070    0.0001 C.ar    1  UNL1       -0.0233
     10 C           4.6195   -0.0359    0.6014 C.ar    1  UNL1        0.0926
     11 O           3.3946   -0.5111    0.6687 O.2     1  UNL1       -0.4614
     12 N           0.5892   -1.0413    0.5551 N.ar    1  UNL1       -0.2436
     13 C          -0.7178   -1.3317    0.5229 C.ar    1  UNL1        0.0726
     14 C          -1.2002   -2.5180    1.0289 C.ar    1  UNL1       -0.0347
     15 C          -2.5526   -2.8145    0.9937 C.ar    1  UNL1       -0.0457
     16 C          -3.4363   -1.9371    0.4568 C.ar    1  UNL1        0.0186
     17 BR         -5.3206   -2.3324    0.3993 Br      1  UNL1       -0.0503
     18 C          -2.9619   -0.7259   -0.0621 C.ar    1  UNL1       -0.0378
     19 C          -1.6265   -0.4195   -0.0340 C.ar    1  UNL1        0.0154
     20 H          -1.9857    3.8212   -1.6221 H       1  UNL1        0.2954
     21 H           0.6061    1.9286   -0.8678 H       1  UNL1        0.0648
     22 H           2.8298    2.3343   -0.7707 H       1  UNL1        0.0656
     23 H           5.3861    1.8894   -0.2218 H       1  UNL1        0.0649
     24 H           5.5111   -0.5242    0.9526 H       1  UNL1        0.1029
     25 H          -0.5008   -3.2166    1.4559 H       1  UNL1        0.0639
     26 H          -2.8900   -3.7657    1.4059 H       1  UNL1        0.0629
     27 H          -3.6964   -0.0762   -0.4703 H       1  UNL1        0.0635
@<TRIPOS>BOND
     1     1     2    2
     2     2     3    1
     3     2     4    1
     4     4     5   ar
     5     5     6   ar
     6     6     7    1
     7     7     8   ar
     8     8     9   ar
     9     9    10   ar
    10    10    11   ar
    11     6    12   ar
    12    12    13   ar
    13    13    14   ar
    14    14    15   ar
    15    15    16   ar
    16    16    17    1
    17    16    18   ar
    18    18    19   ar
    19    19     4   ar
    20    11     7   ar
    21    19    13   ar
    22     3    20    1
    23     5    21    1
    24     8    22    1
    25     9    23    1
    26    10    24    1
    27    14    25    1
    28    15    26    1
    29    18    27    1
