@<TRIPOS>MOLECULE
*****
 62 65 0 0 0
SMALL
GASTEIGER

@<TRIPOS>ATOM
      1 O           4.2922    0.0990    2.1702 O.2     1  UNL1       -0.2702
      2 C           4.9406   -0.2204    1.1481 C.2     1  UNL1        0.2444
      3 N           4.2847   -1.0560    0.2098 N.am    1  UNL1       -0.3060
      4 C           2.9325   -1.5398    0.3835 C.3     1  UNL1        0.0496
      5 C           2.9446   -3.0485    0.4654 C.3     1  UNL1       -0.0320
      6 C           2.7402   -3.5469   -0.9249 C.3     1  UNL1       -0.0489
      7 C           2.1442   -2.4213   -1.7171 C.3     1  UNL1       -0.0248
      8 C           2.0278   -1.2382   -0.7613 C.3     1  UNL1        0.0774
      9 O           0.7291   -1.0064   -0.3844 O.3     1  UNL1       -0.3702
     10 C           0.2490    0.2295   -0.8176 C.3     1  UNL1        0.0733
     11 C          -1.1674    0.3822   -0.3604 C.ar    1  UNL1       -0.0150
     12 C          -1.4824    0.9454    0.8545 C.ar    1  UNL1       -0.0139
     13 C          -2.7966    1.0695    1.2393 C.ar    1  UNL1        0.1315
     14 O          -3.1086    1.6370    2.4632 O.3     1  UNL1       -0.5059
     15 C          -3.8690    0.6470    0.4508 C.ar    1  UNL1        0.1050
     16 C          -5.2176    0.7107    0.9736 C.2     1  UNL1        0.2044
     17 O          -5.3504    0.7286    2.2756 O.2     1  UNL1       -0.2863
     18 C          -6.4529    0.7468    0.2584 C.ar    1  UNL1        0.0778
     19 C          -7.4946   -0.0277    0.8044 C.ar    1  UNL1        0.1285
     20 O          -7.3125   -0.7799    1.9357 O.3     1  UNL1       -0.5060
     21 C          -8.7173   -0.0253    0.1855 C.ar    1  UNL1       -0.0194
     22 C          -8.9357    0.7083   -0.9381 C.ar    1  UNL1       -0.0575
     23 C          -7.9226    1.4635   -1.4655 C.ar    1  UNL1       -0.0468
     24 C          -6.6445    1.4981   -0.8633 C.ar    1  UNL1        0.0731
     25 C          -5.7209    2.4925   -1.3900 C.2     1  UNL1        0.3376
     26 O          -5.9720    3.0476   -2.5084 O.2     1  UNL1       -0.2451
     27 O          -4.5717    2.9140   -0.7788 O.3     1  UNL1       -0.4771
     28 C          -3.5566    0.0867   -0.7542 C.ar    1  UNL1        0.1315
     29 O          -4.5572   -0.3699   -1.6045 O.3     1  UNL1       -0.5059
     30 C          -2.2146   -0.0385   -1.1456 C.ar    1  UNL1       -0.0139
     31 C           6.3026    0.2834    1.0008 C.ar    1  UNL1        0.0369
     32 C           7.1079    0.0069   -0.0838 C.ar    1  UNL1       -0.0462
     33 C           8.4031    0.5194   -0.1648 C.ar    1  UNL1       -0.0195
     34 C           8.9366    1.3178    0.8225 C.ar    1  UNL1        0.1169
     35 O          10.2281    1.8333    0.7496 O.3     1  UNL1       -0.5068
     36 C           8.1293    1.5949    1.9095 C.ar    1  UNL1       -0.0195
     37 C           6.8513    1.0849    1.9819 C.ar    1  UNL1       -0.0462
     38 H           4.8200   -1.3247   -0.6419 H       1  UNL1        0.1494
     39 H           2.4692   -1.1774    1.3194 H       1  UNL1        0.0524
     40 H           2.1670   -3.4056    1.1760 H       1  UNL1        0.0284
     41 H           3.9274   -3.3378    0.8941 H       1  UNL1        0.0284
     42 H           3.7196   -3.8972   -1.3207 H       1  UNL1        0.0267
     43 H           2.0130   -4.4043   -0.8593 H       1  UNL1        0.0267
     44 H           2.8360   -2.2015   -2.5593 H       1  UNL1        0.0291
     45 H           1.1487   -2.7043   -2.1204 H       1  UNL1        0.0291
     46 H           2.3852   -0.3575   -1.3337 H       1  UNL1        0.0614
     47 H           0.8824    1.0716   -0.5419 H       1  UNL1        0.0610
     48 H           0.2274    0.1763   -1.9362 H       1  UNL1        0.0610
     49 H          -0.6601    1.2766    1.4747 H       1  UNL1        0.0658
     50 H          -3.0762    1.0146    3.2705 H       1  UNL1        0.2922
     51 H          -6.5095   -1.3282    2.1560 H       1  UNL1        0.2922
     52 H          -9.5422   -0.6139    0.5839 H       1  UNL1        0.0654
     53 H          -9.8998    0.7165   -1.4398 H       1  UNL1        0.0619
     54 H          -8.0780    2.0552   -2.3626 H       1  UNL1        0.0626
     55 H          -4.1954    3.8420   -0.8019 H       1  UNL1        0.2954
     56 H          -4.3607   -0.2551   -2.6112 H       1  UNL1        0.2922
     57 H          -1.9897   -0.4864   -2.1094 H       1  UNL1        0.0658
     58 H           6.6973   -0.6184   -0.8628 H       1  UNL1        0.0626
     59 H           9.0321    0.3047   -1.0101 H       1  UNL1        0.0654
     60 H          11.0284    1.3832    1.2024 H       1  UNL1        0.2921
     61 H           8.5541    2.2251    2.6862 H       1  UNL1        0.0654
     62 H           6.2250    1.3182    2.8573 H       1  UNL1        0.0626
@<TRIPOS>BOND
     1     1     2    2
     2     2     3   am
     3     3     4    1
     4     4     5    1
     5     5     6    1
     6     6     7    1
     7     7     8    1
     8     8     9    1
     9     9    10    1
    10    10    11    1
    11    11    12   ar
    12    12    13   ar
    13    13    14    1
    14    13    15   ar
    15    15    16    1
    16    16    17    2
    17    16    18    1
    18    18    19   ar
    19    19    20    1
    20    19    21   ar
    21    21    22   ar
    22    22    23   ar
    23    23    24   ar
    24    24    25    1
    25    25    26    2
    26    25    27    1
    27    15    28   ar
    28    28    29    1
    29    28    30   ar
    30     2    31    1
    31    31    32   ar
    32    32    33   ar
    33    33    34   ar
    34    34    35    1
    35    34    36   ar
    36    36    37   ar
    37     8     4    1
    38    30    11   ar
    39    37    31   ar
    40    24    18   ar
    41     3    38    1
    42     4    39    1
    43     5    40    1
    44     5    41    1
    45     6    42    1
    46     6    43    1
    47     7    44    1
    48     7    45    1
    49     8    46    1
    50    10    47    1
    51    10    48    1
    52    12    49    1
    53    14    50    1
    54    20    51    1
    55    21    52    1
    56    22    53    1
    57    23    54    1
    58    27    55    1
    59    29    56    1
    60    30    57    1
    61    32    58    1
    62    33    59    1
    63    35    60    1
    64    36    61    1
    65    37    62    1
