
     RDKit          3D

 62 65  0  0  0  0  0  0  0  0999 V2000
    4.2922    0.0990    2.1702 O   0  0  0  0  0  0  0  0  0  0  0  0
    4.9406   -0.2204    1.1481 C   0  0  0  0  0  0  0  0  0  0  0  0
    4.2847   -1.0560    0.2098 N   0  0  0  0  0  0  0  0  0  0  0  0
    2.9325   -1.5398    0.3835 C   0  0  2  0  0  0  0  0  0  0  0  0
    2.9446   -3.0485    0.4654 C   0  0  0  0  0  0  0  0  0  0  0  0
    2.7402   -3.5469   -0.9249 C   0  0  0  0  0  0  0  0  0  0  0  0
    2.1442   -2.4213   -1.7171 C   0  0  0  0  0  0  0  0  0  0  0  0
    2.0278   -1.2382   -0.7613 C   0  0  1  0  0  0  0  0  0  0  0  0
    0.7291   -1.0064   -0.3844 O   0  0  0  0  0  0  0  0  0  0  0  0
    0.2490    0.2295   -0.8176 C   0  0  0  0  0  0  0  0  0  0  0  0
   -1.1674    0.3822   -0.3604 C   0  0  0  0  0  0  0  0  0  0  0  0
   -1.4824    0.9454    0.8545 C   0  0  0  0  0  0  0  0  0  0  0  0
   -2.7966    1.0695    1.2393 C   0  0  0  0  0  0  0  0  0  0  0  0
   -3.1086    1.6370    2.4632 O   0  0  0  0  0  0  0  0  0  0  0  0
   -3.8690    0.6470    0.4508 C   0  0  0  0  0  0  0  0  0  0  0  0
   -5.2176    0.7107    0.9736 C   0  0  0  0  0  0  0  0  0  0  0  0
   -5.3504    0.7286    2.2756 O   0  0  0  0  0  0  0  0  0  0  0  0
   -6.4529    0.7468    0.2584 C   0  0  0  0  0  0  0  0  0  0  0  0
   -7.4946   -0.0277    0.8044 C   0  0  0  0  0  0  0  0  0  0  0  0
   -7.3125   -0.7799    1.9357 O   0  0  0  0  0  0  0  0  0  0  0  0
   -8.7173   -0.0253    0.1855 C   0  0  0  0  0  0  0  0  0  0  0  0
   -8.9357    0.7083   -0.9381 C   0  0  0  0  0  0  0  0  0  0  0  0
   -7.9226    1.4635   -1.4655 C   0  0  0  0  0  0  0  0  0  0  0  0
   -6.6445    1.4981   -0.8633 C   0  0  0  0  0  0  0  0  0  0  0  0
   -5.7209    2.4925   -1.3900 C   0  0  0  0  0  0  0  0  0  0  0  0
   -5.9720    3.0476   -2.5084 O   0  0  0  0  0  0  0  0  0  0  0  0
   -4.5717    2.9140   -0.7788 O   0  0  0  0  0  0  0  0  0  0  0  0
   -3.5566    0.0867   -0.7542 C   0  0  0  0  0  0  0  0  0  0  0  0
   -4.5572   -0.3699   -1.6045 O   0  0  0  0  0  0  0  0  0  0  0  0
   -2.2146   -0.0385   -1.1456 C   0  0  0  0  0  0  0  0  0  0  0  0
    6.3026    0.2834    1.0008 C   0  0  0  0  0  0  0  0  0  0  0  0
    7.1079    0.0069   -0.0838 C   0  0  0  0  0  0  0  0  0  0  0  0
    8.4031    0.5194   -0.1648 C   0  0  0  0  0  0  0  0  0  0  0  0
    8.9366    1.3178    0.8225 C   0  0  0  0  0  0  0  0  0  0  0  0
   10.2281    1.8333    0.7496 O   0  0  0  0  0  0  0  0  0  0  0  0
    8.1293    1.5949    1.9095 C   0  0  0  0  0  0  0  0  0  0  0  0
    6.8513    1.0849    1.9819 C   0  0  0  0  0  0  0  0  0  0  0  0
    4.8200   -1.3247   -0.6419 H   0  0  0  0  0  0  0  0  0  0  0  0
    2.4692   -1.1774    1.3194 H   0  0  0  0  0  0  0  0  0  0  0  0
    2.1670   -3.4056    1.1760 H   0  0  0  0  0  0  0  0  0  0  0  0
    3.9274   -3.3378    0.8941 H   0  0  0  0  0  0  0  0  0  0  0  0
    3.7196   -3.8972   -1.3207 H   0  0  0  0  0  0  0  0  0  0  0  0
    2.0130   -4.4043   -0.8593 H   0  0  0  0  0  0  0  0  0  0  0  0
    2.8360   -2.2015   -2.5593 H   0  0  0  0  0  0  0  0  0  0  0  0
    1.1487   -2.7043   -2.1204 H   0  0  0  0  0  0  0  0  0  0  0  0
    2.3852   -0.3575   -1.3337 H   0  0  0  0  0  0  0  0  0  0  0  0
    0.8824    1.0716   -0.5419 H   0  0  0  0  0  0  0  0  0  0  0  0
    0.2274    0.1763   -1.9362 H   0  0  0  0  0  0  0  0  0  0  0  0
   -0.6601    1.2766    1.4747 H   0  0  0  0  0  0  0  0  0  0  0  0
   -3.0762    1.0146    3.2705 H   0  0  0  0  0  0  0  0  0  0  0  0
   -6.5095   -1.3282    2.1560 H   0  0  0  0  0  0  0  0  0  0  0  0
   -9.5422   -0.6139    0.5839 H   0  0  0  0  0  0  0  0  0  0  0  0
   -9.8998    0.7165   -1.4398 H   0  0  0  0  0  0  0  0  0  0  0  0
   -8.0780    2.0552   -2.3626 H   0  0  0  0  0  0  0  0  0  0  0  0
   -4.1954    3.8420   -0.8019 H   0  0  0  0  0  0  0  0  0  0  0  0
   -4.3607   -0.2551   -2.6112 H   0  0  0  0  0  0  0  0  0  0  0  0
   -1.9897   -0.4864   -2.1094 H   0  0  0  0  0  0  0  0  0  0  0  0
    6.6973   -0.6184   -0.8628 H   0  0  0  0  0  0  0  0  0  0  0  0
    9.0321    0.3047   -1.0101 H   0  0  0  0  0  0  0  0  0  0  0  0
   11.0284    1.3832    1.2024 H   0  0  0  0  0  0  0  0  0  0  0  0
    8.5541    2.2251    2.6862 H   0  0  0  0  0  0  0  0  0  0  0  0
    6.2250    1.3182    2.8573 H   0  0  0  0  0  0  0  0  0  0  0  0
  1  2  2  0
  2  3  1  0
  3  4  1  0
  4  5  1  0
  5  6  1  0
  6  7  1  0
  7  8  1  0
  8  9  1  0
  9 10  1  0
 10 11  1  0
 11 12  2  0
 12 13  1  0
 13 14  1  0
 13 15  2  0
 15 16  1  0
 16 17  2  0
 16 18  1  0
 18 19  2  0
 19 20  1  0
 19 21  1  0
 21 22  2  0
 22 23  1  0
 23 24  2  0
 24 25  1  0
 25 26  2  0
 25 27  1  0
 15 28  1  0
 28 29  1  0
 28 30  2  0
  2 31  1  0
 31 32  2  0
 32 33  1  0
 33 34  2  0
 34 35  1  0
 34 36  1  0
 36 37  2  0
  8  4  1  0
 30 11  1  0
 37 31  1  0
 24 18  1  0
  3 38  1  0
  4 39  1  1
  5 40  1  0
  5 41  1  0
  6 42  1  0
  6 43  1  0
  7 44  1  0
  7 45  1  0
  8 46  1  6
 10 47  1  0
 10 48  1  0
 12 49  1  0
 14 50  1  0
 20 51  1  0
 21 52  1  0
 22 53  1  0
 23 54  1  0
 27 55  1  0
 29 56  1  0
 30 57  1  0
 32 58  1  0
 33 59  1  0
 35 60  1  0
 36 61  1  0
 37 62  1  0
M  END
$$$$
