
     RDKit          3D

 47 50  0  0  0  0  0  0  0  0999 V2000
   -5.3733    1.1664    0.9406 C   0  0  0  0  0  0  0  0  0  0  0  0
   -5.9364   -0.1325    0.9002 N   0  0  0  0  0  0  0  0  0  0  0  0
   -6.9071   -0.3996   -0.1064 C   0  0  0  0  0  0  0  0  0  0  0  0
   -4.9123   -1.4331    1.2742 S   0  0  0  0  0  0  0  0  0  0  0  0
   -5.7233   -2.7121    1.2049 O   0  0  0  0  0  0  0  0  0  0  0  0
   -4.4101   -1.3624    2.6913 O   0  0  0  0  0  0  0  0  0  0  0  0
   -3.5995   -1.4920    0.1205 C   0  0  0  0  0  0  0  0  0  0  0  0
   -3.8060   -2.1554   -1.0937 C   0  0  0  0  0  0  0  0  0  0  0  0
   -2.7896   -2.2303   -2.0211 C   0  0  0  0  0  0  0  0  0  0  0  0
   -1.5576   -1.6536   -1.7653 C   0  0  0  0  0  0  0  0  0  0  0  0
   -0.3890   -1.6201   -2.5767 N   0  0  0  0  0  0  0  0  0  0  0  0
    0.5778   -0.8895   -1.7960 C   0  0  0  0  0  0  0  0  0  0  0  0
    1.7281   -0.6960   -2.2583 O   0  0  0  0  0  0  0  0  0  0  0  0
   -0.0142   -0.4918   -0.5295 C   0  0  0  0  0  0  0  0  0  0  0  0
    0.6606    0.1959    0.3708 C   0  0  0  0  0  0  0  0  0  0  0  0
    2.0301    0.6737    0.2981 C   0  0  0  0  0  0  0  0  0  0  0  0
    2.9351    0.4319    1.3396 C   0  0  0  0  0  0  0  0  0  0  0  0
    4.1747    0.9998    1.0792 C   0  0  0  0  0  0  0  0  0  0  0  0
    4.0051    1.5934   -0.1429 C   0  0  0  0  0  0  0  0  0  0  0  0
    5.1394    2.3194   -0.7662 C   0  0  0  0  0  0  0  0  0  0  0  0
    6.3889    1.5443   -0.3559 C   0  0  0  0  0  0  0  0  0  0  0  0
    6.5205    1.6725    1.1405 C   0  0  0  0  0  0  0  0  0  0  0  0
    5.4191    0.9883    1.8918 C   0  0  0  0  0  0  0  0  0  0  0  0
    2.7509    1.3921   -0.5789 N   0  0  0  0  0  0  0  0  0  0  0  0
   -1.3735   -1.0053   -0.5645 C   0  0  0  0  0  0  0  0  0  0  0  0
   -2.3790   -0.9209    0.3734 C   0  0  0  0  0  0  0  0  0  0  0  0
   -4.4773    1.1791    1.5648 H   0  0  0  0  0  0  0  0  0  0  0  0
   -5.0397    1.4372   -0.1040 H   0  0  0  0  0  0  0  0  0  0  0  0
   -6.0956    1.9597    1.2330 H   0  0  0  0  0  0  0  0  0  0  0  0
   -7.9672   -0.3168    0.2146 H   0  0  0  0  0  0  0  0  0  0  0  0
   -6.7325    0.2747   -0.9685 H   0  0  0  0  0  0  0  0  0  0  0  0
   -6.6937   -1.4347   -0.5100 H   0  0  0  0  0  0  0  0  0  0  0  0
   -4.7321   -2.6348   -1.3795 H   0  0  0  0  0  0  0  0  0  0  0  0
   -2.9499   -2.7528   -2.9786 H   0  0  0  0  0  0  0  0  0  0  0  0
   -0.2644   -2.0368   -3.5311 H   0  0  0  0  0  0  0  0  0  0  0  0
    0.1043    0.4324    1.2940 H   0  0  0  0  0  0  0  0  0  0  0  0
    2.7239   -0.1245    2.2438 H   0  0  0  0  0  0  0  0  0  0  0  0
    5.0769    2.2943   -1.8815 H   0  0  0  0  0  0  0  0  0  0  0  0
    5.2066    3.3766   -0.4448 H   0  0  0  0  0  0  0  0  0  0  0  0
    6.2818    0.5015   -0.6887 H   0  0  0  0  0  0  0  0  0  0  0  0
    7.2987    1.9782   -0.8170 H   0  0  0  0  0  0  0  0  0  0  0  0
    7.5351    1.3204    1.4883 H   0  0  0  0  0  0  0  0  0  0  0  0
    6.4746    2.7589    1.3864 H   0  0  0  0  0  0  0  0  0  0  0  0
    5.1706    1.5277    2.8535 H   0  0  0  0  0  0  0  0  0  0  0  0
    5.7555   -0.0435    2.1368 H   0  0  0  0  0  0  0  0  0  0  0  0
    2.3614    1.7514   -1.4741 H   0  0  0  0  0  0  0  0  0  0  0  0
   -2.1966   -0.4089    1.2932 H   0  0  0  0  0  0  0  0  0  0  0  0
  1  2  1  0
  2  3  1  0
  2  4  1  0
  4  5  2  0
  4  6  2  0
  4  7  1  0
  7  8  2  0
  8  9  1  0
  9 10  2  0
 10 11  1  0
 11 12  1  0
 12 13  2  0
 12 14  1  0
 14 15  2  0
 15 16  1  0
 16 17  2  0
 17 18  1  0
 18 19  2  0
 19 20  1  0
 20 21  1  0
 21 22  1  0
 22 23  1  0
 19 24  1  0
 14 25  1  0
 25 26  2  0
 26  7  1  0
 25 10  1  0
 24 16  1  0
 23 18  1  0
  1 27  1  0
  1 28  1  0
  1 29  1  0
  3 30  1  0
  3 31  1  0
  3 32  1  0
  8 33  1  0
  9 34  1  0
 11 35  1  0
 15 36  1  0
 17 37  1  0
 20 38  1  0
 20 39  1  0
 21 40  1  0
 21 41  1  0
 22 42  1  0
 22 43  1  0
 23 44  1  0
 23 45  1  0
 24 46  1  0
 26 47  1  0
M  END
$$$$
