@<TRIPOS>MOLECULE
*****
 47 50 0 0 0
SMALL
GASTEIGER

@<TRIPOS>ATOM
      1 C          -5.3733    1.1664    0.9406 C.3     1  UNL1        0.0086
      2 N          -5.9364   -0.1325    0.9002 N.3     1  UNL1       -0.1827
      3 C          -6.9071   -0.3996   -0.1064 C.3     1  UNL1        0.0086
      4 S          -4.9123   -1.4331    1.2742 S.O2    1  UNL1        0.0604
      5 O          -5.7233   -2.7121    1.2049 O.2     1  UNL1       -0.1529
      6 O          -4.4101   -1.3624    2.6913 O.2     1  UNL1       -0.1529
      7 C          -3.5995   -1.4920    0.1205 C.ar    1  UNL1        0.1061
      8 C          -3.8060   -2.1554   -1.0937 C.ar    1  UNL1       -0.0336
      9 C          -2.7896   -2.2303   -2.0211 C.ar    1  UNL1       -0.0380
     10 C          -1.5576   -1.6536   -1.7653 C.ar    1  UNL1        0.0417
     11 N          -0.3890   -1.6201   -2.5767 N.am    1  UNL1       -0.2809
     12 C           0.5778   -0.8895   -1.7960 C.2     1  UNL1        0.2490
     13 O           1.7281   -0.6960   -2.2583 O.2     1  UNL1       -0.2698
     14 C          -0.0142   -0.4918   -0.5295 C.2     1  UNL1        0.0479
     15 C           0.6606    0.1959    0.3708 C.2     1  UNL1       -0.0256
     16 C           2.0301    0.6737    0.2981 C.ar    1  UNL1        0.0404
     17 C           2.9351    0.4319    1.3396 C.ar    1  UNL1       -0.0335
     18 C           4.1747    0.9998    1.0792 C.ar    1  UNL1       -0.0263
     19 C           4.0051    1.5934   -0.1429 C.ar    1  UNL1        0.0196
     20 C           5.1394    2.3194   -0.7662 C.3     1  UNL1       -0.0122
     21 C           6.3889    1.5443   -0.3559 C.3     1  UNL1       -0.0474
     22 C           6.5205    1.6725    1.1405 C.3     1  UNL1       -0.0487
     23 C           5.4191    0.9883    1.8918 C.3     1  UNL1       -0.0260
     24 N           2.7509    1.3921   -0.5789 N.ar    1  UNL1       -0.3581
     25 C          -1.3735   -1.0053   -0.5645 C.ar    1  UNL1        0.0102
     26 C          -2.3790   -0.9209    0.3734 C.ar    1  UNL1       -0.0257
     27 H          -4.4773    1.1791    1.5648 H       1  UNL1        0.0408
     28 H          -5.0397    1.4372   -0.1040 H       1  UNL1        0.0408
     29 H          -6.0956    1.9597    1.2330 H       1  UNL1        0.0408
     30 H          -7.9672   -0.3168    0.2146 H       1  UNL1        0.0408
     31 H          -6.7325    0.2747   -0.9685 H       1  UNL1        0.0408
     32 H          -6.6937   -1.4347   -0.5100 H       1  UNL1        0.0408
     33 H          -4.7321   -2.6348   -1.3795 H       1  UNL1        0.0638
     34 H          -2.9499   -2.7528   -2.9786 H       1  UNL1        0.0637
     35 H          -0.2644   -2.0368   -3.5311 H       1  UNL1        0.1552
     36 H           0.1043    0.4324    1.2940 H       1  UNL1        0.0646
     37 H           2.7239   -0.1245    2.2438 H       1  UNL1        0.0641
     38 H           5.0769    2.2943   -1.8815 H       1  UNL1        0.0328
     39 H           5.2066    3.3766   -0.4448 H       1  UNL1        0.0328
     40 H           6.2818    0.5015   -0.6887 H       1  UNL1        0.0269
     41 H           7.2987    1.9782   -0.8170 H       1  UNL1        0.0269
     42 H           7.5351    1.3204    1.4883 H       1  UNL1        0.0269
     43 H           6.4746    2.7589    1.3864 H       1  UNL1        0.0269
     44 H           5.1706    1.5277    2.8535 H       1  UNL1        0.0314
     45 H           5.7555   -0.0435    2.1368 H       1  UNL1        0.0314
     46 H           2.3614    1.7514   -1.4741 H       1  UNL1        0.1656
     47 H          -2.1966   -0.4089    1.2932 H       1  UNL1        0.0644
@<TRIPOS>BOND
     1     1     2    1
     2     2     3    1
     3     2     4    1
     4     4     5    2
     5     4     6    2
     6     4     7    1
     7     7     8   ar
     8     8     9   ar
     9     9    10   ar
    10    10    11    1
    11    11    12   am
    12    12    13    2
    13    12    14    1
    14    14    15    2
    15    15    16    1
    16    16    17   ar
    17    17    18   ar
    18    18    19   ar
    19    19    20    1
    20    20    21    1
    21    21    22    1
    22    22    23    1
    23    19    24   ar
    24    14    25    1
    25    25    26   ar
    26    26     7   ar
    27    25    10   ar
    28    24    16   ar
    29    23    18    1
    30     1    27    1
    31     1    28    1
    32     1    29    1
    33     3    30    1
    34     3    31    1
    35     3    32    1
    36     8    33    1
    37     9    34    1
    38    11    35    1
    39    15    36    1
    40    17    37    1
    41    20    38    1
    42    20    39    1
    43    21    40    1
    44    21    41    1
    45    22    42    1
    46    22    43    1
    47    23    44    1
    48    23    45    1
    49    24    46    1
    50    26    47    1
