
     RDKit          3D

 82 86  0  0  0  0  0  0  0  0999 V2000
   -3.7792   -3.3790   -1.3539 C   0  0  0  0  0  0  0  0  0  0  0  0
   -4.6726   -2.7674   -0.3267 C   0  0  0  0  0  0  0  0  0  0  0  0
   -5.4401   -1.5758   -0.8093 C   0  0  0  0  0  0  0  0  0  0  0  0
   -5.6549   -3.8198    0.1274 C   0  0  0  0  0  0  0  0  0  0  0  0
   -3.7150   -2.2176    1.1154 S   0  0  0  0  0  6  0  0  0  0  0  0
   -3.1010   -3.3801    1.7828 O   0  0  0  0  0  0  0  0  0  0  0  0
   -4.7796   -1.5960    1.9957 O   0  0  0  0  0  0  0  0  0  0  0  0
   -2.5245   -1.0116    0.5818 C   0  0  0  0  0  0  0  0  0  0  0  0
   -1.6028   -0.5065    1.6301 C   0  0  2  0  0  0  0  0  0  0  0  0
   -2.1474    0.1874    2.8163 C   0  0  0  0  0  0  0  0  0  0  0  0
   -3.0245   -0.3616    3.8349 C   0  0  0  0  0  0  0  0  0  0  0  0
   -1.5660   -0.0658    4.2101 C   0  0  0  0  0  0  0  0  0  0  0  0
   -0.3737    0.0936    1.1685 N   0  0  0  0  0  0  0  0  0  0  0  0
    0.8351   -0.7075    1.3107 C   0  0  0  0  0  0  0  0  0  0  0  0
    0.8038   -1.7948    1.9431 O   0  0  0  0  0  0  0  0  0  0  0  0
    2.1478   -0.3347    0.7517 C   0  0  1  0  0  0  0  0  0  0  0  0
    3.0012    0.1929    1.8881 C   0  0  0  0  0  0  0  0  0  0  0  0
    2.7462   -1.6180    0.1992 C   0  0  0  0  0  0  0  0  0  0  0  0
    4.0653   -1.3673   -0.3847 C   0  0  0  0  0  0  0  0  0  0  0  0
    4.9233   -2.2047   -0.9755 N   0  0  0  0  0  0  0  0  0  0  0  0
    6.0441   -1.8143   -1.4321 C   0  0  0  0  0  0  0  0  0  0  0  0
    7.0535   -2.7339   -2.1156 C   0  0  0  0  0  0  0  0  0  0  0  0
    8.0091   -3.2661   -1.1281 C   0  0  0  0  0  0  0  0  0  0  0  0
    7.9054   -2.9349    0.0680 O   0  0  0  0  0  0  0  0  0  0  0  0
    9.0118   -4.1244   -1.5192 O   0  0  0  0  0  0  0  0  0  0  0  0
    6.3911   -0.4706   -1.3133 C   0  0  0  0  0  0  0  0  0  0  0  0
    4.9508    0.1506   -0.4880 S   0  0  0  0  0  0  0  0  0  0  0  0
    2.0781    0.7322   -0.3004 C   0  0  0  0  0  0  0  0  0  0  0  0
    0.6843    1.1185   -0.6660 C   0  0  2  0  0  0  0  0  0  0  0  0
    0.7600    2.3439   -1.4906 C   0  0  0  0  0  0  0  0  0  0  0  0
    0.2372    2.3971   -2.7707 C   0  0  0  0  0  0  0  0  0  0  0  0
    0.3094    3.5432   -3.5482 C   0  0  0  0  0  0  0  0  0  0  0  0
    0.9109    4.6793   -3.0650 C   0  0  0  0  0  0  0  0  0  0  0  0
    1.4333    4.6337   -1.7911 C   0  0  0  0  0  0  0  0  0  0  0  0
    2.1999    6.0830   -1.1764 Cl  0  0  0  0  0  0  0  0  0  0  0  0
    1.3584    3.5018   -1.0324 C   0  0  0  0  0  0  0  0  0  0  0  0
   -0.1187    1.3712    0.6402 C   0  0  1  0  0  0  0  0  0  0  0  0
   -1.1372    2.3251    0.3275 C   0  0  0  0  0  0  0  0  0  0  0  0
   -2.0432    2.1968   -0.6834 C   0  0  0  0  0  0  0  0  0  0  0  0
   -3.0135    3.1327   -0.9576 C   0  0  0  0  0  0  0  0  0  0  0  0
   -3.1023    4.2689   -0.1922 C   0  0  0  0  0  0  0  0  0  0  0  0
   -4.3478    5.4917   -0.5273 Cl  0  0  0  0  0  0  0  0  0  0  0  0
   -2.2102    4.4341    0.8318 C   0  0  0  0  0  0  0  0  0  0  0  0
   -1.2588    3.4862    1.0784 C   0  0  0  0  0  0  0  0  0  0  0  0
   -3.5894   -2.6078   -2.1446 H   0  0  0  0  0  0  0  0  0  0  0  0
   -4.2575   -4.2296   -1.8850 H   0  0  0  0  0  0  0  0  0  0  0  0
   -2.8198   -3.7598   -0.9451 H   0  0  0  0  0  0  0  0  0  0  0  0
   -6.5300   -1.8054   -0.9496 H   0  0  0  0  0  0  0  0  0  0  0  0
   -5.0405   -1.2336   -1.7867 H   0  0  0  0  0  0  0  0  0  0  0  0
   -5.4012   -0.7153   -0.1207 H   0  0  0  0  0  0  0  0  0  0  0  0
   -6.5269   -3.8921   -0.5605 H   0  0  0  0  0  0  0  0  0  0  0  0
   -6.0477   -3.6387    1.1456 H   0  0  0  0  0  0  0  0  0  0  0  0
   -5.1952   -4.8404    0.1354 H   0  0  0  0  0  0  0  0  0  0  0  0
   -3.1119   -0.2264    0.0497 H   0  0  0  0  0  0  0  0  0  0  0  0
   -1.8724   -1.5680   -0.1574 H   0  0  0  0  0  0  0  0  0  0  0  0
   -1.2815   -1.5532    2.1005 H   0  0  0  0  0  0  0  0  0  0  0  0
   -2.2695    1.2984    2.6412 H   0  0  0  0  0  0  0  0  0  0  0  0
   -3.7788    0.3222    4.3229 H   0  0  0  0  0  0  0  0  0  0  0  0
   -3.2488   -1.4104    4.0589 H   0  0  0  0  0  0  0  0  0  0  0  0
   -1.3669    0.7699    4.8833 H   0  0  0  0  0  0  0  0  0  0  0  0
   -0.8559   -0.8901    4.2691 H   0  0  0  0  0  0  0  0  0  0  0  0
    3.5242   -0.6283    2.4267 H   0  0  0  0  0  0  0  0  0  0  0  0
    3.6885    0.9987    1.5600 H   0  0  0  0  0  0  0  0  0  0  0  0
    2.3106    0.6416    2.6311 H   0  0  0  0  0  0  0  0  0  0  0  0
    2.8719   -2.3039    1.0601 H   0  0  0  0  0  0  0  0  0  0  0  0
    2.0403   -2.0449   -0.5121 H   0  0  0  0  0  0  0  0  0  0  0  0
    6.5138   -3.5991   -2.5571 H   0  0  0  0  0  0  0  0  0  0  0  0
    7.5278   -2.2064   -2.9538 H   0  0  0  0  0  0  0  0  0  0  0  0
    9.3441   -4.8617   -0.8939 H   0  0  0  0  0  0  0  0  0  0  0  0
    7.2864    0.0682   -1.6293 H   0  0  0  0  0  0  0  0  0  0  0  0
    2.5450    0.3763   -1.2678 H   0  0  0  0  0  0  0  0  0  0  0  0
    2.6370    1.6488   -0.0333 H   0  0  0  0  0  0  0  0  0  0  0  0
    0.1342    0.3402   -1.2073 H   0  0  0  0  0  0  0  0  0  0  0  0
   -0.2509    1.5275   -3.2049 H   0  0  0  0  0  0  0  0  0  0  0  0
   -0.1080    3.5724   -4.5620 H   0  0  0  0  0  0  0  0  0  0  0  0
    0.9493    5.5453   -3.6903 H   0  0  0  0  0  0  0  0  0  0  0  0
    1.7774    3.5000   -0.0397 H   0  0  0  0  0  0  0  0  0  0  0  0
    0.6994    1.8245    1.3116 H   0  0  0  0  0  0  0  0  0  0  0  0
   -1.9891    1.3066   -1.3118 H   0  0  0  0  0  0  0  0  0  0  0  0
   -3.7026    2.9860   -1.7637 H   0  0  0  0  0  0  0  0  0  0  0  0
   -2.2953    5.3454    1.4301 H   0  0  0  0  0  0  0  0  0  0  0  0
   -0.5569    3.6316    1.8961 H   0  0  0  0  0  0  0  0  0  0  0  0
  1  2  1  0
  2  3  1  0
  2  4  1  0
  2  5  1  0
  5  6  2  0
  5  7  2  0
  5  8  1  0
  8  9  1  0
  9 10  1  0
 10 11  1  0
 11 12  1  0
  9 13  1  0
 13 14  1  0
 14 15  2  0
 14 16  1  0
 16 17  1  1
 16 18  1  0
 18 19  1  0
 19 20  2  0
 20 21  1  0
 21 22  1  0
 22 23  1  0
 23 24  2  0
 23 25  1  0
 21 26  2  0
 26 27  1  0
 16 28  1  0
 28 29  1  0
 29 30  1  0
 30 31  2  0
 31 32  1  0
 32 33  2  0
 33 34  1  0
 34 35  1  0
 34 36  2  0
 29 37  1  0
 37 38  1  0
 38 39  2  0
 39 40  1  0
 40 41  2  0
 41 42  1  0
 41 43  1  0
 43 44  2  0
 12 10  1  0
 37 13  1  0
 44 38  1  0
 27 19  1  0
 36 30  1  0
  1 45  1  0
  1 46  1  0
  1 47  1  0
  3 48  1  0
  3 49  1  0
  3 50  1  0
  4 51  1  0
  4 52  1  0
  4 53  1  0
  8 54  1  0
  8 55  1  0
  9 56  1  1
 10 57  1  0
 11 58  1  0
 11 59  1  0
 12 60  1  0
 12 61  1  0
 17 62  1  0
 17 63  1  0
 17 64  1  0
 18 65  1  0
 18 66  1  0
 22 67  1  0
 22 68  1  0
 25 69  1  0
 26 70  1  0
 28 71  1  0
 28 72  1  0
 29 73  1  6
 31 74  1  0
 32 75  1  0
 33 76  1  0
 36 77  1  0
 37 78  1  1
 39 79  1  0
 40 80  1  0
 43 81  1  0
 44 82  1  0
M  END
$$$$
