@<TRIPOS>MOLECULE
*****
 82 86 0 0 0
SMALL
GASTEIGER

@<TRIPOS>ATOM
      1 C          -3.7792   -3.3790   -1.3539 C.3     1  UNL1       -0.0405
      2 C          -4.6726   -2.7674   -0.3267 C.3     1  UNL1        0.0795
      3 C          -5.4401   -1.5758   -0.8093 C.3     1  UNL1       -0.0405
      4 C          -5.6549   -3.8198    0.1274 C.3     1  UNL1       -0.0405
      5 S          -3.7150   -2.2176    1.1154 S.O2    1  UNL1       -0.0245
      6 O          -3.1010   -3.3801    1.7828 O.2     1  UNL1       -0.1738
      7 O          -4.7796   -1.5960    1.9957 O.2     1  UNL1       -0.1738
      8 C          -2.5245   -1.0116    0.5818 C.3     1  UNL1        0.0851
      9 C          -1.6028   -0.5065    1.6301 C.3     1  UNL1        0.0488
     10 C          -2.1474    0.1874    2.8163 C.3     1  UNL1       -0.0208
     11 C          -3.0245   -0.3616    3.8349 C.3     1  UNL1       -0.0482
     12 C          -1.5660   -0.0658    4.2101 C.3     1  UNL1       -0.0482
     13 N          -0.3737    0.0936    1.1685 N.am    1  UNL1       -0.2885
     14 C           0.8351   -0.7075    1.3107 C.2     1  UNL1        0.2227
     15 O           0.8038   -1.7948    1.9431 O.2     1  UNL1       -0.2750
     16 C           2.1478   -0.3347    0.7517 C.3     1  UNL1        0.0509
     17 C           3.0012    0.1929    1.8881 C.3     1  UNL1       -0.0508
     18 C           2.7462   -1.6180    0.1992 C.3     1  UNL1        0.0097
     19 C           4.0653   -1.3673   -0.3847 C.ar    1  UNL1        0.0796
     20 N           4.9233   -2.2047   -0.9755 N.ar    1  UNL1       -0.2484
     21 C           6.0441   -1.8143   -1.4321 C.ar    1  UNL1        0.0593
     22 C           7.0535   -2.7339   -2.1156 C.3     1  UNL1        0.0875
     23 C           8.0091   -3.2661   -1.1281 C.2     1  UNL1        0.3106
     24 O           7.9054   -2.9349    0.0680 O.2     1  UNL1       -0.2506
     25 O           9.0118   -4.1244   -1.5192 O.3     1  UNL1       -0.4803
     26 C           6.3911   -0.4706   -1.3133 C.ar    1  UNL1       -0.0008
     27 S           4.9508    0.1506   -0.4880 S.2     1  UNL1       -0.0802
     28 C           2.0781    0.7322   -0.3004 C.3     1  UNL1       -0.0301
     29 C           0.6843    1.1185   -0.6660 C.3     1  UNL1        0.0079
     30 C           0.7600    2.3439   -1.4906 C.ar    1  UNL1       -0.0408
     31 C           0.2372    2.3971   -2.7707 C.ar    1  UNL1       -0.0582
     32 C           0.3094    3.5432   -3.5482 C.ar    1  UNL1       -0.0601
     33 C           0.9109    4.6793   -3.0650 C.ar    1  UNL1       -0.0434
     34 C           1.4333    4.6337   -1.7911 C.ar    1  UNL1        0.0412
     35 CL          2.1999    6.0830   -1.1764 Cl      1  UNL1       -0.0835
     36 C           1.3584    3.5018   -1.0324 C.ar    1  UNL1       -0.0399
     37 C          -0.1187    1.3712    0.6402 C.3     1  UNL1        0.0583
     38 C          -1.1372    2.3251    0.3275 C.ar    1  UNL1       -0.0263
     39 C          -2.0432    2.1968   -0.6834 C.ar    1  UNL1       -0.0554
     40 C          -3.0135    3.1327   -0.9576 C.ar    1  UNL1       -0.0431
     41 C          -3.1023    4.2689   -0.1922 C.ar    1  UNL1        0.0410
     42 CL         -4.3478    5.4917   -0.5273 Cl      1  UNL1       -0.0835
     43 C          -2.2102    4.4341    0.8318 C.ar    1  UNL1       -0.0431
     44 C          -1.2588    3.4862    1.0784 C.ar    1  UNL1       -0.0554
     45 H          -3.5894   -2.6078   -2.1446 H       1  UNL1        0.0251
     46 H          -4.2575   -4.2296   -1.8850 H       1  UNL1        0.0251
     47 H          -2.8198   -3.7598   -0.9451 H       1  UNL1        0.0251
     48 H          -6.5300   -1.8054   -0.9496 H       1  UNL1        0.0251
     49 H          -5.0405   -1.2336   -1.7867 H       1  UNL1        0.0251
     50 H          -5.4012   -0.7153   -0.1207 H       1  UNL1        0.0251
     51 H          -6.5269   -3.8921   -0.5605 H       1  UNL1        0.0251
     52 H          -6.0477   -3.6387    1.1456 H       1  UNL1        0.0251
     53 H          -5.1952   -4.8404    0.1354 H       1  UNL1        0.0251
     54 H          -3.1119   -0.2264    0.0497 H       1  UNL1        0.0519
     55 H          -1.8724   -1.5680   -0.1574 H       1  UNL1        0.0519
     56 H          -1.2815   -1.5532    2.1005 H       1  UNL1        0.0519
     57 H          -2.2695    1.2984    2.6412 H       1  UNL1        0.0319
     58 H          -3.7788    0.3222    4.3229 H       1  UNL1        0.0269
     59 H          -3.2488   -1.4104    4.0589 H       1  UNL1        0.0269
     60 H          -1.3669    0.7699    4.8833 H       1  UNL1        0.0269
     61 H          -0.8559   -0.8901    4.2691 H       1  UNL1        0.0269
     62 H           3.5242   -0.6283    2.4267 H       1  UNL1        0.0240
     63 H           3.6885    0.9987    1.5600 H       1  UNL1        0.0240
     64 H           2.3106    0.6416    2.6311 H       1  UNL1        0.0240
     65 H           2.8719   -2.3039    1.0601 H       1  UNL1        0.0343
     66 H           2.0403   -2.0449   -0.5121 H       1  UNL1        0.0343
     67 H           6.5138   -3.5991   -2.5571 H       1  UNL1        0.0442
     68 H           7.5278   -2.2064   -2.9538 H       1  UNL1        0.0442
     69 H           9.3441   -4.8617   -0.8939 H       1  UNL1        0.2951
     70 H           7.2864    0.0682   -1.6293 H       1  UNL1        0.0712
     71 H           2.5450    0.3763   -1.2678 H       1  UNL1        0.0282
     72 H           2.6370    1.6488   -0.0333 H       1  UNL1        0.0282
     73 H           0.1342    0.3402   -1.2073 H       1  UNL1        0.0370
     74 H          -0.2509    1.5275   -3.2049 H       1  UNL1        0.0620
     75 H          -0.1080    3.5724   -4.5620 H       1  UNL1        0.0618
     76 H           0.9493    5.5453   -3.6903 H       1  UNL1        0.0632
     77 H           1.7774    3.5000   -0.0397 H       1  UNL1        0.0635
     78 H           0.6994    1.8245    1.3116 H       1  UNL1        0.0556
     79 H          -1.9891    1.3066   -1.3118 H       1  UNL1        0.0621
     80 H          -3.7026    2.9860   -1.7637 H       1  UNL1        0.0632
     81 H          -2.2953    5.3454    1.4301 H       1  UNL1        0.0632
     82 H          -0.5569    3.6316    1.8961 H       1  UNL1        0.0621
@<TRIPOS>BOND
     1     1     2    1
     2     2     3    1
     3     2     4    1
     4     2     5    1
     5     5     6    2
     6     5     7    2
     7     5     8    1
     8     8     9    1
     9     9    10    1
    10    10    11    1
    11    11    12    1
    12     9    13    1
    13    13    14   am
    14    14    15    2
    15    14    16    1
    16    16    17    1
    17    16    18    1
    18    18    19    1
    19    19    20   ar
    20    20    21   ar
    21    21    22    1
    22    22    23    1
    23    23    24    2
    24    23    25    1
    25    21    26   ar
    26    26    27   ar
    27    16    28    1
    28    28    29    1
    29    29    30    1
    30    30    31   ar
    31    31    32   ar
    32    32    33   ar
    33    33    34   ar
    34    34    35    1
    35    34    36   ar
    36    29    37    1
    37    37    38    1
    38    38    39   ar
    39    39    40   ar
    40    40    41   ar
    41    41    42    1
    42    41    43   ar
    43    43    44   ar
    44    12    10    1
    45    37    13    1
    46    44    38   ar
    47    27    19   ar
    48    36    30   ar
    49     1    45    1
    50     1    46    1
    51     1    47    1
    52     3    48    1
    53     3    49    1
    54     3    50    1
    55     4    51    1
    56     4    52    1
    57     4    53    1
    58     8    54    1
    59     8    55    1
    60     9    56    1
    61    10    57    1
    62    11    58    1
    63    11    59    1
    64    12    60    1
    65    12    61    1
    66    17    62    1
    67    17    63    1
    68    17    64    1
    69    18    65    1
    70    18    66    1
    71    22    67    1
    72    22    68    1
    73    25    69    1
    74    26    70    1
    75    28    71    1
    76    28    72    1
    77    29    73    1
    78    31    74    1
    79    32    75    1
    80    33    76    1
    81    36    77    1
    82    37    78    1
    83    39    79    1
    84    40    80    1
    85    43    81    1
    86    44    82    1
