@<TRIPOS>MOLECULE
*****
 50 53 0 0 0
SMALL
GASTEIGER

@<TRIPOS>ATOM
      1 C          -5.3951    2.8383    1.8396 C.3     1  UNL1       -0.0377
      2 C          -4.1703    2.0261    1.6364 C.ar    1  UNL1       -0.0251
      3 C          -4.0289    0.6844    1.8693 C.ar    1  UNL1        0.0090
      4 N          -2.7539    0.2723    1.5650 N.ar    1  UNL1       -0.3415
      5 C          -2.3165   -1.0958    1.6586 C.3     1  UNL1        0.0497
      6 C          -2.6796   -1.8628    0.4378 C.ar    1  UNL1       -0.0094
      7 C          -1.9231   -1.9184   -0.7085 C.ar    1  UNL1       -0.0541
      8 C          -2.3548   -2.6034   -1.8572 C.ar    1  UNL1       -0.0430
      9 C          -3.5583   -3.2578   -1.9014 C.ar    1  UNL1        0.0424
     10 CL         -4.0986   -4.1138   -3.3357 Cl      1  UNL1       -0.0835
     11 C          -4.3251   -3.2148   -0.7669 C.ar    1  UNL1       -0.0247
     12 C          -3.8964   -2.5387    0.3676 C.ar    1  UNL1        0.0472
     13 CL         -4.9165   -2.6580    1.7735 Cl      1  UNL1       -0.0832
     14 C          -2.0538    1.3431    1.1360 C.ar    1  UNL1        0.0570
     15 C          -0.7586    1.5458    0.7172 C.ar    1  UNL1        0.0019
     16 C           0.2230    0.4799    0.7190 C.2     1  UNL1       -0.0476
     17 C           1.4662    0.6527    0.2472 C.2     1  UNL1        0.0023
     18 C           2.4246   -0.4475    0.2694 C.2     1  UNL1        0.2559
     19 O           2.1009   -1.5633    0.7344 O.2     1  UNL1       -0.2693
     20 N           3.7251   -0.2496   -0.2383 N.am    1  UNL1       -0.1815
     21 S           4.9348   -1.4737   -0.2615 S.O2    1  UNL1        0.0810
     22 O           4.4285   -2.6025   -1.0921 O.2     1  UNL1       -0.1494
     23 O           5.2929   -1.9315    1.1214 O.2     1  UNL1       -0.1494
     24 C           6.4051   -0.9066   -1.0085 C.ar    1  UNL1        0.1485
     25 C           7.1067   -1.3388   -2.1061 C.ar    1  UNL1       -0.0080
     26 C           8.2244   -0.7016   -2.4612 C.ar    1  UNL1        0.0683
     27 CL          9.2002   -1.1967   -3.8760 Cl      1  UNL1       -0.0814
     28 C           8.6375    0.3657   -1.7179 C.ar    1  UNL1        0.0981
     29 CL          9.9838    1.4158   -1.8485 Cl      1  UNL1       -0.0742
     30 S           7.3467    0.4855   -0.4082 S.2     1  UNL1       -0.0552
     31 C          -0.3794    2.8336    0.3458 C.ar    1  UNL1       -0.0173
     32 C          -1.2580    3.8943    0.3895 C.ar    1  UNL1        0.1247
     33 F          -0.7963    5.1318    0.0035 F       1  UNL1       -0.2054
     34 C          -2.5361    3.7076    0.8038 C.ar    1  UNL1       -0.0170
     35 C          -2.9410    2.4361    1.1795 C.ar    1  UNL1        0.0061
     36 H          -5.3470    3.4250    2.7852 H       1  UNL1        0.0278
     37 H          -6.2904    2.1683    1.9426 H       1  UNL1        0.0278
     38 H          -5.5639    3.4942    0.9738 H       1  UNL1        0.0278
     39 H          -4.7753    0.0159    2.2514 H       1  UNL1        0.0812
     40 H          -1.3497   -1.2861    2.0351 H       1  UNL1        0.0542
     41 H          -2.9863   -1.5797    2.5018 H       1  UNL1        0.0542
     42 H          -0.9639   -1.4355   -0.7503 H       1  UNL1        0.0622
     43 H          -1.7162   -2.6157   -2.7369 H       1  UNL1        0.0632
     44 H          -5.2768   -3.7355   -0.8080 H       1  UNL1        0.0647
     45 H           0.0657   -0.5047    1.0868 H       1  UNL1        0.0626
     46 H           1.7677    1.5873   -0.1517 H       1  UNL1        0.0670
     47 H           3.9862    0.6934   -0.6274 H       1  UNL1        0.1769
     48 H           6.6788   -2.2343   -2.6554 H       1  UNL1        0.0658
     49 H           0.6231    3.0274    0.0149 H       1  UNL1        0.0653
     50 H          -3.2121    4.5426    0.8345 H       1  UNL1        0.0653
@<TRIPOS>BOND
     1     1     2    1
     2     2     3   ar
     3     3     4   ar
     4     4     5    1
     5     5     6    1
     6     6     7   ar
     7     7     8   ar
     8     8     9   ar
     9     9    10    1
    10     9    11   ar
    11    11    12   ar
    12    12    13    1
    13     4    14   ar
    14    14    15   ar
    15    15    16    1
    16    16    17    2
    17    17    18    1
    18    18    19    2
    19    18    20   am
    20    20    21    1
    21    21    22    2
    22    21    23    2
    23    21    24    1
    24    24    25   ar
    25    25    26   ar
    26    26    27    1
    27    26    28   ar
    28    28    29    1
    29    28    30   ar
    30    15    31   ar
    31    31    32   ar
    32    32    33    1
    33    32    34   ar
    34    34    35   ar
    35    35     2   ar
    36    12     6   ar
    37    35    14   ar
    38    30    24   ar
    39     1    36    1
    40     1    37    1
    41     1    38    1
    42     3    39    1
    43     5    40    1
    44     5    41    1
    45     7    42    1
    46     8    43    1
    47    11    44    1
    48    16    45    1
    49    17    46    1
    50    20    47    1
    51    25    48    1
    52    31    49    1
    53    34    50    1
