@<TRIPOS>MOLECULE
*****
 57 61 0 0 0
SMALL
GASTEIGER

@<TRIPOS>ATOM
      1 C          -8.6077    1.7106    1.5545 C.3     1  UNL1        0.0817
      2 O          -7.2636    1.1971    1.4587 O.3     1  UNL1       -0.4670
      3 C          -6.6528    1.1346    0.2156 C.2     1  UNL1        0.3238
      4 O          -7.3305    1.5391   -0.7678 O.2     1  UNL1       -0.2493
      5 C          -5.2829    0.6335   -0.0251 C.3     1  UNL1        0.1259
      6 C          -4.7808    0.6792   -1.4247 C.3     1  UNL1       -0.0201
      7 C          -5.0162   -0.6190   -0.7111 C.3     1  UNL1        0.0154
      8 C          -3.8818   -1.4800   -0.3202 C.3     1  UNL1        0.0936
      9 C          -4.2952   -2.9520   -0.5914 C.3     1  UNL1       -0.0351
     10 C          -2.6817   -1.2639   -1.2084 C.ar    1  UNL1        0.0158
     11 C          -1.4200   -1.1218   -0.6869 C.ar    1  UNL1       -0.0463
     12 C          -0.3249   -0.9292   -1.5153 C.ar    1  UNL1       -0.0217
     13 C           0.9870   -0.7965   -0.9231 C.2     1  UNL1       -0.0171
     14 C           1.8794    0.0981   -1.3643 C.2     1  UNL1        0.1507
     15 F           1.4863    0.8782   -2.4005 F       1  UNL1       -0.2032
     16 C           3.2053    0.2216   -0.7686 C.ar    1  UNL1        0.1172
     17 C           4.1277    1.1332   -1.1734 C.ar    1  UNL1        0.0596
     18 N           5.3353    1.1997   -0.5892 N.ar    1  UNL1       -0.2178
     19 C           5.6895    0.3667    0.4244 C.ar    1  UNL1        0.2339
     20 O           6.9473    0.4335    1.0333 O.3     1  UNL1       -0.4658
     21 C           7.8428    1.4259    0.5452 C.3     1  UNL1        0.1668
     22 C           9.1340    1.3344    1.3131 C.ar    1  UNL1        0.2333
     23 N           9.3847    1.9801    2.4539 N.ar    1  UNL1       -0.2189
     24 C          10.6269    1.6690    2.8557 C.ar    1  UNL1        0.0660
     25 C          11.1121    0.8036    1.9010 C.ar    1  UNL1        0.1123
     26 O          10.1777    0.6301    0.9892 O.2     1  UNL1       -0.4446
     27 C           4.7634   -0.5609    0.8432 C.ar    1  UNL1        0.0898
     28 N           3.5545   -0.6077    0.2392 N.ar    1  UNL1       -0.2459
     29 C          -0.5634   -0.8876   -2.8665 C.ar    1  UNL1       -0.0518
     30 C          -1.8246   -1.0288   -3.3980 C.ar    1  UNL1       -0.0255
     31 C          -2.9142   -1.2204   -2.5767 C.ar    1  UNL1        0.1289
     32 F          -4.1213   -1.3501   -3.1401 F       1  UNL1       -0.2051
     33 N          -3.4776   -1.4847    1.0515 N.2     1  UNL1       -0.2521
     34 C          -3.5044   -0.5273    1.8850 C.2     1  UNL1        0.1485
     35 N          -3.0683   -0.6948    3.2038 N.pl3   1  UNL1       -0.3380
     36 S          -4.1229    1.0403    1.3280 S.3     1  UNL1       -0.0726
     37 H          -9.2384    1.0896    2.2201 H       1  UNL1        0.0661
     38 H          -8.5376    2.7644    1.8850 H       1  UNL1        0.0661
     39 H          -9.0880    1.7021    0.5289 H       1  UNL1        0.0661
     40 H          -5.4631    0.9778   -2.2248 H       1  UNL1        0.0288
     41 H          -3.7493    1.0871   -1.5061 H       1  UNL1        0.0288
     42 H          -5.9502   -1.1509   -1.0829 H       1  UNL1        0.0347
     43 H          -3.5025   -3.5716   -0.1107 H       1  UNL1        0.0256
     44 H          -5.2763   -3.1064   -0.0868 H       1  UNL1        0.0256
     45 H          -4.4313   -3.1440   -1.6532 H       1  UNL1        0.0256
     46 H          -1.2789   -1.1614    0.4058 H       1  UNL1        0.0628
     47 H           1.3261   -1.4132   -0.0858 H       1  UNL1        0.0653
     48 H           3.8688    1.8216   -1.9947 H       1  UNL1        0.0853
     49 H           7.4413    2.4657    0.7206 H       1  UNL1        0.0797
     50 H           8.0733    1.2670   -0.5194 H       1  UNL1        0.0797
     51 H          11.1436    2.0295    3.7566 H       1  UNL1        0.0862
     52 H          12.1066    0.3296    1.8872 H       1  UNL1        0.1046
     53 H           4.9476   -1.2604    1.6336 H       1  UNL1        0.0884
     54 H           0.2585   -0.7412   -3.5445 H       1  UNL1        0.0624
     55 H          -1.9527   -0.9867   -4.4771 H       1  UNL1        0.0646
     56 H          -3.0921   -1.6719    3.6199 H       1  UNL1        0.1442
     57 H          -2.7245    0.0895    3.7840 H       1  UNL1        0.1442
@<TRIPOS>BOND
     1     1     2    1
     2     2     3    1
     3     3     4    2
     4     5     3    1
     5     5     6    1
     6     6     7    1
     7     7     8    1
     8     8     9    1
     9     8    10    1
    10    10    11   ar
    11    11    12   ar
    12    12    13    1
    13    13    14    2
    14    14    15    1
    15    14    16    1
    16    16    17   ar
    17    17    18   ar
    18    18    19   ar
    19    19    20    1
    20    20    21    1
    21    21    22    1
    22    22    23   ar
    23    23    24   ar
    24    24    25   ar
    25    25    26   ar
    26    19    27   ar
    27    27    28   ar
    28    12    29   ar
    29    29    30   ar
    30    30    31   ar
    31    31    32    1
    32     8    33    1
    33    33    34    2
    34    34    35    1
    35    34    36    1
    36     7     5    1
    37    31    10   ar
    38    36     5    1
    39    28    16   ar
    40    26    22   ar
    41     1    37    1
    42     1    38    1
    43     1    39    1
    44     6    40    1
    45     6    41    1
    46     7    42    1
    47     9    43    1
    48     9    44    1
    49     9    45    1
    50    11    46    1
    51    13    47    1
    52    17    48    1
    53    21    49    1
    54    21    50    1
    55    24    51    1
    56    25    52    1
    57    27    53    1
    58    29    54    1
    59    30    55    1
    60    35    56    1
    61    35    57    1
