
     RDKit          3D

 40 44  0  0  0  0  0  0  0  0999 V2000
   -3.7832   -0.9953    0.7525 C   0  0  0  0  0  0  0  0  0  0  0  0
   -2.5659   -0.2820    0.8470 N   0  0  0  0  0  0  0  0  0  0  0  0
   -1.6789   -0.7469    1.8826 C   0  0  0  0  0  0  0  0  0  0  0  0
   -0.4819    0.1138    2.0361 C   0  0  0  0  0  0  0  0  0  0  0  0
    0.0770    0.6632    0.7824 C   0  0  2  0  0  0  0  0  0  0  0  0
    0.8359   -0.3905    0.0709 C   0  0  0  0  0  0  0  0  0  0  0  0
    0.2524   -1.3356   -0.7290 C   0  0  0  0  0  0  0  0  0  0  0  0
    1.0960   -2.2518   -1.3157 C   0  0  0  0  0  0  0  0  0  0  0  0
    2.4673   -2.1825   -1.0797 C   0  0  0  0  0  0  0  0  0  0  0  0
    2.9995   -1.1922   -0.2530 C   0  0  0  0  0  0  0  0  0  0  0  0
    4.3592   -1.0926    0.0043 O   0  0  0  0  0  0  0  0  0  0  0  0
    2.1640   -0.2737    0.3363 C   0  0  0  0  0  0  0  0  0  0  0  0
    2.2910    0.8316    1.1942 O   0  0  0  0  0  0  0  0  0  0  0  0
    1.1444    1.6789    1.0228 C   0  0  1  0  0  0  0  0  0  0  0  0
    1.4093    2.5914   -0.1162 C   0  0  1  0  0  0  0  0  0  0  0  0
    2.7948    2.5586   -0.4227 O   0  0  0  0  0  0  0  0  0  0  0  0
    0.6915    2.3557   -1.3598 C   0  0  0  0  0  0  0  0  0  0  0  0
   -0.4265    1.6693   -1.4066 C   0  0  0  0  0  0  0  0  0  0  0  0
   -0.9841    1.1154   -0.1814 C   0  0  1  0  0  0  0  0  0  0  0  0
   -1.8834   -0.0858   -0.4156 C   0  0  1  0  0  0  0  0  0  0  0  0
   -1.1987   -1.3023   -0.9137 C   0  0  0  0  0  0  0  0  0  0  0  0
   -4.5956   -0.3746    1.2234 H   0  0  0  0  0  0  0  0  0  0  0  0
   -4.1199   -1.1583   -0.2953 H   0  0  0  0  0  0  0  0  0  0  0  0
   -3.7707   -1.9548    1.3348 H   0  0  0  0  0  0  0  0  0  0  0  0
   -2.2519   -0.7273    2.8341 H   0  0  0  0  0  0  0  0  0  0  0  0
   -1.4136   -1.8272    1.7196 H   0  0  0  0  0  0  0  0  0  0  0  0
    0.3241   -0.5369    2.4937 H   0  0  0  0  0  0  0  0  0  0  0  0
   -0.6466    0.9152    2.7903 H   0  0  0  0  0  0  0  0  0  0  0  0
    0.6772   -3.0210   -1.9587 H   0  0  0  0  0  0  0  0  0  0  0  0
    3.1592   -2.8836   -1.5221 H   0  0  0  0  0  0  0  0  0  0  0  0
    4.9495   -0.3595   -0.3814 H   0  0  0  0  0  0  0  0  0  0  0  0
    0.9517    2.2359    1.9762 H   0  0  0  0  0  0  0  0  0  0  0  0
    1.2567    3.6555    0.2509 H   0  0  0  0  0  0  0  0  0  0  0  0
    2.9926    1.8694   -1.1029 H   0  0  0  0  0  0  0  0  0  0  0  0
    1.1420    2.7924   -2.2782 H   0  0  0  0  0  0  0  0  0  0  0  0
   -0.9330    1.5150   -2.3523 H   0  0  0  0  0  0  0  0  0  0  0  0
   -1.6021    1.8781    0.3313 H   0  0  0  0  0  0  0  0  0  0  0  0
   -2.6544    0.2308   -1.1490 H   0  0  0  0  0  0  0  0  0  0  0  0
   -1.4162   -1.4903   -2.0053 H   0  0  0  0  0  0  0  0  0  0  0  0
   -1.6288   -2.2055   -0.3980 H   0  0  0  0  0  0  0  0  0  0  0  0
  1  2  1  0
  2  3  1  0
  3  4  1  0
  5  4  1  1
  5  6  1  0
  6  7  2  0
  7  8  1  0
  8  9  2  0
  9 10  1  0
 10 11  1  0
 10 12  2  0
 12 13  1  0
 13 14  1  0
 14 15  1  0
 15 16  1  0
 15 17  1  0
 17 18  2  0
 18 19  1  0
 19 20  1  0
 20 21  1  0
 20  2  1  0
 14  5  1  0
 19  5  1  0
 12  6  1  0
 21  7  1  0
  1 22  1  0
  1 23  1  0
  1 24  1  0
  3 25  1  0
  3 26  1  0
  4 27  1  0
  4 28  1  0
  8 29  1  0
  9 30  1  0
 11 31  1  0
 14 32  1  1
 15 33  1  1
 16 34  1  0
 17 35  1  0
 18 36  1  0
 19 37  1  1
 20 38  1  6
 21 39  1  0
 21 40  1  0
M  END
$$$$
