@<TRIPOS>MOLECULE
*****
 40 44 0 0 0
SMALL
GASTEIGER

@<TRIPOS>ATOM
      1 C          -3.7832   -0.9953    0.7525 C.3     1  UNL1       -0.0124
      2 N          -2.5659   -0.2820    0.8470 N.3     1  UNL1       -0.3015
      3 C          -1.6789   -0.7469    1.8826 C.3     1  UNL1       -0.0001
      4 C          -0.4819    0.1138    2.0361 C.3     1  UNL1       -0.0263
      5 C           0.0770    0.6632    0.7824 C.3     1  UNL1        0.0480
      6 C           0.8359   -0.3905    0.0709 C.ar    1  UNL1        0.0116
      7 C           0.2524   -1.3356   -0.7290 C.ar    1  UNL1       -0.0383
      8 C           1.0960   -2.2518   -1.3157 C.ar    1  UNL1       -0.0546
      9 C           2.4673   -2.1825   -1.0797 C.ar    1  UNL1       -0.0162
     10 C           2.9995   -1.1922   -0.2530 C.ar    1  UNL1        0.1588
     11 O           4.3592   -1.0926    0.0043 O.3     1  UNL1       -0.5033
     12 C           2.1640   -0.2737    0.3363 C.ar    1  UNL1        0.1663
     13 O           2.2910    0.8316    1.1942 O.3     1  UNL1       -0.4811
     14 C           1.1444    1.6789    1.0228 C.3     1  UNL1        0.1399
     15 C           1.4093    2.5914   -0.1162 C.3     1  UNL1        0.1110
     16 O           2.7948    2.5586   -0.4227 O.3     1  UNL1       -0.3841
     17 C           0.6915    2.3557   -1.3598 C.2     1  UNL1       -0.0559
     18 C          -0.4265    1.6693   -1.4066 C.2     1  UNL1       -0.0799
     19 C          -0.9841    1.1154   -0.1814 C.3     1  UNL1        0.0064
     20 C          -1.8834   -0.0858   -0.4156 C.3     1  UNL1        0.0213
     21 C          -1.1987   -1.3023   -0.9137 C.3     1  UNL1       -0.0110
     22 H          -4.5956   -0.3746    1.2234 H       1  UNL1        0.0391
     23 H          -4.1199   -1.1583   -0.2953 H       1  UNL1        0.0391
     24 H          -3.7707   -1.9548    1.3348 H       1  UNL1        0.0391
     25 H          -2.2519   -0.7273    2.8341 H       1  UNL1        0.0427
     26 H          -1.4136   -1.8272    1.7196 H       1  UNL1        0.0427
     27 H           0.3241   -0.5369    2.4937 H       1  UNL1        0.0287
     28 H          -0.6466    0.9152    2.7903 H       1  UNL1        0.0287
     29 H           0.6772   -3.0210   -1.9587 H       1  UNL1        0.0622
     30 H           3.1592   -2.8836   -1.5221 H       1  UNL1        0.0655
     31 H           4.9495   -0.3595   -0.3814 H       1  UNL1        0.2923
     32 H           0.9517    2.2359    1.9762 H       1  UNL1        0.0772
     33 H           1.2567    3.6555    0.2509 H       1  UNL1        0.0675
     34 H           2.9926    1.8694   -1.1029 H       1  UNL1        0.2104
     35 H           1.1420    2.7924   -2.2782 H       1  UNL1        0.0596
     36 H          -0.9330    1.5150   -2.3523 H       1  UNL1        0.0573
     37 H          -1.6021    1.8781    0.3313 H       1  UNL1        0.0368
     38 H          -2.6544    0.2308   -1.1490 H       1  UNL1        0.0472
     39 H          -1.4162   -1.4903   -2.0053 H       1  UNL1        0.0329
     40 H          -1.6288   -2.2055   -0.3980 H       1  UNL1        0.0329
@<TRIPOS>BOND
     1     1     2    1
     2     2     3    1
     3     3     4    1
     4     5     4    1
     5     5     6    1
     6     6     7   ar
     7     7     8   ar
     8     8     9   ar
     9     9    10   ar
    10    10    11    1
    11    10    12   ar
    12    12    13    1
    13    13    14    1
    14    14    15    1
    15    15    16    1
    16    15    17    1
    17    17    18    2
    18    18    19    1
    19    19    20    1
    20    20    21    1
    21    20     2    1
    22    14     5    1
    23    19     5    1
    24    12     6   ar
    25    21     7    1
    26     1    22    1
    27     1    23    1
    28     1    24    1
    29     3    25    1
    30     3    26    1
    31     4    27    1
    32     4    28    1
    33     8    29    1
    34     9    30    1
    35    11    31    1
    36    14    32    1
    37    15    33    1
    38    16    34    1
    39    17    35    1
    40    18    36    1
    41    19    37    1
    42    20    38    1
    43    21    39    1
    44    21    40    1
