@<TRIPOS>MOLECULE
*****
 29 29 0 0 0
SMALL
GASTEIGER

@<TRIPOS>ATOM
      1 C           4.4452   -0.4257   -0.1736 C.3     1  UNL1       -0.0044
      2 C           3.0411   -0.9011   -0.2736 C.2     1  UNL1        0.1491
      3 O           2.6878   -1.7005   -1.1209 O.2     1  UNL1       -0.2960
      4 C           2.0164   -0.3990    0.6803 C.3     1  UNL1        0.0874
      5 N           2.6165    0.5278    1.5983 N.3     1  UNL1       -0.3195
      6 C           0.7994    0.1910   -0.0423 C.3     1  UNL1        0.0701
      7 O           0.3353   -0.7948   -0.8764 O.3     1  UNL1       -0.3732
      8 C          -0.7628   -0.4709   -1.6246 C.3     1  UNL1        0.0728
      9 C          -1.9610   -0.1033   -0.8484 C.ar    1  UNL1       -0.0219
     10 C          -2.9051   -1.0272   -0.4436 C.ar    1  UNL1       -0.0564
     11 C          -4.0268   -0.7101    0.2784 C.ar    1  UNL1       -0.0614
     12 C          -4.1778    0.6373    0.5980 C.ar    1  UNL1       -0.0617
     13 C          -3.2628    1.5938    0.2160 C.ar    1  UNL1       -0.0614
     14 C          -2.1508    1.2350   -0.5073 C.ar    1  UNL1       -0.0564
     15 H           4.5507    0.6299   -0.4661 H       1  UNL1        0.0306
     16 H           4.8014   -0.6332    0.8618 H       1  UNL1        0.0306
     17 H           5.1052   -1.0439   -0.8265 H       1  UNL1        0.0306
     18 H           1.7002   -1.2977    1.2757 H       1  UNL1        0.0560
     19 H           2.8914    1.4231    1.1733 H       1  UNL1        0.1189
     20 H           2.0350    0.7227    2.4337 H       1  UNL1        0.1189
     21 H           0.1027    0.4877    0.7525 H       1  UNL1        0.0580
     22 H           1.1379    1.1103   -0.5331 H       1  UNL1        0.0580
     23 H          -1.0341   -1.3891   -2.2055 H       1  UNL1        0.0610
     24 H          -0.5501    0.3077   -2.4032 H       1  UNL1        0.0610
     25 H          -2.7806   -2.0816   -0.6975 H       1  UNL1        0.0621
     26 H          -4.7559   -1.4412    0.5880 H       1  UNL1        0.0618
     27 H          -5.0509    0.9374    1.1691 H       1  UNL1        0.0618
     28 H          -3.4269    2.6315    0.4906 H       1  UNL1        0.0618
     29 H          -1.4206    1.9840   -0.8145 H       1  UNL1        0.0621
@<TRIPOS>BOND
     1     1     2    1
     2     2     3    2
     3     2     4    1
     4     4     5    1
     5     4     6    1
     6     6     7    1
     7     7     8    1
     8     8     9    1
     9     9    10   ar
    10    10    11   ar
    11    11    12   ar
    12    12    13   ar
    13    13    14   ar
    14    14     9   ar
    15     1    15    1
    16     1    16    1
    17     1    17    1
    18     4    18    1
    19     5    19    1
    20     5    20    1
    21     6    21    1
    22     6    22    1
    23     8    23    1
    24     8    24    1
    25    10    25    1
    26    11    26    1
    27    12    27    1
    28    13    28    1
    29    14    29    1
