@<TRIPOS>MOLECULE
*****
 39 40 0 0 0
SMALL
GASTEIGER

@<TRIPOS>ATOM
      1 C          -1.9531    0.8008    3.5841 C.3     1  UNL1        0.0790
      2 O          -2.6698    0.4862    2.3855 O.3     1  UNL1       -0.4913
      3 C          -1.9045   -0.1404    1.3849 C.ar    1  UNL1        0.1654
      4 C          -0.5508   -0.4472    1.5139 C.ar    1  UNL1       -0.0126
      5 C           0.1002   -1.0703    0.4493 C.ar    1  UNL1       -0.0358
      6 C           1.5427   -1.3709    0.6578 C.3     1  UNL1        0.0025
      7 C           2.4422   -0.2686    0.3128 C.ar    1  UNL1        0.0146
      8 C           3.0154    0.5029    1.3274 C.ar    1  UNL1        0.0379
      9 N           3.8467    1.5322    1.1351 N.ar    1  UNL1       -0.2227
     10 C           4.1622    1.8585   -0.1321 C.ar    1  UNL1        0.2142
     11 N           5.0370    2.9365   -0.4291 N.pl3   1  UNL1       -0.3274
     12 N           3.6414    1.1532   -1.1362 N.ar    1  UNL1       -0.1999
     13 C           2.8078    0.1211   -0.9419 C.ar    1  UNL1        0.1247
     14 N           2.2962   -0.5807   -2.0455 N.pl3   1  UNL1       -0.3428
     15 C          -0.6270   -1.3509   -0.6753 C.ar    1  UNL1       -0.0126
     16 C          -1.9665   -1.0455   -0.7985 C.ar    1  UNL1        0.1654
     17 O          -2.6708   -1.3494   -1.9636 O.3     1  UNL1       -0.4913
     18 C          -2.0836   -1.9754   -3.0769 C.3     1  UNL1        0.0790
     19 C          -2.6251   -0.4300    0.2432 C.ar    1  UNL1        0.2035
     20 O          -3.9740   -0.1338    0.0920 O.3     1  UNL1       -0.4885
     21 C          -4.2571    1.1465   -0.4605 C.3     1  UNL1        0.0791
     22 H          -2.6495    1.1879    4.3606 H       1  UNL1        0.0660
     23 H          -1.4597   -0.1039    3.9990 H       1  UNL1        0.0660
     24 H          -1.2398    1.6166    3.3459 H       1  UNL1        0.0660
     25 H          -0.1112   -0.1609    2.4704 H       1  UNL1        0.0658
     26 H           1.6925   -1.6269    1.7365 H       1  UNL1        0.0363
     27 H           1.7756   -2.3165    0.1241 H       1  UNL1        0.0363
     28 H           2.7918    0.2794    2.3739 H       1  UNL1        0.0834
     29 H           4.7752    3.9545   -0.5477 H       1  UNL1        0.1452
     30 H           5.9490    2.4049   -0.4823 H       1  UNL1        0.1452
     31 H           1.7434   -0.2520   -2.8934 H       1  UNL1        0.1437
     32 H           2.2251   -1.5127   -2.4634 H       1  UNL1        0.1437
     33 H          -0.1314   -1.8260   -1.4832 H       1  UNL1        0.0658
     34 H          -1.0984   -1.5482   -3.3425 H       1  UNL1        0.0660
     35 H          -2.0172   -3.0635   -2.8515 H       1  UNL1        0.0660
     36 H          -2.8137   -1.8754   -3.9066 H       1  UNL1        0.0660
     37 H          -4.3893    1.0009   -1.5527 H       1  UNL1        0.0660
     38 H          -3.4555    1.8862   -0.2502 H       1  UNL1        0.0660
     39 H          -5.1963    1.5805   -0.0630 H       1  UNL1        0.0660
@<TRIPOS>BOND
     1     1     2    1
     2     2     3    1
     3     3     4   ar
     4     4     5   ar
     5     5     6    1
     6     6     7    1
     7     7     8   ar
     8     8     9   ar
     9     9    10   ar
    10    10    11    1
    11    10    12   ar
    12    12    13   ar
    13    13    14    1
    14     5    15   ar
    15    15    16   ar
    16    16    17    1
    17    17    18    1
    18    16    19   ar
    19    19    20    1
    20    20    21    1
    21    19     3   ar
    22    13     7   ar
    23     1    22    1
    24     1    23    1
    25     1    24    1
    26     4    25    1
    27     6    26    1
    28     6    27    1
    29     8    28    1
    30    11    29    1
    31    11    30    1
    32    14    31    1
    33    14    32    1
    34    15    33    1
    35    18    34    1
    36    18    35    1
    37    18    36    1
    38    21    37    1
    39    21    38    1
    40    21    39    1
