@<TRIPOS>MOLECULE
*****
 55 58 0 0 0
SMALL
GASTEIGER

@<TRIPOS>ATOM
      1 C          -5.2574   -1.3585    1.6198 C.3     1  UNL1        0.0067
      2 C          -5.6831   -0.8775    0.2414 C.3     1  UNL1        0.2351
      3 C          -5.4771   -2.0026   -0.7631 C.3     1  UNL1        0.0067
      4 N          -7.0788   -0.5259    0.2298 N.2     1  UNL1       -0.0704
      5 C          -7.5780    0.5935   -0.1201 C.cat   1  UNL1        0.4197
      6 N          -8.9784    0.8366   -0.0938 N.pl3   1  UNL1       -0.2468
      7 N          -6.7308    1.6336   -0.5483 N.2     1  UNL1       -0.0088
      8 C          -5.4710    1.4628   -0.5878 C.cat   1  UNL1        0.3829
      9 N          -4.6142    2.5354   -1.0282 N.pl3   1  UNL1       -0.2507
     10 N          -4.8856    0.2269   -0.2029 N.pl3   1  UNL1       -0.1537
     11 C          -3.4600    0.1621   -0.2889 C.ar    1  UNL1        0.0983
     12 C          -2.8073   -0.2512   -1.4245 C.ar    1  UNL1       -0.0215
     13 C          -1.4341   -0.3080   -1.4924 C.ar    1  UNL1       -0.0168
     14 C          -0.6564    0.0543   -0.4040 C.ar    1  UNL1        0.1212
     15 O           0.7305    0.0050   -0.4492 O.3     1  UNL1       -0.4874
     16 C           1.4450    0.3922    0.7071 C.3     1  UNL1        0.1146
     17 C           2.9217    0.2676    0.4512 C.ar    1  UNL1       -0.0104
     18 C           3.5073   -0.9297    0.7434 C.ar    1  UNL1       -0.0548
     19 C           4.8677   -1.0707    0.5175 C.ar    1  UNL1       -0.0537
     20 C           5.6266   -0.0376    0.0107 C.ar    1  UNL1       -0.0179
     21 C           7.0448   -0.1409   -0.2386 C.ar    1  UNL1       -0.0179
     22 C           7.8109   -0.9471    0.5646 C.ar    1  UNL1       -0.0540
     23 C           9.1711   -1.0360    0.3133 C.ar    1  UNL1       -0.0612
     24 C           9.7181   -0.3213   -0.7255 C.ar    1  UNL1       -0.0617
     25 C           8.9528    0.4935   -1.5396 C.ar    1  UNL1       -0.0612
     26 C           7.5940    0.5725   -1.2762 C.ar    1  UNL1       -0.0540
     27 C           5.0023    1.1592   -0.2736 C.ar    1  UNL1       -0.0537
     28 C           3.6489    1.3072   -0.0515 C.ar    1  UNL1       -0.0548
     29 C          -1.3371    0.4652    0.7230 C.ar    1  UNL1       -0.0168
     30 C          -2.7083    0.5253    0.8003 C.ar    1  UNL1       -0.0215
     31 H          -6.1559   -1.9101    2.0243 H       1  UNL1        0.0299
     32 H          -4.4631   -2.1082    1.5238 H       1  UNL1        0.0299
     33 H          -5.0268   -0.5362    2.3103 H       1  UNL1        0.0299
     34 H          -6.2334   -2.7927   -0.6551 H       1  UNL1        0.0299
     35 H          -5.5418   -1.6077   -1.7986 H       1  UNL1        0.0299
     36 H          -4.4445   -2.3785   -0.6079 H       1  UNL1        0.0299
     37 H          -9.5462    0.9294    0.7592 H       1  UNL1        0.2415
     38 H          -9.4585    0.9263   -1.0085 H       1  UNL1        0.2415
     39 H          -4.7316    2.8692   -1.9912 H       1  UNL1        0.2412
     40 H          -3.9095    2.9577   -0.4113 H       1  UNL1        0.2412
     41 H          -3.3719   -0.5427   -2.2964 H       1  UNL1        0.0651
     42 H          -0.8953   -0.6294   -2.3730 H       1  UNL1        0.0655
     43 H           1.2688    1.4614    0.9522 H       1  UNL1        0.0748
     44 H           1.1710   -0.2139    1.5866 H       1  UNL1        0.0748
     45 H           2.9444   -1.7844    1.1497 H       1  UNL1        0.0622
     46 H           5.3446   -2.0125    0.7440 H       1  UNL1        0.0624
     47 H           7.4055   -1.5199    1.3881 H       1  UNL1        0.0624
     48 H           9.7615   -1.6771    0.9569 H       1  UNL1        0.0618
     49 H          10.7950   -0.4303   -0.8761 H       1  UNL1        0.0618
     50 H           9.4182    1.0475   -2.3557 H       1  UNL1        0.0618
     51 H           7.0054    1.2133   -1.9203 H       1  UNL1        0.0624
     52 H           5.5647    2.0114   -0.6788 H       1  UNL1        0.0624
     53 H           3.1184    2.2297   -0.2603 H       1  UNL1        0.0622
     54 H          -0.7358    0.7571    1.5982 H       1  UNL1        0.0655
     55 H          -3.1674    0.8547    1.7090 H       1  UNL1        0.0651
@<TRIPOS>BOND
     1     1     2    1
     2     2     3    1
     3     2     4    1
     4     4     5    2
     5     5     6    1
     6     5     7    1
     7     7     8    2
     8     8     9    1
     9     8    10    1
    10    10    11    1
    11    11    12   ar
    12    12    13   ar
    13    13    14   ar
    14    14    15    1
    15    15    16    1
    16    16    17    1
    17    17    18   ar
    18    18    19   ar
    19    19    20   ar
    20    20    21    1
    21    21    22   ar
    22    22    23   ar
    23    23    24   ar
    24    24    25   ar
    25    25    26   ar
    26    20    27   ar
    27    27    28   ar
    28    14    29   ar
    29    29    30   ar
    30    10     2    1
    31    30    11   ar
    32    28    17   ar
    33    26    21   ar
    34     1    31    1
    35     1    32    1
    36     1    33    1
    37     3    34    1
    38     3    35    1
    39     3    36    1
    40     6    37    1
    41     6    38    1
    42     9    39    1
    43     9    40    1
    44    12    41    1
    45    13    42    1
    46    16    43    1
    47    16    44    1
    48    18    45    1
    49    19    46    1
    50    22    47    1
    51    23    48    1
    52    24    49    1
    53    25    50    1
    54    26    51    1
    55    27    52    1
    56    28    53    1
    57    29    54    1
    58    30    55    1
