@<TRIPOS>MOLECULE
*****
 46 49 0 0 0
SMALL
GASTEIGER

@<TRIPOS>ATOM
      1 N          -4.6636   -0.7370    3.1996 N.1     1  UNL1       -0.1962
      2 C          -4.5715   -0.3230    2.1020 C.1     1  UNL1        0.0681
      3 C          -4.4674    0.1810    0.7186 C.3     1  UNL1        0.0727
      4 C          -5.5237    1.2519    0.5272 C.3     1  UNL1       -0.0118
      5 C          -5.2601    2.0374   -0.7417 C.3     1  UNL1        0.0490
      6 O          -4.1168    1.5373   -1.4033 O.3     1  UNL1       -0.3776
      7 C          -3.0472    1.8337   -0.5417 C.3     1  UNL1        0.0712
      8 C          -3.1274    0.8312    0.5893 C.3     1  UNL1        0.0915
      9 N          -2.0984   -0.1754    0.3116 N.ar    1  UNL1       -0.2624
     10 C          -2.0175   -1.0243   -0.7024 C.ar    1  UNL1        0.0400
     11 C          -0.8812   -1.7849   -0.5594 C.ar    1  UNL1        0.0957
     12 C          -0.3786   -2.8455   -1.4252 C.2     1  UNL1        0.2464
     13 N          -1.0518   -3.2477   -2.6061 N.am    1  UNL1       -0.3252
     14 O           0.6882   -3.4417   -1.1369 O.2     1  UNL1       -0.2702
     15 C          -0.2877   -1.3482    0.5901 C.ar    1  UNL1        0.1570
     16 N           0.9388   -1.8209    1.1862 N.pl3   1  UNL1       -0.2974
     17 C           2.1049   -1.0886    0.9107 C.ar    1  UNL1        0.0326
     18 C           3.3058   -1.5569    1.3961 C.ar    1  UNL1       -0.0385
     19 C           4.4579   -0.8765    1.1669 C.ar    1  UNL1       -0.0345
     20 C           4.4923    0.3028    0.4471 C.ar    1  UNL1        0.0671
     21 N           5.7058    1.0078    0.2220 N.ar    1  UNL1       -0.2201
     22 C           6.5033    1.0645   -0.8555 C.ar    1  UNL1        0.0512
     23 C           7.5856    1.8924   -0.5979 C.ar    1  UNL1        0.0697
     24 N           7.3914    2.3176    0.6701 N.ar    1  UNL1       -0.1376
     25 N           6.2749    1.7813    1.1319 N.ar    1  UNL1       -0.0608
     26 C           3.2934    0.7771   -0.0423 C.ar    1  UNL1       -0.0345
     27 C           2.1142    0.0831    0.1906 C.ar    1  UNL1       -0.0385
     28 N          -1.0589   -0.3712    1.0864 N.ar    1  UNL1       -0.1549
     29 H          -4.5804   -0.6497   -0.0126 H       1  UNL1        0.0476
     30 H          -5.4187    1.9345    1.4217 H       1  UNL1        0.0300
     31 H          -6.5341    0.7904    0.5146 H       1  UNL1        0.0300
     32 H          -5.0403    3.0997   -0.4703 H       1  UNL1        0.0560
     33 H          -6.1167    1.9823   -1.4566 H       1  UNL1        0.0560
     34 H          -3.1561    2.8679   -0.1899 H       1  UNL1        0.0581
     35 H          -2.0632    1.7858   -1.0756 H       1  UNL1        0.0581
     36 H          -2.9174    1.3500    1.5455 H       1  UNL1        0.0580
     37 H          -2.7387   -1.0965   -1.5066 H       1  UNL1        0.0835
     38 H          -0.4863   -3.4841   -3.4421 H       1  UNL1        0.1453
     39 H          -2.1032   -3.3010   -2.6226 H       1  UNL1        0.1453
     40 H           0.9389   -2.6632    1.7866 H       1  UNL1        0.1536
     41 H           3.3362   -2.4910    1.9734 H       1  UNL1        0.0637
     42 H           5.3889   -1.2555    1.5520 H       1  UNL1        0.0639
     43 H           6.2902    0.5241   -1.7678 H       1  UNL1        0.0847
     44 H           8.4045    2.1467   -1.2549 H       1  UNL1        0.0864
     45 H           3.3079    1.7047   -0.6097 H       1  UNL1        0.0639
     46 H           1.1835    0.4980   -0.2191 H       1  UNL1        0.0637
@<TRIPOS>BOND
     1     1     2    3
     2     2     3    1
     3     3     4    1
     4     4     5    1
     5     5     6    1
     6     6     7    1
     7     7     8    1
     8     8     9    1
     9     9    10   ar
    10    10    11   ar
    11    11    12    1
    12    12    13   am
    13    12    14    2
    14    11    15   ar
    15    15    16    1
    16    16    17    1
    17    17    18   ar
    18    18    19   ar
    19    19    20   ar
    20    20    21    1
    21    21    22   ar
    22    22    23   ar
    23    23    24   ar
    24    24    25   ar
    25    20    26   ar
    26    26    27   ar
    27    15    28   ar
    28     8     3    1
    29    28     9   ar
    30    27    17   ar
    31    25    21   ar
    32     3    29    1
    33     4    30    1
    34     4    31    1
    35     5    32    1
    36     5    33    1
    37     7    34    1
    38     7    35    1
    39     8    36    1
    40    10    37    1
    41    13    38    1
    42    13    39    1
    43    16    40    1
    44    18    41    1
    45    19    42    1
    46    22    43    1
    47    23    44    1
    48    26    45    1
    49    27    46    1
