@<TRIPOS>MOLECULE
*****
 48 51 0 0 0
SMALL
GASTEIGER

@<TRIPOS>ATOM
      1 C           2.9377    3.2030    0.2900 C.3     1  UNL1       -0.0127
      2 N           2.5210    1.8432    0.0641 N.3     1  UNL1       -0.3029
      3 C           2.6401    1.0231    1.2272 C.3     1  UNL1       -0.0007
      4 C           1.6955   -0.1759    1.0643 C.3     1  UNL1       -0.0307
      5 C           1.3197   -0.2970   -0.4246 C.3     1  UNL1        0.0195
      6 C           2.6564   -0.2128   -1.1321 C.3     1  UNL1        0.0749
      7 O           3.6689   -0.8092   -0.3368 O.3     1  UNL1       -0.3899
      8 C           3.0749    1.2714   -1.1351 C.3     1  UNL1        0.0252
      9 C           0.6044   -1.5313   -0.6676 C.ar    1  UNL1        0.0427
     10 C           1.1367   -2.7265   -1.0991 C.ar    1  UNL1        0.1274
     11 O           2.4938   -2.8390   -1.3562 O.3     1  UNL1       -0.5062
     12 C           0.4493   -3.9002   -1.3232 C.ar    1  UNL1        0.0225
     13 C          -0.9202   -3.8987   -1.0971 C.ar    1  UNL1        0.1347
     14 O          -1.6858   -5.0341   -1.2972 O.3     1  UNL1       -0.5058
     15 C          -1.4909   -2.7206   -0.6644 C.ar    1  UNL1        0.1057
     16 C          -0.7830   -1.5572   -0.4466 C.ar    1  UNL1        0.1497
     17 O          -1.3398   -0.4483   -0.0361 O.2     1  UNL1       -0.4540
     18 C          -2.6069   -0.2862    0.2192 C.ar    1  UNL1        0.1406
     19 C          -3.3126   -1.4322    0.0060 C.ar    1  UNL1        0.0289
     20 C          -2.8427   -2.6422   -0.4192 C.ar    1  UNL1        0.1966
     21 O          -3.5698   -3.6262   -0.5823 O.2     1  UNL1       -0.2869
     22 C          -3.0334    1.0181    0.6644 C.ar    1  UNL1        0.0357
     23 C          -2.0544    1.9911    0.7830 C.ar    1  UNL1       -0.0497
     24 C          -2.3099    3.2793    1.1954 C.ar    1  UNL1       -0.0610
     25 C          -3.5805    3.6644    1.5153 C.ar    1  UNL1       -0.0603
     26 C          -4.5818    2.7416    1.4149 C.ar    1  UNL1       -0.0427
     27 C          -4.2803    1.4734    1.0006 C.ar    1  UNL1        0.0516
     28 CL         -5.6194    0.3897    0.9095 Cl      1  UNL1       -0.0828
     29 H           2.1007    3.9123    0.2049 H       1  UNL1        0.0391
     30 H           3.7416    3.4847   -0.4119 H       1  UNL1        0.0391
     31 H           3.3556    3.2758    1.3154 H       1  UNL1        0.0391
     32 H           2.2893    1.5652    2.1330 H       1  UNL1        0.0427
     33 H           3.6291    0.6412    1.4630 H       1  UNL1        0.0427
     34 H           2.2089   -1.0478    1.4524 H       1  UNL1        0.0284
     35 H           0.7828   -0.0327    1.6771 H       1  UNL1        0.0284
     36 H           0.7370    0.6186   -0.6766 H       1  UNL1        0.0377
     37 H           2.6558   -0.6240   -2.1495 H       1  UNL1        0.0612
     38 H           4.4609   -0.9629   -0.9087 H       1  UNL1        0.2099
     39 H           4.1594    1.2936   -1.1838 H       1  UNL1        0.0452
     40 H           2.7020    1.7670   -2.0552 H       1  UNL1        0.0452
     41 H           2.7621   -3.1173   -2.2907 H       1  UNL1        0.2921
     42 H           0.8813   -4.8100   -1.6560 H       1  UNL1        0.0691
     43 H          -1.4301   -5.8790   -0.7772 H       1  UNL1        0.2922
     44 H          -4.3653   -1.4036    0.1877 H       1  UNL1        0.0693
     45 H          -0.9965    1.8143    0.5580 H       1  UNL1        0.0625
     46 H          -1.5286    4.0102    1.2769 H       1  UNL1        0.0618
     47 H          -3.7618    4.6773    1.8364 H       1  UNL1        0.0618
     48 H          -5.5711    3.0567    1.6684 H       1  UNL1        0.0632
@<TRIPOS>BOND
     1     1     2    1
     2     2     3    1
     3     3     4    1
     4     4     5    1
     5     5     6    1
     6     6     7    1
     7     6     8    1
     8     5     9    1
     9     9    10   ar
    10    10    11    1
    11    10    12   ar
    12    12    13   ar
    13    13    14    1
    14    13    15   ar
    15    15    16   ar
    16    16    17   ar
    17    17    18   ar
    18    18    19   ar
    19    19    20   ar
    20    20    21    2
    21    18    22    1
    22    22    23   ar
    23    23    24   ar
    24    24    25   ar
    25    25    26   ar
    26    26    27   ar
    27    27    28    1
    28     8     2    1
    29    16     9   ar
    30    27    22   ar
    31    20    15   ar
    32     1    29    1
    33     1    30    1
    34     1    31    1
    35     3    32    1
    36     3    33    1
    37     4    34    1
    38     4    35    1
    39     5    36    1
    40     6    37    1
    41     7    38    1
    42     8    39    1
    43     8    40    1
    44    11    41    1
    45    12    42    1
    46    14    43    1
    47    19    44    1
    48    23    45    1
    49    24    46    1
    50    25    47    1
    51    26    48    1
