
     RDKit          3D

 48 51  0  0  0  0  0  0  0  0999 V2000
    2.9377    3.2030    0.2900 C   0  0  0  0  0  0  0  0  0  0  0  0
    2.5210    1.8432    0.0641 N   0  0  0  0  0  0  0  0  0  0  0  0
    2.6401    1.0231    1.2272 C   0  0  0  0  0  0  0  0  0  0  0  0
    1.6955   -0.1759    1.0643 C   0  0  0  0  0  0  0  0  0  0  0  0
    1.3197   -0.2970   -0.4246 C   0  0  1  0  0  0  0  0  0  0  0  0
    2.6564   -0.2128   -1.1321 C   0  0  2  0  0  0  0  0  0  0  0  0
    3.6689   -0.8092   -0.3368 O   0  0  0  0  0  0  0  0  0  0  0  0
    3.0749    1.2714   -1.1351 C   0  0  0  0  0  0  0  0  0  0  0  0
    0.6044   -1.5313   -0.6676 C   0  0  0  0  0  0  0  0  0  0  0  0
    1.1367   -2.7265   -1.0991 C   0  0  0  0  0  0  0  0  0  0  0  0
    2.4938   -2.8390   -1.3562 O   0  0  0  0  0  0  0  0  0  0  0  0
    0.4493   -3.9002   -1.3232 C   0  0  0  0  0  0  0  0  0  0  0  0
   -0.9202   -3.8987   -1.0971 C   0  0  0  0  0  0  0  0  0  0  0  0
   -1.6858   -5.0341   -1.2972 O   0  0  0  0  0  0  0  0  0  0  0  0
   -1.4909   -2.7206   -0.6644 C   0  0  0  0  0  0  0  0  0  0  0  0
   -0.7830   -1.5572   -0.4466 C   0  0  0  0  0  0  0  0  0  0  0  0
   -1.3398   -0.4483   -0.0361 O   0  0  0  0  0  0  0  0  0  0  0  0
   -2.6069   -0.2862    0.2192 C   0  0  0  0  0  0  0  0  0  0  0  0
   -3.3126   -1.4322    0.0060 C   0  0  0  0  0  0  0  0  0  0  0  0
   -2.8427   -2.6422   -0.4192 C   0  0  0  0  0  0  0  0  0  0  0  0
   -3.5698   -3.6262   -0.5823 O   0  0  0  0  0  0  0  0  0  0  0  0
   -3.0334    1.0181    0.6644 C   0  0  0  0  0  0  0  0  0  0  0  0
   -2.0544    1.9911    0.7830 C   0  0  0  0  0  0  0  0  0  0  0  0
   -2.3099    3.2793    1.1954 C   0  0  0  0  0  0  0  0  0  0  0  0
   -3.5805    3.6644    1.5153 C   0  0  0  0  0  0  0  0  0  0  0  0
   -4.5818    2.7416    1.4149 C   0  0  0  0  0  0  0  0  0  0  0  0
   -4.2803    1.4734    1.0006 C   0  0  0  0  0  0  0  0  0  0  0  0
   -5.6194    0.3897    0.9095 Cl  0  0  0  0  0  0  0  0  0  0  0  0
    2.1007    3.9123    0.2049 H   0  0  0  0  0  0  0  0  0  0  0  0
    3.7416    3.4847   -0.4119 H   0  0  0  0  0  0  0  0  0  0  0  0
    3.3556    3.2758    1.3154 H   0  0  0  0  0  0  0  0  0  0  0  0
    2.2893    1.5652    2.1330 H   0  0  0  0  0  0  0  0  0  0  0  0
    3.6291    0.6412    1.4630 H   0  0  0  0  0  0  0  0  0  0  0  0
    2.2089   -1.0478    1.4524 H   0  0  0  0  0  0  0  0  0  0  0  0
    0.7828   -0.0327    1.6771 H   0  0  0  0  0  0  0  0  0  0  0  0
    0.7370    0.6186   -0.6766 H   0  0  0  0  0  0  0  0  0  0  0  0
    2.6558   -0.6240   -2.1495 H   0  0  0  0  0  0  0  0  0  0  0  0
    4.4609   -0.9629   -0.9087 H   0  0  0  0  0  0  0  0  0  0  0  0
    4.1594    1.2936   -1.1838 H   0  0  0  0  0  0  0  0  0  0  0  0
    2.7020    1.7670   -2.0552 H   0  0  0  0  0  0  0  0  0  0  0  0
    2.7621   -3.1173   -2.2907 H   0  0  0  0  0  0  0  0  0  0  0  0
    0.8813   -4.8100   -1.6560 H   0  0  0  0  0  0  0  0  0  0  0  0
   -1.4301   -5.8790   -0.7772 H   0  0  0  0  0  0  0  0  0  0  0  0
   -4.3653   -1.4036    0.1877 H   0  0  0  0  0  0  0  0  0  0  0  0
   -0.9965    1.8143    0.5580 H   0  0  0  0  0  0  0  0  0  0  0  0
   -1.5286    4.0102    1.2769 H   0  0  0  0  0  0  0  0  0  0  0  0
   -3.7618    4.6773    1.8364 H   0  0  0  0  0  0  0  0  0  0  0  0
   -5.5711    3.0567    1.6684 H   0  0  0  0  0  0  0  0  0  0  0  0
  1  2  1  0
  2  3  1  0
  3  4  1  0
  4  5  1  0
  5  6  1  0
  6  7  1  0
  6  8  1  0
  5  9  1  0
  9 10  2  0
 10 11  1  0
 10 12  1  0
 12 13  2  0
 13 14  1  0
 13 15  1  0
 15 16  2  0
 16 17  1  0
 17 18  1  0
 18 19  2  0
 19 20  1  0
 20 21  2  0
 18 22  1  0
 22 23  2  0
 23 24  1  0
 24 25  2  0
 25 26  1  0
 26 27  2  0
 27 28  1  0
  8  2  1  0
 16  9  1  0
 27 22  1  0
 20 15  1  0
  1 29  1  0
  1 30  1  0
  1 31  1  0
  3 32  1  0
  3 33  1  0
  4 34  1  0
  4 35  1  0
  5 36  1  6
  6 37  1  6
  7 38  1  0
  8 39  1  0
  8 40  1  0
 11 41  1  0
 12 42  1  0
 14 43  1  0
 19 44  1  0
 23 45  1  0
 24 46  1  0
 25 47  1  0
 26 48  1  0
M  END
$$$$
