
     RDKit          3D

 58 62  0  0  0  0  0  0  0  0999 V2000
   -8.8342    0.0165    0.5343 C   0  0  0  0  0  0  0  0  0  0  0  0
   -7.7362    0.6464   -0.0560 O   0  0  0  0  0  0  0  0  0  0  0  0
   -6.4222    0.1753    0.0472 C   0  0  0  0  0  0  0  0  0  0  0  0
   -6.0858   -0.9594    0.7459 C   0  0  0  0  0  0  0  0  0  0  0  0
   -4.7940   -1.4214    0.8470 C   0  0  0  0  0  0  0  0  0  0  0  0
   -4.5046   -2.5408    1.5311 N   0  0  0  0  0  0  0  0  0  0  0  0
   -3.2372   -3.0068    1.6272 C   0  0  0  0  0  0  0  0  0  0  0  0
   -2.2613   -2.3258    1.0226 N   0  0  0  0  0  0  0  0  0  0  0  0
   -2.5134   -1.1796    0.3158 C   0  0  0  0  0  0  0  0  0  0  0  0
   -1.4429   -0.4554   -0.2731 N   0  0  0  0  0  0  0  0  0  0  0  0
   -0.9346    0.7322    0.3441 C   0  0  0  0  0  0  0  0  0  0  0  0
    0.3852    1.1008   -0.3035 C   0  0  0  0  0  0  0  0  0  0  0  0
    1.1722   -0.1050   -0.4297 N   0  0  0  0  0  0  0  0  0  0  0  0
    2.4040   -0.2424    0.2615 C   0  0  0  0  0  0  0  0  0  0  0  0
    2.8302    1.0488    1.1935 S   0  0  0  0  0  0  0  0  0  0  0  0
    3.1533   -1.4016    0.1317 N   0  0  0  0  0  0  0  0  0  0  0  0
    4.4069   -1.6702    0.7712 C   0  0  0  0  0  0  0  0  0  0  0  0
    5.4898   -0.7598    0.4026 C   0  0  0  0  0  0  0  0  0  0  0  0
    6.1467   -0.9625   -0.8173 C   0  0  0  0  0  0  0  0  0  0  0  0
    7.1927   -0.1547   -1.1964 C   0  0  0  0  0  0  0  0  0  0  0  0
    7.5801    0.8604   -0.3477 C   0  0  0  0  0  0  0  0  0  0  0  0
    6.9599    1.0878    0.8543 C   0  0  0  0  0  0  0  0  0  0  0  0
    5.8955    0.2523    1.2231 C   0  0  0  0  0  0  0  0  0  0  0  0
    7.5917    2.1694    1.4454 O   0  0  0  0  0  0  0  0  0  0  0  0
    8.8504    2.3572    0.8158 C   0  0  0  0  0  0  0  0  0  0  0  0
    8.5999    1.8281   -0.4694 O   0  0  0  0  0  0  0  0  0  0  0  0
    0.6555   -1.1686   -1.2803 C   0  0  0  0  0  0  0  0  0  0  0  0
   -0.8439   -0.9191   -1.5079 C   0  0  0  0  0  0  0  0  0  0  0  0
   -3.7918   -0.6952    0.2072 C   0  0  0  0  0  0  0  0  0  0  0  0
   -4.1362    0.4438   -0.4947 C   0  0  0  0  0  0  0  0  0  0  0  0
   -5.4403    0.9005   -0.5899 C   0  0  0  0  0  0  0  0  0  0  0  0
   -5.7410    2.0606   -1.3115 O   0  0  0  0  0  0  0  0  0  0  0  0
   -4.7171    2.7892   -1.9602 C   0  0  0  0  0  0  0  0  0  0  0  0
   -8.9552    0.4178    1.5749 H   0  0  0  0  0  0  0  0  0  0  0  0
   -8.7233   -1.0780    0.5753 H   0  0  0  0  0  0  0  0  0  0  0  0
   -9.7632    0.2420   -0.0656 H   0  0  0  0  0  0  0  0  0  0  0  0
   -6.8564   -1.5355    1.2506 H   0  0  0  0  0  0  0  0  0  0  0  0
   -2.9844   -3.9153    2.1797 H   0  0  0  0  0  0  0  0  0  0  0  0
   -0.7757    0.5388    1.4460 H   0  0  0  0  0  0  0  0  0  0  0  0
   -1.5778    1.6268    0.2486 H   0  0  0  0  0  0  0  0  0  0  0  0
    0.8950    1.7740    0.4004 H   0  0  0  0  0  0  0  0  0  0  0  0
    0.2167    1.5676   -1.2950 H   0  0  0  0  0  0  0  0  0  0  0  0
    2.7605   -2.1662   -0.5084 H   0  0  0  0  0  0  0  0  0  0  0  0
    4.7657   -2.7051    0.5325 H   0  0  0  0  0  0  0  0  0  0  0  0
    4.3211   -1.6331    1.8912 H   0  0  0  0  0  0  0  0  0  0  0  0
    5.8327   -1.7624   -1.4730 H   0  0  0  0  0  0  0  0  0  0  0  0
    7.7306   -0.2690   -2.1222 H   0  0  0  0  0  0  0  0  0  0  0  0
    5.4618    0.4697    2.1947 H   0  0  0  0  0  0  0  0  0  0  0  0
    9.1691    3.4072    0.7774 H   0  0  0  0  0  0  0  0  0  0  0  0
    9.5866    1.7046    1.3288 H   0  0  0  0  0  0  0  0  0  0  0  0
    0.7807   -2.1289   -0.7906 H   0  0  0  0  0  0  0  0  0  0  0  0
    1.1556   -1.1677   -2.2521 H   0  0  0  0  0  0  0  0  0  0  0  0
   -0.9430   -0.1096   -2.2737 H   0  0  0  0  0  0  0  0  0  0  0  0
   -1.2631   -1.8755   -1.8653 H   0  0  0  0  0  0  0  0  0  0  0  0
   -3.3787    1.0113   -1.0133 H   0  0  0  0  0  0  0  0  0  0  0  0
   -4.0388    2.1771   -2.5584 H   0  0  0  0  0  0  0  0  0  0  0  0
   -5.1889    3.6180   -2.5412 H   0  0  0  0  0  0  0  0  0  0  0  0
   -4.1050    3.2903   -1.1554 H   0  0  0  0  0  0  0  0  0  0  0  0
  1  2  1  0
  2  3  1  0
  3  4  2  0
  4  5  1  0
  5  6  2  0
  6  7  1  0
  7  8  2  0
  8  9  1  0
  9 10  1  0
 10 11  1  0
 11 12  1  0
 12 13  1  0
 13 14  1  0
 14 15  2  0
 14 16  1  0
 16 17  1  0
 17 18  1  0
 18 19  2  0
 19 20  1  0
 20 21  2  0
 21 22  1  0
 22 23  2  0
 22 24  1  0
 24 25  1  0
 25 26  1  0
 13 27  1  0
 27 28  1  0
  9 29  2  0
 29 30  1  0
 30 31  2  0
 31 32  1  0
 32 33  1  0
 31  3  1  0
 29  5  1  0
 28 10  1  0
 23 18  1  0
 26 21  1  0
  1 34  1  0
  1 35  1  0
  1 36  1  0
  4 37  1  0
  7 38  1  0
 11 39  1  0
 11 40  1  0
 12 41  1  0
 12 42  1  0
 16 43  1  0
 17 44  1  0
 17 45  1  0
 19 46  1  0
 20 47  1  0
 23 48  1  0
 25 49  1  0
 25 50  1  0
 27 51  1  0
 27 52  1  0
 28 53  1  0
 28 54  1  0
 30 55  1  0
 33 56  1  0
 33 57  1  0
 33 58  1  0
M  END
$$$$
