@<TRIPOS>MOLECULE
*****
 58 62 0 0 0
SMALL
GASTEIGER

@<TRIPOS>ATOM
      1 C          -8.8342    0.0165    0.5343 C.3     1  UNL1        0.0790
      2 O          -7.7362    0.6464   -0.0560 O.3     1  UNL1       -0.4914
      3 C          -6.4222    0.1753    0.0472 C.ar    1  UNL1        0.1635
      4 C          -6.0858   -0.9594    0.7459 C.ar    1  UNL1        0.0098
      5 C          -4.7940   -1.4214    0.8470 C.ar    1  UNL1        0.0797
      6 N          -4.5046   -2.5408    1.5311 N.ar    1  UNL1       -0.2352
      7 C          -3.2372   -3.0068    1.6272 C.ar    1  UNL1        0.1187
      8 N          -2.2613   -2.3258    1.0226 N.ar    1  UNL1       -0.2201
      9 C          -2.5134   -1.1796    0.3158 C.ar    1  UNL1        0.1324
     10 N          -1.4429   -0.4554   -0.2731 N.pl3   1  UNL1       -0.3116
     11 C          -0.9346    0.7322    0.3441 C.3     1  UNL1        0.0293
     12 C           0.3852    1.1008   -0.3035 C.3     1  UNL1        0.0296
     13 N           1.1722   -0.1050   -0.4297 N.am    1  UNL1       -0.3097
     14 C           2.4040   -0.2424    0.2615 C.2     1  UNL1        0.1332
     15 S           2.8302    1.0488    1.1935 S.2     1  UNL1       -0.0187
     16 N           3.1533   -1.4016    0.1317 N.am    1  UNL1       -0.3223
     17 C           4.4069   -1.6702    0.7712 C.3     1  UNL1        0.0360
     18 C           5.4898   -0.7598    0.4026 C.ar    1  UNL1       -0.0267
     19 C           6.1467   -0.9625   -0.8173 C.ar    1  UNL1       -0.0534
     20 C           7.1927   -0.1547   -1.1964 C.ar    1  UNL1       -0.0158
     21 C           7.5801    0.8604   -0.3477 C.ar    1  UNL1        0.1662
     22 C           6.9599    1.0878    0.8543 C.ar    1  UNL1        0.1665
     23 C           5.8955    0.2523    1.2231 C.ar    1  UNL1       -0.0115
     24 O           7.5917    2.1694    1.4454 O.3     1  UNL1       -0.4526
     25 C           8.8504    2.3572    0.8158 C.3     1  UNL1        0.2332
     26 O           8.5999    1.8281   -0.4694 O.3     1  UNL1       -0.4526
     27 C           0.6555   -1.1686   -1.2803 C.3     1  UNL1        0.0296
     28 C          -0.8439   -0.9191   -1.5079 C.3     1  UNL1        0.0293
     29 C          -3.7918   -0.6952    0.2072 C.ar    1  UNL1        0.0440
     30 C          -4.1362    0.4438   -0.4947 C.ar    1  UNL1       -0.0038
     31 C          -5.4403    0.9005   -0.5899 C.ar    1  UNL1        0.1623
     32 O          -5.7410    2.0606   -1.3115 O.3     1  UNL1       -0.4914
     33 C          -4.7171    2.7892   -1.9602 C.3     1  UNL1        0.0790
     34 H          -8.9552    0.4178    1.5749 H       1  UNL1        0.0660
     35 H          -8.7233   -1.0780    0.5753 H       1  UNL1        0.0660
     36 H          -9.7632    0.2420   -0.0656 H       1  UNL1        0.0660
     37 H          -6.8564   -1.5355    1.2506 H       1  UNL1        0.0677
     38 H          -2.9844   -3.9153    2.1797 H       1  UNL1        0.1048
     39 H          -0.7757    0.5388    1.4460 H       1  UNL1        0.0480
     40 H          -1.5778    1.6268    0.2486 H       1  UNL1        0.0480
     41 H           0.8950    1.7740    0.4004 H       1  UNL1        0.0480
     42 H           0.2167    1.5676   -1.2950 H       1  UNL1        0.0480
     43 H           2.7605   -2.1662   -0.5084 H       1  UNL1        0.1481
     44 H           4.7657   -2.7051    0.5325 H       1  UNL1        0.0511
     45 H           4.3211   -1.6331    1.8912 H       1  UNL1        0.0511
     46 H           5.8327   -1.7624   -1.4730 H       1  UNL1        0.0622
     47 H           7.7306   -0.2690   -2.1222 H       1  UNL1        0.0655
     48 H           5.4618    0.4697    2.1947 H       1  UNL1        0.0658
     49 H           9.1691    3.4072    0.7774 H       1  UNL1        0.1166
     50 H           9.5866    1.7046    1.3288 H       1  UNL1        0.1166
     51 H           0.7807   -2.1289   -0.7906 H       1  UNL1        0.0480
     52 H           1.1556   -1.1677   -2.2521 H       1  UNL1        0.0480
     53 H          -0.9430   -0.1096   -2.2737 H       1  UNL1        0.0480
     54 H          -1.2631   -1.8755   -1.8653 H       1  UNL1        0.0480
     55 H          -3.3787    1.0113   -1.0133 H       1  UNL1        0.0663
     56 H          -4.0388    2.1771   -2.5584 H       1  UNL1        0.0660
     57 H          -5.1889    3.6180   -2.5412 H       1  UNL1        0.0660
     58 H          -4.1050    3.2903   -1.1554 H       1  UNL1        0.0660
@<TRIPOS>BOND
     1     1     2    1
     2     2     3    1
     3     3     4   ar
     4     4     5   ar
     5     5     6   ar
     6     6     7   ar
     7     7     8   ar
     8     8     9   ar
     9     9    10    1
    10    10    11    1
    11    11    12    1
    12    12    13    1
    13    13    14    1
    14    14    15    2
    15    14    16    1
    16    16    17    1
    17    17    18    1
    18    18    19   ar
    19    19    20   ar
    20    20    21   ar
    21    21    22   ar
    22    22    23   ar
    23    22    24    1
    24    24    25    1
    25    25    26    1
    26    13    27    1
    27    27    28    1
    28     9    29   ar
    29    29    30   ar
    30    30    31   ar
    31    31    32    1
    32    32    33    1
    33    31     3   ar
    34    29     5   ar
    35    28    10    1
    36    23    18   ar
    37    26    21    1
    38     1    34    1
    39     1    35    1
    40     1    36    1
    41     4    37    1
    42     7    38    1
    43    11    39    1
    44    11    40    1
    45    12    41    1
    46    12    42    1
    47    16    43    1
    48    17    44    1
    49    17    45    1
    50    19    46    1
    51    20    47    1
    52    23    48    1
    53    25    49    1
    54    25    50    1
    55    27    51    1
    56    27    52    1
    57    28    53    1
    58    28    54    1
    59    30    55    1
    60    33    56    1
    61    33    57    1
    62    33    58    1
