@<TRIPOS>MOLECULE
*****
 44 47 0 0 0
SMALL
GASTEIGER

@<TRIPOS>ATOM
      1 C          -5.7108   -1.1925    0.3053 C.3     1  UNL1        0.0309
      2 N          -4.6461   -1.2381    1.2703 N.ar    1  UNL1       -0.2667
      3 N          -4.5212   -2.1868    2.1783 N.ar    1  UNL1       -0.1793
      4 C          -3.4432   -1.9406    2.9091 C.ar    1  UNL1        0.0500
      5 C          -2.8609   -0.7882    2.4448 C.ar    1  UNL1       -0.0162
      6 C          -3.6344   -0.3430    1.3966 C.ar    1  UNL1        0.0721
      7 C          -3.4005    0.8508    0.5944 C.ar    1  UNL1        0.0436
      8 C          -4.4497    1.6791    0.3084 C.ar    1  UNL1       -0.0307
      9 C          -4.2777    2.8257   -0.4504 C.ar    1  UNL1        0.0418
     10 CL         -5.6369    3.8553   -0.7939 Cl      1  UNL1       -0.0835
     11 C          -3.0403    3.1510   -0.9309 C.ar    1  UNL1       -0.0399
     12 C          -1.9856    2.2997   -0.6314 C.ar    1  UNL1       -0.0173
     13 C          -2.1446    1.1561    0.1220 C.ar    1  UNL1        0.1377
     14 O          -1.1381    0.2890    0.4395 O.3     1  UNL1       -0.4538
     15 C           0.1812    0.3534    0.0495 C.ar    1  UNL1        0.1495
     16 C           1.2122    0.5063    0.9466 C.ar    1  UNL1        0.0193
     17 C           2.5521    0.5690    0.5347 C.ar    1  UNL1        0.1535
     18 F           3.4912    0.7749    1.4648 F       1  UNL1       -0.2033
     19 C           2.8894    0.4784   -0.7791 C.ar    1  UNL1        0.1451
     20 S           4.4719    0.4552   -1.4690 S.O2    1  UNL1        0.0763
     21 O           5.2431    1.6594   -0.8732 O.2     1  UNL1       -0.1498
     22 O           4.3615    0.8353   -2.9492 O.2     1  UNL1       -0.1498
     23 N           5.3649   -0.9557   -1.3260 N.pl3   1  UNL1       -0.1989
     24 C           5.8002   -1.5615   -0.1296 C.ar    1  UNL1        0.1449
     25 C           6.5263   -2.7489   -0.1503 C.ar    1  UNL1        0.0183
     26 S           6.8167   -3.0697    1.6068 S.2     1  UNL1       -0.0819
     27 C           5.8799   -1.4967    2.1043 C.ar    1  UNL1        0.0669
     28 N           5.5894   -1.1115    1.0844 N.ar    1  UNL1       -0.2315
     29 C           1.8267    0.3227   -1.6897 C.ar    1  UNL1       -0.0103
     30 C           0.5104    0.2617   -1.2844 C.ar    1  UNL1        0.0852
     31 CL         -0.7861    0.0380   -2.4717 Cl      1  UNL1       -0.0797
     32 H          -6.5714   -0.6507    0.7107 H       1  UNL1        0.0473
     33 H          -6.0272   -2.2424    0.0366 H       1  UNL1        0.0473
     34 H          -5.3804   -0.6667   -0.6282 H       1  UNL1        0.0473
     35 H          -3.1138   -2.5762    3.7312 H       1  UNL1        0.0848
     36 H          -1.9570   -0.3497    2.8621 H       1  UNL1        0.0654
     37 H          -5.4580    1.4749    0.6619 H       1  UNL1        0.0640
     38 H          -2.9026    4.0371   -1.5183 H       1  UNL1        0.0633
     39 H          -1.0149    2.5784   -1.0101 H       1  UNL1        0.0655
     40 H           1.0027    0.5834    2.0183 H       1  UNL1        0.0684
     41 H           5.6391   -1.4589   -2.2284 H       1  UNL1        0.1753
     42 H           6.8594   -3.3638   -0.9651 H       1  UNL1        0.0729
     43 H           5.8445   -1.3388    3.2506 H       1  UNL1        0.0908
     44 H           2.0386    0.2453   -2.7616 H       1  UNL1        0.0654
@<TRIPOS>BOND
     1     1     2    1
     2     2     3   ar
     3     3     4   ar
     4     4     5   ar
     5     5     6   ar
     6     6     7    1
     7     7     8   ar
     8     8     9   ar
     9     9    10    1
    10     9    11   ar
    11    11    12   ar
    12    12    13   ar
    13    13    14    1
    14    14    15    1
    15    15    16   ar
    16    16    17   ar
    17    17    18    1
    18    17    19   ar
    19    19    20    1
    20    20    21    2
    21    20    22    2
    22    20    23    1
    23    23    24    1
    24    24    25   ar
    25    25    26   ar
    26    26    27   ar
    27    27    28   ar
    28    19    29   ar
    29    29    30   ar
    30    30    31    1
    31     6     2   ar
    32    13     7   ar
    33    30    15   ar
    34    28    24   ar
    35     1    32    1
    36     1    33    1
    37     1    34    1
    38     4    35    1
    39     5    36    1
    40     8    37    1
    41    11    38    1
    42    12    39    1
    43    16    40    1
    44    23    41    1
    45    25    42    1
    46    27    43    1
    47    29    44    1
