
     RDKit          3D

 44 47  0  0  0  0  0  0  0  0999 V2000
   -5.7108   -1.1925    0.3053 C   0  0  0  0  0  0  0  0  0  0  0  0
   -4.6461   -1.2381    1.2703 N   0  0  0  0  0  0  0  0  0  0  0  0
   -4.5212   -2.1868    2.1783 N   0  0  0  0  0  0  0  0  0  0  0  0
   -3.4432   -1.9406    2.9091 C   0  0  0  0  0  0  0  0  0  0  0  0
   -2.8609   -0.7882    2.4448 C   0  0  0  0  0  0  0  0  0  0  0  0
   -3.6344   -0.3430    1.3966 C   0  0  0  0  0  0  0  0  0  0  0  0
   -3.4005    0.8508    0.5944 C   0  0  0  0  0  0  0  0  0  0  0  0
   -4.4497    1.6791    0.3084 C   0  0  0  0  0  0  0  0  0  0  0  0
   -4.2777    2.8257   -0.4504 C   0  0  0  0  0  0  0  0  0  0  0  0
   -5.6369    3.8553   -0.7939 Cl  0  0  0  0  0  0  0  0  0  0  0  0
   -3.0403    3.1510   -0.9309 C   0  0  0  0  0  0  0  0  0  0  0  0
   -1.9856    2.2997   -0.6314 C   0  0  0  0  0  0  0  0  0  0  0  0
   -2.1446    1.1561    0.1220 C   0  0  0  0  0  0  0  0  0  0  0  0
   -1.1381    0.2890    0.4395 O   0  0  0  0  0  0  0  0  0  0  0  0
    0.1812    0.3534    0.0495 C   0  0  0  0  0  0  0  0  0  0  0  0
    1.2122    0.5063    0.9466 C   0  0  0  0  0  0  0  0  0  0  0  0
    2.5521    0.5690    0.5347 C   0  0  0  0  0  0  0  0  0  0  0  0
    3.4912    0.7749    1.4648 F   0  0  0  0  0  0  0  0  0  0  0  0
    2.8894    0.4784   -0.7791 C   0  0  0  0  0  0  0  0  0  0  0  0
    4.4719    0.4552   -1.4690 S   0  0  0  0  0  6  0  0  0  0  0  0
    5.2431    1.6594   -0.8732 O   0  0  0  0  0  0  0  0  0  0  0  0
    4.3615    0.8353   -2.9492 O   0  0  0  0  0  0  0  0  0  0  0  0
    5.3649   -0.9557   -1.3260 N   0  0  0  0  0  0  0  0  0  0  0  0
    5.8002   -1.5615   -0.1296 C   0  0  0  0  0  0  0  0  0  0  0  0
    6.5263   -2.7489   -0.1503 C   0  0  0  0  0  0  0  0  0  0  0  0
    6.8167   -3.0697    1.6068 S   0  0  0  0  0  0  0  0  0  0  0  0
    5.8799   -1.4967    2.1043 C   0  0  0  0  0  0  0  0  0  0  0  0
    5.5894   -1.1115    1.0844 N   0  0  0  0  0  0  0  0  0  0  0  0
    1.8267    0.3227   -1.6897 C   0  0  0  0  0  0  0  0  0  0  0  0
    0.5104    0.2617   -1.2844 C   0  0  0  0  0  0  0  0  0  0  0  0
   -0.7861    0.0380   -2.4717 Cl  0  0  0  0  0  0  0  0  0  0  0  0
   -6.5714   -0.6507    0.7107 H   0  0  0  0  0  0  0  0  0  0  0  0
   -6.0272   -2.2424    0.0366 H   0  0  0  0  0  0  0  0  0  0  0  0
   -5.3804   -0.6667   -0.6282 H   0  0  0  0  0  0  0  0  0  0  0  0
   -3.1138   -2.5762    3.7312 H   0  0  0  0  0  0  0  0  0  0  0  0
   -1.9570   -0.3497    2.8621 H   0  0  0  0  0  0  0  0  0  0  0  0
   -5.4580    1.4749    0.6619 H   0  0  0  0  0  0  0  0  0  0  0  0
   -2.9026    4.0371   -1.5183 H   0  0  0  0  0  0  0  0  0  0  0  0
   -1.0149    2.5784   -1.0101 H   0  0  0  0  0  0  0  0  0  0  0  0
    1.0027    0.5834    2.0183 H   0  0  0  0  0  0  0  0  0  0  0  0
    5.6391   -1.4589   -2.2284 H   0  0  0  0  0  0  0  0  0  0  0  0
    6.8594   -3.3638   -0.9651 H   0  0  0  0  0  0  0  0  0  0  0  0
    5.8445   -1.3388    3.2506 H   0  0  0  0  0  0  0  0  0  0  0  0
    2.0386    0.2453   -2.7616 H   0  0  0  0  0  0  0  0  0  0  0  0
  1  2  1  0
  2  3  1  0
  3  4  2  0
  4  5  1  0
  5  6  2  0
  6  7  1  0
  7  8  2  0
  8  9  1  0
  9 10  1  0
  9 11  2  0
 11 12  1  0
 12 13  2  0
 13 14  1  0
 14 15  1  0
 15 16  2  0
 16 17  1  0
 17 18  1  0
 17 19  2  0
 19 20  1  0
 20 21  2  0
 20 22  2  0
 20 23  1  0
 23 24  1  0
 24 25  2  0
 25 26  1  0
 26 27  1  0
 27 28  2  0
 19 29  1  0
 29 30  2  0
 30 31  1  0
  6  2  1  0
 13  7  1  0
 30 15  1  0
 28 24  1  0
  1 32  1  0
  1 33  1  0
  1 34  1  0
  4 35  1  0
  5 36  1  0
  8 37  1  0
 11 38  1  0
 12 39  1  0
 16 40  1  0
 23 41  1  0
 25 42  1  0
 27 43  1  0
 29 44  1  0
M  END
$$$$
