@<TRIPOS>MOLECULE
*****
 47 50 0 0 0
SMALL
GASTEIGER

@<TRIPOS>ATOM
      1 C           5.2462   -3.2596    0.7625 C.3     1  UNL1        0.0790
      2 O           5.7710   -1.9704    0.4436 O.3     1  UNL1       -0.4913
      3 C           4.9176   -0.9009    0.1602 C.ar    1  UNL1        0.1650
      4 C           3.5469   -1.0314    0.1730 C.ar    1  UNL1        0.0267
      5 C           2.7075    0.0515   -0.1136 C.ar    1  UNL1        0.1429
      6 O           1.4184   -0.1004   -0.0942 O.2     1  UNL1       -0.4545
      7 C           0.5401    0.8578   -0.3498 C.ar    1  UNL1        0.1392
      8 C          -0.8892    0.5599   -0.2955 C.ar    1  UNL1        0.0175
      9 C          -1.2786   -0.7451    0.0290 C.ar    1  UNL1       -0.0493
     10 C          -2.6133   -1.0529    0.0872 C.ar    1  UNL1       -0.0400
     11 C          -3.5962   -0.0887   -0.1714 C.ar    1  UNL1        0.0297
     12 N          -4.9707   -0.4324   -0.1057 N.pl3   1  UNL1       -0.3299
     13 C          -5.5766   -1.7127    0.1883 C.3     1  UNL1        0.0122
     14 C          -6.6629   -1.3161    1.1685 C.3     1  UNL1       -0.0358
     15 C          -7.0262    0.0970    0.7909 C.3     1  UNL1       -0.0358
     16 C          -6.0582    0.4877   -0.3338 C.3     1  UNL1        0.0122
     17 C          -3.1603    1.1725   -0.4842 C.ar    1  UNL1       -0.0400
     18 C          -1.8146    1.5266   -0.5539 C.ar    1  UNL1       -0.0493
     19 C           1.0475    2.0963   -0.6558 C.ar    1  UNL1        0.0287
     20 C           2.4286    2.3099   -0.6894 C.ar    1  UNL1        0.1932
     21 O           2.8901    3.4470   -0.9704 O.2     1  UNL1       -0.2870
     22 C           3.2780    1.2704   -0.4137 C.ar    1  UNL1        0.0677
     23 C           4.6346    1.3856   -0.4228 C.ar    1  UNL1       -0.0020
     24 C           5.4842    0.3216   -0.1409 C.ar    1  UNL1        0.1624
     25 O           6.8616    0.4911   -0.1634 O.3     1  UNL1       -0.4914
     26 C           7.3903    1.7659   -0.4782 C.3     1  UNL1        0.0790
     27 H           5.9866   -3.8999    1.2405 H       1  UNL1        0.0660
     28 H           4.4054   -3.1534    1.5092 H       1  UNL1        0.0660
     29 H           4.7900   -3.6773   -0.1498 H       1  UNL1        0.0660
     30 H           3.1334   -1.9992    0.4117 H       1  UNL1        0.0692
     31 H          -0.5104   -1.4674    0.2232 H       1  UNL1        0.0625
     32 H          -2.9020   -2.0729    0.3411 H       1  UNL1        0.0636
     33 H          -4.8874   -2.4535    0.5965 H       1  UNL1        0.0464
     34 H          -6.0696   -2.0572   -0.7571 H       1  UNL1        0.0464
     35 H          -7.5333   -1.9872    1.1345 H       1  UNL1        0.0281
     36 H          -6.2331   -1.3216    2.2123 H       1  UNL1        0.0281
     37 H          -6.9007    0.8079    1.6445 H       1  UNL1        0.0281
     38 H          -8.0768    0.1982    0.4622 H       1  UNL1        0.0281
     39 H          -5.8035    1.5446   -0.2678 H       1  UNL1        0.0464
     40 H          -6.5215    0.2027   -1.3009 H       1  UNL1        0.0464
     41 H          -3.8683    1.9486   -0.6918 H       1  UNL1        0.0636
     42 H          -1.5530    2.5349   -0.8053 H       1  UNL1        0.0625
     43 H           0.3810    2.9175   -0.8735 H       1  UNL1        0.0693
     44 H           5.0758    2.3383   -0.6574 H       1  UNL1        0.0663
     45 H           6.9975    2.5686    0.1637 H       1  UNL1        0.0660
     46 H           8.4891    1.7836   -0.4545 H       1  UNL1        0.0660
     47 H           7.0849    2.0142   -1.5307 H       1  UNL1        0.0660
@<TRIPOS>BOND
     1     1     2    1
     2     2     3    1
     3     3     4   ar
     4     4     5   ar
     5     5     6   ar
     6     6     7   ar
     7     7     8    1
     8     8     9   ar
     9     9    10   ar
    10    10    11   ar
    11    11    12    1
    12    12    13    1
    13    13    14    1
    14    14    15    1
    15    15    16    1
    16    11    17   ar
    17    17    18   ar
    18     7    19   ar
    19    19    20   ar
    20    20    21    2
    21    20    22   ar
    22    22    23   ar
    23    23    24   ar
    24    24    25    1
    25    25    26    1
    26    24     3   ar
    27    22     5   ar
    28    18     8   ar
    29    16    12    1
    30     1    27    1
    31     1    28    1
    32     1    29    1
    33     4    30    1
    34     9    31    1
    35    10    32    1
    36    13    33    1
    37    13    34    1
    38    14    35    1
    39    14    36    1
    40    15    37    1
    41    15    38    1
    42    16    39    1
    43    16    40    1
    44    17    41    1
    45    18    42    1
    46    19    43    1
    47    23    44    1
    48    26    45    1
    49    26    46    1
    50    26    47    1
