
     RDKit          3D

 47 50  0  0  0  0  0  0  0  0999 V2000
    5.2462   -3.2596    0.7625 C   0  0  0  0  0  0  0  0  0  0  0  0
    5.7710   -1.9704    0.4436 O   0  0  0  0  0  0  0  0  0  0  0  0
    4.9176   -0.9009    0.1602 C   0  0  0  0  0  0  0  0  0  0  0  0
    3.5469   -1.0314    0.1730 C   0  0  0  0  0  0  0  0  0  0  0  0
    2.7075    0.0515   -0.1136 C   0  0  0  0  0  0  0  0  0  0  0  0
    1.4184   -0.1004   -0.0942 O   0  0  0  0  0  0  0  0  0  0  0  0
    0.5401    0.8578   -0.3498 C   0  0  0  0  0  0  0  0  0  0  0  0
   -0.8892    0.5599   -0.2955 C   0  0  0  0  0  0  0  0  0  0  0  0
   -1.2786   -0.7451    0.0290 C   0  0  0  0  0  0  0  0  0  0  0  0
   -2.6133   -1.0529    0.0872 C   0  0  0  0  0  0  0  0  0  0  0  0
   -3.5962   -0.0887   -0.1714 C   0  0  0  0  0  0  0  0  0  0  0  0
   -4.9707   -0.4324   -0.1057 N   0  0  0  0  0  0  0  0  0  0  0  0
   -5.5766   -1.7127    0.1883 C   0  0  0  0  0  0  0  0  0  0  0  0
   -6.6629   -1.3161    1.1685 C   0  0  0  0  0  0  0  0  0  0  0  0
   -7.0262    0.0970    0.7909 C   0  0  0  0  0  0  0  0  0  0  0  0
   -6.0582    0.4877   -0.3338 C   0  0  0  0  0  0  0  0  0  0  0  0
   -3.1603    1.1725   -0.4842 C   0  0  0  0  0  0  0  0  0  0  0  0
   -1.8146    1.5266   -0.5539 C   0  0  0  0  0  0  0  0  0  0  0  0
    1.0475    2.0963   -0.6558 C   0  0  0  0  0  0  0  0  0  0  0  0
    2.4286    2.3099   -0.6894 C   0  0  0  0  0  0  0  0  0  0  0  0
    2.8901    3.4470   -0.9704 O   0  0  0  0  0  0  0  0  0  0  0  0
    3.2780    1.2704   -0.4137 C   0  0  0  0  0  0  0  0  0  0  0  0
    4.6346    1.3856   -0.4228 C   0  0  0  0  0  0  0  0  0  0  0  0
    5.4842    0.3216   -0.1409 C   0  0  0  0  0  0  0  0  0  0  0  0
    6.8616    0.4911   -0.1634 O   0  0  0  0  0  0  0  0  0  0  0  0
    7.3903    1.7659   -0.4782 C   0  0  0  0  0  0  0  0  0  0  0  0
    5.9866   -3.8999    1.2405 H   0  0  0  0  0  0  0  0  0  0  0  0
    4.4054   -3.1534    1.5092 H   0  0  0  0  0  0  0  0  0  0  0  0
    4.7900   -3.6773   -0.1498 H   0  0  0  0  0  0  0  0  0  0  0  0
    3.1334   -1.9992    0.4117 H   0  0  0  0  0  0  0  0  0  0  0  0
   -0.5104   -1.4674    0.2232 H   0  0  0  0  0  0  0  0  0  0  0  0
   -2.9020   -2.0729    0.3411 H   0  0  0  0  0  0  0  0  0  0  0  0
   -4.8874   -2.4535    0.5965 H   0  0  0  0  0  0  0  0  0  0  0  0
   -6.0696   -2.0572   -0.7571 H   0  0  0  0  0  0  0  0  0  0  0  0
   -7.5333   -1.9872    1.1345 H   0  0  0  0  0  0  0  0  0  0  0  0
   -6.2331   -1.3216    2.2123 H   0  0  0  0  0  0  0  0  0  0  0  0
   -6.9007    0.8079    1.6445 H   0  0  0  0  0  0  0  0  0  0  0  0
   -8.0768    0.1982    0.4622 H   0  0  0  0  0  0  0  0  0  0  0  0
   -5.8035    1.5446   -0.2678 H   0  0  0  0  0  0  0  0  0  0  0  0
   -6.5215    0.2027   -1.3009 H   0  0  0  0  0  0  0  0  0  0  0  0
   -3.8683    1.9486   -0.6918 H   0  0  0  0  0  0  0  0  0  0  0  0
   -1.5530    2.5349   -0.8053 H   0  0  0  0  0  0  0  0  0  0  0  0
    0.3810    2.9175   -0.8735 H   0  0  0  0  0  0  0  0  0  0  0  0
    5.0758    2.3383   -0.6574 H   0  0  0  0  0  0  0  0  0  0  0  0
    6.9975    2.5686    0.1637 H   0  0  0  0  0  0  0  0  0  0  0  0
    8.4891    1.7836   -0.4545 H   0  0  0  0  0  0  0  0  0  0  0  0
    7.0849    2.0142   -1.5307 H   0  0  0  0  0  0  0  0  0  0  0  0
  1  2  1  0
  2  3  1  0
  3  4  2  0
  4  5  1  0
  5  6  1  0
  6  7  1  0
  7  8  1  0
  8  9  2  0
  9 10  1  0
 10 11  2  0
 11 12  1  0
 12 13  1  0
 13 14  1  0
 14 15  1  0
 15 16  1  0
 11 17  1  0
 17 18  2  0
  7 19  2  0
 19 20  1  0
 20 21  2  0
 20 22  1  0
 22 23  1  0
 23 24  2  0
 24 25  1  0
 25 26  1  0
 24  3  1  0
 22  5  2  0
 18  8  1  0
 16 12  1  0
  1 27  1  0
  1 28  1  0
  1 29  1  0
  4 30  1  0
  9 31  1  0
 10 32  1  0
 13 33  1  0
 13 34  1  0
 14 35  1  0
 14 36  1  0
 15 37  1  0
 15 38  1  0
 16 39  1  0
 16 40  1  0
 17 41  1  0
 18 42  1  0
 19 43  1  0
 23 44  1  0
 26 45  1  0
 26 46  1  0
 26 47  1  0
M  END
$$$$
