@<TRIPOS>MOLECULE
*****
 54 55 0 0 0
SMALL
GASTEIGER

@<TRIPOS>ATOM
      1 C          -4.3777   -2.0742   -0.8520 C.3     1  UNL1       -0.0370
      2 C          -3.5168   -1.7464    0.3254 C.3     1  UNL1        0.0766
      3 C          -3.3250   -3.0214    1.1112 C.3     1  UNL1       -0.0370
      4 O          -2.3318   -1.1162    0.0143 O.3     1  UNL1       -0.2731
      5 N          -2.0653    0.0309    0.5191 N.3     1  UNL1       -0.0419
      6 C          -1.8784    1.1975   -0.2567 C.3     1  UNL1        0.1387
      7 C          -1.2805    1.0099   -1.5935 C.2     1  UNL1        0.2570
      8 O          -1.2612    1.9731   -2.4397 O.2     1  UNL1       -0.2718
      9 N          -0.7031   -0.1935   -2.0310 N.am    1  UNL1       -0.1961
     10 O          -0.1659   -0.3001   -3.2913 O.3     1  UNL1       -0.2951
     11 C          -3.0776    2.1255   -0.2530 C.3     1  UNL1       -0.0185
     12 C          -4.3285    1.5323   -0.7903 C.3     1  UNL1       -0.0607
     13 C          -2.7224    3.3906   -0.9540 C.3     1  UNL1       -0.0607
     14 S          -1.0944   -0.0685    1.9147 S.O2    1  UNL1        0.0832
     15 O          -1.3102    1.2187    2.7001 O.2     1  UNL1       -0.1509
     16 O          -1.4603   -1.1921    2.8137 O.2     1  UNL1       -0.1509
     17 C           0.6227   -0.0874    1.5189 C.ar    1  UNL1        0.1077
     18 C           1.2745   -1.2820    1.2917 C.ar    1  UNL1       -0.0347
     19 C           2.6261   -1.3280    0.9776 C.ar    1  UNL1       -0.0522
     20 C           3.3528   -0.1745    0.8849 C.ar    1  UNL1       -0.0178
     21 C           4.7913   -0.2033    0.5513 C.ar    1  UNL1       -0.0179
     22 C           5.3041   -1.1878   -0.2784 C.ar    1  UNL1       -0.0540
     23 C           6.6408   -1.2494   -0.6137 C.ar    1  UNL1       -0.0612
     24 C           7.4940   -0.3051   -0.1101 C.ar    1  UNL1       -0.0617
     25 C           7.0160    0.6841    0.7156 C.ar    1  UNL1       -0.0612
     26 C           5.6754    0.7319    1.0416 C.ar    1  UNL1       -0.0540
     27 C           2.7296    1.0303    1.1063 C.ar    1  UNL1       -0.0522
     28 C           1.3669    1.0662    1.4223 C.ar    1  UNL1       -0.0347
     29 H          -5.1041   -1.2496   -0.9914 H       1  UNL1        0.0255
     30 H          -3.8110   -2.1899   -1.7961 H       1  UNL1        0.0255
     31 H          -5.0001   -2.9823   -0.6375 H       1  UNL1        0.0255
     32 H          -4.0877   -1.0652    0.9910 H       1  UNL1        0.0611
     33 H          -3.9325   -3.8604    0.7145 H       1  UNL1        0.0255
     34 H          -3.5942   -2.9233    2.1778 H       1  UNL1        0.0255
     35 H          -2.2683   -3.3746    1.0814 H       1  UNL1        0.0255
     36 H          -1.0832    1.8291    0.2845 H       1  UNL1        0.0604
     37 H          -0.6451   -1.0283   -1.4504 H       1  UNL1        0.1822
     38 H          -0.4429    0.4614   -3.8534 H       1  UNL1        0.2414
     39 H          -3.2696    2.3101    0.8511 H       1  UNL1        0.0317
     40 H          -4.9958    2.3880   -1.1008 H       1  UNL1        0.0233
     41 H          -4.9064    0.9482   -0.0586 H       1  UNL1        0.0233
     42 H          -4.1586    0.9660   -1.7436 H       1  UNL1        0.0233
     43 H          -1.6491    3.6510   -0.8951 H       1  UNL1        0.0233
     44 H          -3.0720    3.3441   -1.9944 H       1  UNL1        0.0233
     45 H          -3.3014    4.2126   -0.4342 H       1  UNL1        0.0233
     46 H           0.7104   -2.1989    1.3621 H       1  UNL1        0.0637
     47 H           3.1071   -2.2822    0.8051 H       1  UNL1        0.0624
     48 H           4.6122   -1.9350   -0.6734 H       1  UNL1        0.0624
     49 H           7.0400   -2.0302   -1.2705 H       1  UNL1        0.0618
     50 H           8.5506   -0.3350   -0.3615 H       1  UNL1        0.0618
     51 H           7.7227    1.4135    1.0944 H       1  UNL1        0.0618
     52 H           5.3396    1.5148    1.6858 H       1  UNL1        0.0624
     53 H           3.3230    1.9403    1.0284 H       1  UNL1        0.0624
     54 H           0.9212    2.0144    1.5866 H       1  UNL1        0.0637
@<TRIPOS>BOND
     1     1     2    1
     2     2     3    1
     3     2     4    1
     4     4     5    1
     5     5     6    1
     6     6     7    1
     7     7     8    2
     8     7     9   am
     9     9    10    1
    10     6    11    1
    11    11    12    1
    12    11    13    1
    13     5    14    1
    14    14    15    2
    15    14    16    2
    16    14    17    1
    17    17    18   ar
    18    18    19   ar
    19    19    20   ar
    20    20    21    1
    21    21    22   ar
    22    22    23   ar
    23    23    24   ar
    24    24    25   ar
    25    25    26   ar
    26    20    27   ar
    27    27    28   ar
    28    28    17   ar
    29    26    21   ar
    30     1    29    1
    31     1    30    1
    32     1    31    1
    33     2    32    1
    34     3    33    1
    35     3    34    1
    36     3    35    1
    37     6    36    1
    38     9    37    1
    39    10    38    1
    40    11    39    1
    41    12    40    1
    42    12    41    1
    43    12    42    1
    44    13    43    1
    45    13    44    1
    46    13    45    1
    47    18    46    1
    48    19    47    1
    49    22    48    1
    50    23    49    1
    51    24    50    1
    52    25    51    1
    53    26    52    1
    54    27    53    1
    55    28    54    1
