
     RDKit          3D

 54 55  0  0  0  0  0  0  0  0999 V2000
   -4.3777   -2.0742   -0.8520 C   0  0  0  0  0  0  0  0  0  0  0  0
   -3.5168   -1.7464    0.3254 C   0  0  0  0  0  0  0  0  0  0  0  0
   -3.3250   -3.0214    1.1112 C   0  0  0  0  0  0  0  0  0  0  0  0
   -2.3318   -1.1162    0.0143 O   0  0  0  0  0  0  0  0  0  0  0  0
   -2.0653    0.0309    0.5191 N   0  0  0  0  0  0  0  0  0  0  0  0
   -1.8784    1.1975   -0.2567 C   0  0  1  0  0  0  0  0  0  0  0  0
   -1.2805    1.0099   -1.5935 C   0  0  0  0  0  0  0  0  0  0  0  0
   -1.2612    1.9731   -2.4397 O   0  0  0  0  0  0  0  0  0  0  0  0
   -0.7031   -0.1935   -2.0310 N   0  0  0  0  0  0  0  0  0  0  0  0
   -0.1659   -0.3001   -3.2913 O   0  0  0  0  0  0  0  0  0  0  0  0
   -3.0776    2.1255   -0.2530 C   0  0  0  0  0  0  0  0  0  0  0  0
   -4.3285    1.5323   -0.7903 C   0  0  0  0  0  0  0  0  0  0  0  0
   -2.7224    3.3906   -0.9540 C   0  0  0  0  0  0  0  0  0  0  0  0
   -1.0944   -0.0685    1.9147 S   0  0  0  0  0  6  0  0  0  0  0  0
   -1.3102    1.2187    2.7001 O   0  0  0  0  0  0  0  0  0  0  0  0
   -1.4603   -1.1921    2.8137 O   0  0  0  0  0  0  0  0  0  0  0  0
    0.6227   -0.0874    1.5189 C   0  0  0  0  0  0  0  0  0  0  0  0
    1.2745   -1.2820    1.2917 C   0  0  0  0  0  0  0  0  0  0  0  0
    2.6261   -1.3280    0.9776 C   0  0  0  0  0  0  0  0  0  0  0  0
    3.3528   -0.1745    0.8849 C   0  0  0  0  0  0  0  0  0  0  0  0
    4.7913   -0.2033    0.5513 C   0  0  0  0  0  0  0  0  0  0  0  0
    5.3041   -1.1878   -0.2784 C   0  0  0  0  0  0  0  0  0  0  0  0
    6.6408   -1.2494   -0.6137 C   0  0  0  0  0  0  0  0  0  0  0  0
    7.4940   -0.3051   -0.1101 C   0  0  0  0  0  0  0  0  0  0  0  0
    7.0160    0.6841    0.7156 C   0  0  0  0  0  0  0  0  0  0  0  0
    5.6754    0.7319    1.0416 C   0  0  0  0  0  0  0  0  0  0  0  0
    2.7296    1.0303    1.1063 C   0  0  0  0  0  0  0  0  0  0  0  0
    1.3669    1.0662    1.4223 C   0  0  0  0  0  0  0  0  0  0  0  0
   -5.1041   -1.2496   -0.9914 H   0  0  0  0  0  0  0  0  0  0  0  0
   -3.8110   -2.1899   -1.7961 H   0  0  0  0  0  0  0  0  0  0  0  0
   -5.0001   -2.9823   -0.6375 H   0  0  0  0  0  0  0  0  0  0  0  0
   -4.0877   -1.0652    0.9910 H   0  0  0  0  0  0  0  0  0  0  0  0
   -3.9325   -3.8604    0.7145 H   0  0  0  0  0  0  0  0  0  0  0  0
   -3.5942   -2.9233    2.1778 H   0  0  0  0  0  0  0  0  0  0  0  0
   -2.2683   -3.3746    1.0814 H   0  0  0  0  0  0  0  0  0  0  0  0
   -1.0832    1.8291    0.2845 H   0  0  0  0  0  0  0  0  0  0  0  0
   -0.6451   -1.0283   -1.4504 H   0  0  0  0  0  0  0  0  0  0  0  0
   -0.4429    0.4614   -3.8534 H   0  0  0  0  0  0  0  0  0  0  0  0
   -3.2696    2.3101    0.8511 H   0  0  0  0  0  0  0  0  0  0  0  0
   -4.9958    2.3880   -1.1008 H   0  0  0  0  0  0  0  0  0  0  0  0
   -4.9064    0.9482   -0.0586 H   0  0  0  0  0  0  0  0  0  0  0  0
   -4.1586    0.9660   -1.7436 H   0  0  0  0  0  0  0  0  0  0  0  0
   -1.6491    3.6510   -0.8951 H   0  0  0  0  0  0  0  0  0  0  0  0
   -3.0720    3.3441   -1.9944 H   0  0  0  0  0  0  0  0  0  0  0  0
   -3.3014    4.2126   -0.4342 H   0  0  0  0  0  0  0  0  0  0  0  0
    0.7104   -2.1989    1.3621 H   0  0  0  0  0  0  0  0  0  0  0  0
    3.1071   -2.2822    0.8051 H   0  0  0  0  0  0  0  0  0  0  0  0
    4.6122   -1.9350   -0.6734 H   0  0  0  0  0  0  0  0  0  0  0  0
    7.0400   -2.0302   -1.2705 H   0  0  0  0  0  0  0  0  0  0  0  0
    8.5506   -0.3350   -0.3615 H   0  0  0  0  0  0  0  0  0  0  0  0
    7.7227    1.4135    1.0944 H   0  0  0  0  0  0  0  0  0  0  0  0
    5.3396    1.5148    1.6858 H   0  0  0  0  0  0  0  0  0  0  0  0
    3.3230    1.9403    1.0284 H   0  0  0  0  0  0  0  0  0  0  0  0
    0.9212    2.0144    1.5866 H   0  0  0  0  0  0  0  0  0  0  0  0
  1  2  1  0
  2  3  1  0
  2  4  1  0
  4  5  1  0
  5  6  1  0
  6  7  1  0
  7  8  2  0
  7  9  1  0
  9 10  1  0
  6 11  1  0
 11 12  1  0
 11 13  1  0
  5 14  1  0
 14 15  2  0
 14 16  2  0
 14 17  1  0
 17 18  2  0
 18 19  1  0
 19 20  2  0
 20 21  1  0
 21 22  2  0
 22 23  1  0
 23 24  2  0
 24 25  1  0
 25 26  2  0
 20 27  1  0
 27 28  2  0
 28 17  1  0
 26 21  1  0
  1 29  1  0
  1 30  1  0
  1 31  1  0
  2 32  1  0
  3 33  1  0
  3 34  1  0
  3 35  1  0
  6 36  1  1
  9 37  1  0
 10 38  1  0
 11 39  1  0
 12 40  1  0
 12 41  1  0
 12 42  1  0
 13 43  1  0
 13 44  1  0
 13 45  1  0
 18 46  1  0
 19 47  1  0
 22 48  1  0
 23 49  1  0
 24 50  1  0
 25 51  1  0
 26 52  1  0
 27 53  1  0
 28 54  1  0
M  END
$$$$
