
     RDKit          3D

 42 42  0  0  0  0  0  0  0  0999 V2000
    7.0092    0.6538   -0.1338 O   0  0  0  0  0  0  0  0  0  0  0  0
    5.7736    0.5483   -0.7490 C   0  0  0  0  0  0  0  0  0  0  0  0
    5.4875    1.5386   -1.4896 O   0  0  0  0  0  0  0  0  0  0  0  0
    5.1366   -0.7313   -0.3441 C   0  0  0  0  0  0  0  0  0  0  0  0
    3.7855   -0.8658   -0.9902 C   0  0  0  0  0  0  0  0  0  0  0  0
    2.8388    0.2220   -0.6160 C   0  0  0  0  0  0  0  0  0  0  0  0
    2.5567    0.3081    0.8564 C   0  0  0  0  0  0  0  0  0  0  0  0
    1.9515   -0.9374    1.4225 C   0  0  0  0  0  0  0  0  0  0  0  0
    0.6834   -1.2958    0.8164 N   0  0  0  0  0  0  0  0  0  0  0  0
   -0.4130   -0.4163    0.8744 C   0  0  0  0  0  0  0  0  0  0  0  0
   -0.3953    0.7113    1.4323 O   0  0  0  0  0  0  0  0  0  0  0  0
   -1.6976   -0.7123    0.2932 N   0  0  0  0  0  0  0  0  0  0  0  0
   -2.8260    0.2067    0.3596 C   0  0  0  0  0  0  0  0  0  0  0  0
   -4.0473   -0.4000    0.9938 C   0  0  0  0  0  0  0  0  0  0  0  0
   -5.1581   -0.4324   -0.0153 C   0  0  0  0  0  0  0  0  0  0  0  0
   -5.4359    0.8936   -0.6518 C   0  0  0  0  0  0  0  0  0  0  0  0
   -4.2173    1.5989   -1.1815 C   0  0  0  0  0  0  0  0  0  0  0  0
   -3.0676    0.6291   -1.0924 C   0  0  0  0  0  0  0  0  0  0  0  0
    7.6086    1.4841   -0.2588 H   0  0  0  0  0  0  0  0  0  0  0  0
    5.7477   -1.5881   -0.7109 H   0  0  0  0  0  0  0  0  0  0  0  0
    5.0977   -0.8132    0.7517 H   0  0  0  0  0  0  0  0  0  0  0  0
    3.3664   -1.8802   -0.9024 H   0  0  0  0  0  0  0  0  0  0  0  0
    3.9750   -0.7426   -2.0976 H   0  0  0  0  0  0  0  0  0  0  0  0
    3.2619    1.1925   -0.9397 H   0  0  0  0  0  0  0  0  0  0  0  0
    1.9056    0.1096   -1.2191 H   0  0  0  0  0  0  0  0  0  0  0  0
    3.5116    0.4689    1.3832 H   0  0  0  0  0  0  0  0  0  0  0  0
    1.8684    1.1475    1.0273 H   0  0  0  0  0  0  0  0  0  0  0  0
    1.7775   -0.7192    2.5172 H   0  0  0  0  0  0  0  0  0  0  0  0
    2.6496   -1.7978    1.4270 H   0  0  0  0  0  0  0  0  0  0  0  0
    0.5052   -2.1993    0.3136 H   0  0  0  0  0  0  0  0  0  0  0  0
   -1.8207   -1.6364   -0.2009 H   0  0  0  0  0  0  0  0  0  0  0  0
   -2.5199    1.1138    0.9072 H   0  0  0  0  0  0  0  0  0  0  0  0
   -3.8427   -1.4254    1.3241 H   0  0  0  0  0  0  0  0  0  0  0  0
   -4.3677    0.1813    1.8944 H   0  0  0  0  0  0  0  0  0  0  0  0
   -6.0746   -0.7252    0.5353 H   0  0  0  0  0  0  0  0  0  0  0  0
   -4.9922   -1.2048   -0.7744 H   0  0  0  0  0  0  0  0  0  0  0  0
   -6.1065    0.7132   -1.5253 H   0  0  0  0  0  0  0  0  0  0  0  0
   -5.9327    1.5521    0.0914 H   0  0  0  0  0  0  0  0  0  0  0  0
   -3.9492    2.4856   -0.5724 H   0  0  0  0  0  0  0  0  0  0  0  0
   -4.3049    1.8974   -2.2416 H   0  0  0  0  0  0  0  0  0  0  0  0
   -2.1170    1.1477   -1.3822 H   0  0  0  0  0  0  0  0  0  0  0  0
   -3.2119   -0.2807   -1.6816 H   0  0  0  0  0  0  0  0  0  0  0  0
  1  2  1  0
  2  3  2  0
  2  4  1  0
  4  5  1  0
  5  6  1  0
  6  7  1  0
  7  8  1  0
  8  9  1  0
  9 10  1  0
 10 11  2  0
 10 12  1  0
 12 13  1  0
 13 14  1  0
 14 15  1  0
 15 16  1  0
 16 17  1  0
 17 18  1  0
 18 13  1  0
  1 19  1  0
  4 20  1  0
  4 21  1  0
  5 22  1  0
  5 23  1  0
  6 24  1  0
  6 25  1  0
  7 26  1  0
  7 27  1  0
  8 28  1  0
  8 29  1  0
  9 30  1  0
 12 31  1  0
 13 32  1  0
 14 33  1  0
 14 34  1  0
 15 35  1  0
 15 36  1  0
 16 37  1  0
 16 38  1  0
 17 39  1  0
 17 40  1  0
 18 41  1  0
 18 42  1  0
M  END
$$$$
