@<TRIPOS>MOLECULE
*****
 42 42 0 0 0
SMALL
GASTEIGER

@<TRIPOS>ATOM
      1 O           7.0092    0.6538   -0.1338 O.3     1  UNL1       -0.4806
      2 C           5.7736    0.5483   -0.7490 C.2     1  UNL1        0.3047
      3 O           5.4875    1.5386   -1.4896 O.2     1  UNL1       -0.2510
      4 C           5.1366   -0.7313   -0.3441 C.3     1  UNL1        0.0448
      5 C           3.7855   -0.8658   -0.9902 C.3     1  UNL1       -0.0429
      6 C           2.8388    0.2220   -0.6160 C.3     1  UNL1       -0.0511
      7 C           2.5567    0.3081    0.8564 C.3     1  UNL1       -0.0373
      8 C           1.9515   -0.9374    1.4225 C.3     1  UNL1        0.0131
      9 N           0.6834   -1.2958    0.8164 N.am    1  UNL1       -0.2994
     10 C          -0.4130   -0.4163    0.8744 C.2     1  UNL1        0.2999
     11 O          -0.3953    0.7113    1.4323 O.2     1  UNL1       -0.2529
     12 N          -1.6976   -0.7123    0.2932 N.am    1  UNL1       -0.2966
     13 C          -2.8260    0.2067    0.3596 C.3     1  UNL1        0.0246
     14 C          -4.0473   -0.4000    0.9938 C.3     1  UNL1       -0.0345
     15 C          -5.1581   -0.4324   -0.0153 C.3     1  UNL1       -0.0514
     16 C          -5.4359    0.8936   -0.6518 C.3     1  UNL1       -0.0529
     17 C          -4.2173    1.5989   -1.1815 C.3     1  UNL1       -0.0514
     18 C          -3.0676    0.6291   -1.0924 C.3     1  UNL1       -0.0345
     19 H           7.6086    1.4841   -0.2588 H       1  UNL1        0.2951
     20 H           5.7477   -1.5881   -0.7109 H       1  UNL1        0.0377
     21 H           5.0977   -0.8132    0.7517 H       1  UNL1        0.0377
     22 H           3.3664   -1.8802   -0.9024 H       1  UNL1        0.0270
     23 H           3.9750   -0.7426   -2.0976 H       1  UNL1        0.0270
     24 H           3.2619    1.1925   -0.9397 H       1  UNL1        0.0266
     25 H           1.9056    0.1096   -1.2191 H       1  UNL1        0.0266
     26 H           3.5116    0.4689    1.3832 H       1  UNL1        0.0280
     27 H           1.8684    1.1475    1.0273 H       1  UNL1        0.0280
     28 H           1.7775   -0.7192    2.5172 H       1  UNL1        0.0462
     29 H           2.6496   -1.7978    1.4270 H       1  UNL1        0.0462
     30 H           0.5052   -2.1993    0.3136 H       1  UNL1        0.1502
     31 H          -1.8207   -1.6364   -0.2009 H       1  UNL1        0.1505
     32 H          -2.5199    1.1138    0.9072 H       1  UNL1        0.0499
     33 H          -3.8427   -1.4254    1.3241 H       1  UNL1        0.0283
     34 H          -4.3677    0.1813    1.8944 H       1  UNL1        0.0283
     35 H          -6.0746   -0.7252    0.5353 H       1  UNL1        0.0266
     36 H          -4.9922   -1.2048   -0.7744 H       1  UNL1        0.0266
     37 H          -6.1065    0.7132   -1.5253 H       1  UNL1        0.0265
     38 H          -5.9327    1.5521    0.0914 H       1  UNL1        0.0265
     39 H          -3.9492    2.4856   -0.5724 H       1  UNL1        0.0266
     40 H          -4.3049    1.8974   -2.2416 H       1  UNL1        0.0266
     41 H          -2.1170    1.1477   -1.3822 H       1  UNL1        0.0283
     42 H          -3.2119   -0.2807   -1.6816 H       1  UNL1        0.0283
@<TRIPOS>BOND
     1     1     2    1
     2     2     3    2
     3     2     4    1
     4     4     5    1
     5     5     6    1
     6     6     7    1
     7     7     8    1
     8     8     9    1
     9     9    10   am
    10    10    11    2
    11    10    12   am
    12    12    13    1
    13    13    14    1
    14    14    15    1
    15    15    16    1
    16    16    17    1
    17    17    18    1
    18    18    13    1
    19     1    19    1
    20     4    20    1
    21     4    21    1
    22     5    22    1
    23     5    23    1
    24     6    24    1
    25     6    25    1
    26     7    26    1
    27     7    27    1
    28     8    28    1
    29     8    29    1
    30     9    30    1
    31    12    31    1
    32    13    32    1
    33    14    33    1
    34    14    34    1
    35    15    35    1
    36    15    36    1
    37    16    37    1
    38    16    38    1
    39    17    39    1
    40    17    40    1
    41    18    41    1
    42    18    42    1
