@<TRIPOS>MOLECULE
*****
 80 85 0 0 0
SMALL
GASTEIGER

@<TRIPOS>ATOM
      1 C          -4.2407   -8.0561    0.2609 C.3     1  UNL1        0.0804
      2 O          -3.6007   -6.8577   -0.0473 O.3     1  UNL1       -0.4795
      3 C          -3.4404   -5.8084    0.8470 C.ar    1  UNL1        0.2191
      4 C          -2.7953   -4.6397    0.4861 C.ar    1  UNL1        0.0404
      5 C          -2.6259   -3.5883    1.3561 C.ar    1  UNL1        0.1364
      6 N          -1.9721   -2.3821    1.0180 N.am    1  UNL1       -0.2240
      7 C          -0.5609   -2.1201    1.1721 C.2     1  UNL1        0.3219
      8 O           0.2089   -2.7007    2.0089 O.2     1  UNL1       -0.2512
      9 N          -0.1781   -1.1126    0.2397 N.am    1  UNL1       -0.1920
     10 C           1.1147   -0.5387    0.0389 C.ar    1  UNL1        0.0455
     11 C           1.5287    0.5813    0.7297 C.ar    1  UNL1       -0.0392
     12 C           2.7747    1.0817    0.4925 C.ar    1  UNL1       -0.0523
     13 C           3.6288    0.4864   -0.4273 C.ar    1  UNL1       -0.0178
     14 C           4.9612    1.0422   -0.6639 C.ar    1  UNL1       -0.0178
     15 C           5.5139    0.9168   -1.9033 C.ar    1  UNL1       -0.0533
     16 C           6.7829    1.4241   -2.2034 C.ar    1  UNL1       -0.0491
     17 C           7.4896    2.0688   -1.2111 C.ar    1  UNL1        0.0369
     18 C           8.8148    2.6187   -1.4596 C.2     1  UNL1        0.2461
     19 O           8.9982    3.4961   -2.3555 O.2     1  UNL1       -0.2700
     20 N           9.9027    2.1595   -0.6846 N.am    1  UNL1       -0.3036
     21 C           9.6799    1.1600    0.3316 C.3     1  UNL1        0.0031
     22 C          11.2360    2.6950   -0.9136 C.3     1  UNL1        0.0031
     23 C           6.9093    2.1839    0.0376 C.ar    1  UNL1       -0.0491
     24 C           5.6702    1.6859    0.3219 C.ar    1  UNL1       -0.0533
     25 C           3.2348   -0.6329   -1.1278 C.ar    1  UNL1       -0.0523
     26 C           1.9575   -1.1303   -0.8720 C.ar    1  UNL1       -0.0392
     27 C          -1.3863   -0.7807   -0.4715 C.2     1  UNL1        0.2516
     28 O          -1.4436   -0.2879   -1.6270 O.2     1  UNL1       -0.2724
     29 C          -2.4942   -1.1502    0.4609 C.3     1  UNL1        0.1240
     30 C          -2.5219   -0.1156    1.5737 C.3     1  UNL1       -0.0095
     31 C          -3.9630    0.1158    1.9254 C.3     1  UNL1        0.0017
     32 N          -4.6957    0.7362    0.8597 N.3     1  UNL1       -0.2965
     33 C          -4.3179    2.1426    0.8089 C.3     1  UNL1        0.0415
     34 C          -5.0290    2.8822   -0.2556 C.ar    1  UNL1        0.0581
     35 N          -4.3959    3.2017   -1.3903 N.ar    1  UNL1       -0.2583
     36 C          -4.9806    3.8640   -2.3823 C.ar    1  UNL1        0.0279
     37 C          -6.2852    4.2470   -2.2636 C.ar    1  UNL1       -0.0433
     38 C          -6.9944    3.9569   -1.1369 C.ar    1  UNL1       -0.0557
     39 C          -6.3500    3.2629   -0.1200 C.ar    1  UNL1       -0.0279
     40 C          -7.1193    2.9508    1.0972 C.3     1  UNL1       -0.0380
     41 C          -4.3748    0.1150   -0.4167 C.3     1  UNL1        0.0017
     42 C          -3.8118   -1.2970   -0.2212 C.3     1  UNL1       -0.0095
     43 N          -3.1134   -3.7206    2.6017 N.ar    1  UNL1       -0.2200
     44 C          -3.7488   -4.8456    2.9913 C.ar    1  UNL1        0.1219
     45 N          -3.9032   -5.8594    2.1266 N.ar    1  UNL1       -0.2013
     46 H          -3.4806   -8.8745    0.3166 H       1  UNL1        0.0660
     47 H          -4.9138   -8.3164   -0.5822 H       1  UNL1        0.0660
     48 H          -4.8388   -7.9795    1.1992 H       1  UNL1        0.0660
     49 H          -2.4096   -4.5420   -0.5086 H       1  UNL1        0.0705
     50 H           0.8411    1.0089    1.4287 H       1  UNL1        0.0636
     51 H           3.1235    1.9643    1.0247 H       1  UNL1        0.0624
     52 H           5.0071    0.4235   -2.7130 H       1  UNL1        0.0624
     53 H           7.1941    1.3090   -3.1949 H       1  UNL1        0.0625
     54 H           9.5329    1.5996    1.3404 H       1  UNL1        0.0428
     55 H          10.5784    0.4781    0.3106 H       1  UNL1        0.0428
     56 H           8.7706    0.5643    0.0878 H       1  UNL1        0.0428
     57 H          11.5931    3.2773   -0.0395 H       1  UNL1        0.0428
     58 H          11.9010    1.8426   -1.0819 H       1  UNL1        0.0428
     59 H          11.2300    3.3212   -1.8341 H       1  UNL1        0.0428
     60 H           7.4404    2.6922    0.8579 H       1  UNL1        0.0625
     61 H           5.1909    1.7654    1.3029 H       1  UNL1        0.0624
     62 H           3.8683   -1.1342   -1.8579 H       1  UNL1        0.0624
     63 H           1.6741   -2.0086   -1.4353 H       1  UNL1        0.0636
     64 H          -1.9970    0.7839    1.2462 H       1  UNL1        0.0303
     65 H          -1.9789   -0.4888    2.4744 H       1  UNL1        0.0303
     66 H          -3.9834    0.7786    2.8130 H       1  UNL1        0.0427
     67 H          -4.4350   -0.8742    2.1191 H       1  UNL1        0.0427
     68 H          -4.5713    2.5621    1.8075 H       1  UNL1        0.0491
     69 H          -3.2372    2.2929    0.6687 H       1  UNL1        0.0491
     70 H          -4.4107    4.0993   -3.2910 H       1  UNL1        0.0829
     71 H          -6.7501    4.7882   -3.0829 H       1  UNL1        0.0633
     72 H          -8.0170    4.2591   -1.0471 H       1  UNL1        0.0621
     73 H          -6.9466    1.9048    1.4215 H       1  UNL1        0.0278
     74 H          -6.8084    3.6760    1.8773 H       1  UNL1        0.0278
     75 H          -8.2043    3.0944    0.9320 H       1  UNL1        0.0278
     76 H          -3.5234    0.7157   -0.8495 H       1  UNL1        0.0427
     77 H          -5.2218    0.1110   -1.1183 H       1  UNL1        0.0427
     78 H          -3.6467   -1.6784   -1.2662 H       1  UNL1        0.0303
     79 H          -4.5015   -1.9313    0.3334 H       1  UNL1        0.0303
     80 H          -4.1330   -4.9353    3.9913 H       1  UNL1        0.1049
@<TRIPOS>BOND
     1     1     2    1
     2     2     3    1
     3     3     4   ar
     4     4     5   ar
     5     5     6    1
     6     6     7   am
     7     7     8    2
     8     7     9   am
     9     9    10    1
    10    10    11   ar
    11    11    12   ar
    12    12    13   ar
    13    13    14    1
    14    14    15   ar
    15    15    16   ar
    16    16    17   ar
    17    17    18    1
    18    18    19    2
    19    18    20   am
    20    20    21    1
    21    20    22    1
    22    17    23   ar
    23    23    24   ar
    24    13    25   ar
    25    25    26   ar
    26     9    27   am
    27    27    28    2
    28    27    29    1
    29    29    30    1
    30    30    31    1
    31    31    32    1
    32    32    33    1
    33    33    34    1
    34    34    35   ar
    35    35    36   ar
    36    36    37   ar
    37    37    38   ar
    38    38    39   ar
    39    39    40    1
    40    32    41    1
    41    41    42    1
    42     5    43   ar
    43    43    44   ar
    44    44    45   ar
    45    45     3   ar
    46    29     6    1
    47    39    34   ar
    48    26    10   ar
    49    42    29    1
    50    24    14   ar
    51     1    46    1
    52     1    47    1
    53     1    48    1
    54     4    49    1
    55    11    50    1
    56    12    51    1
    57    15    52    1
    58    16    53    1
    59    21    54    1
    60    21    55    1
    61    21    56    1
    62    22    57    1
    63    22    58    1
    64    22    59    1
    65    23    60    1
    66    24    61    1
    67    25    62    1
    68    26    63    1
    69    30    64    1
    70    30    65    1
    71    31    66    1
    72    31    67    1
    73    33    68    1
    74    33    69    1
    75    36    70    1
    76    37    71    1
    77    38    72    1
    78    40    73    1
    79    40    74    1
    80    40    75    1
    81    41    76    1
    82    41    77    1
    83    42    78    1
    84    42    79    1
    85    44    80    1
