
     RDKit          3D

 80 85  0  0  0  0  0  0  0  0999 V2000
   -4.2407   -8.0561    0.2609 C   0  0  0  0  0  0  0  0  0  0  0  0
   -3.6007   -6.8577   -0.0473 O   0  0  0  0  0  0  0  0  0  0  0  0
   -3.4404   -5.8084    0.8470 C   0  0  0  0  0  0  0  0  0  0  0  0
   -2.7953   -4.6397    0.4861 C   0  0  0  0  0  0  0  0  0  0  0  0
   -2.6259   -3.5883    1.3561 C   0  0  0  0  0  0  0  0  0  0  0  0
   -1.9721   -2.3821    1.0180 N   0  0  0  0  0  0  0  0  0  0  0  0
   -0.5609   -2.1201    1.1721 C   0  0  0  0  0  0  0  0  0  0  0  0
    0.2089   -2.7007    2.0089 O   0  0  0  0  0  0  0  0  0  0  0  0
   -0.1781   -1.1126    0.2397 N   0  0  0  0  0  0  0  0  0  0  0  0
    1.1147   -0.5387    0.0389 C   0  0  0  0  0  0  0  0  0  0  0  0
    1.5287    0.5813    0.7297 C   0  0  0  0  0  0  0  0  0  0  0  0
    2.7747    1.0817    0.4925 C   0  0  0  0  0  0  0  0  0  0  0  0
    3.6288    0.4864   -0.4273 C   0  0  0  0  0  0  0  0  0  0  0  0
    4.9612    1.0422   -0.6639 C   0  0  0  0  0  0  0  0  0  0  0  0
    5.5139    0.9168   -1.9033 C   0  0  0  0  0  0  0  0  0  0  0  0
    6.7829    1.4241   -2.2034 C   0  0  0  0  0  0  0  0  0  0  0  0
    7.4896    2.0688   -1.2111 C   0  0  0  0  0  0  0  0  0  0  0  0
    8.8148    2.6187   -1.4596 C   0  0  0  0  0  0  0  0  0  0  0  0
    8.9982    3.4961   -2.3555 O   0  0  0  0  0  0  0  0  0  0  0  0
    9.9027    2.1595   -0.6846 N   0  0  0  0  0  0  0  0  0  0  0  0
    9.6799    1.1600    0.3316 C   0  0  0  0  0  0  0  0  0  0  0  0
   11.2360    2.6950   -0.9136 C   0  0  0  0  0  0  0  0  0  0  0  0
    6.9093    2.1839    0.0376 C   0  0  0  0  0  0  0  0  0  0  0  0
    5.6702    1.6859    0.3219 C   0  0  0  0  0  0  0  0  0  0  0  0
    3.2348   -0.6329   -1.1278 C   0  0  0  0  0  0  0  0  0  0  0  0
    1.9575   -1.1303   -0.8720 C   0  0  0  0  0  0  0  0  0  0  0  0
   -1.3863   -0.7807   -0.4715 C   0  0  0  0  0  0  0  0  0  0  0  0
   -1.4436   -0.2879   -1.6270 O   0  0  0  0  0  0  0  0  0  0  0  0
   -2.4942   -1.1502    0.4609 C   0  0  0  0  0  0  0  0  0  0  0  0
   -2.5219   -0.1156    1.5737 C   0  0  0  0  0  0  0  0  0  0  0  0
   -3.9630    0.1158    1.9254 C   0  0  0  0  0  0  0  0  0  0  0  0
   -4.6957    0.7362    0.8597 N   0  0  0  0  0  0  0  0  0  0  0  0
   -4.3179    2.1426    0.8089 C   0  0  0  0  0  0  0  0  0  0  0  0
   -5.0290    2.8822   -0.2556 C   0  0  0  0  0  0  0  0  0  0  0  0
   -4.3959    3.2017   -1.3903 N   0  0  0  0  0  0  0  0  0  0  0  0
   -4.9806    3.8640   -2.3823 C   0  0  0  0  0  0  0  0  0  0  0  0
   -6.2852    4.2470   -2.2636 C   0  0  0  0  0  0  0  0  0  0  0  0
   -6.9944    3.9569   -1.1369 C   0  0  0  0  0  0  0  0  0  0  0  0
   -6.3500    3.2629   -0.1200 C   0  0  0  0  0  0  0  0  0  0  0  0
   -7.1193    2.9508    1.0972 C   0  0  0  0  0  0  0  0  0  0  0  0
   -4.3748    0.1150   -0.4167 C   0  0  0  0  0  0  0  0  0  0  0  0
   -3.8118   -1.2970   -0.2212 C   0  0  0  0  0  0  0  0  0  0  0  0
   -3.1134   -3.7206    2.6017 N   0  0  0  0  0  0  0  0  0  0  0  0
   -3.7488   -4.8456    2.9913 C   0  0  0  0  0  0  0  0  0  0  0  0
   -3.9032   -5.8594    2.1266 N   0  0  0  0  0  0  0  0  0  0  0  0
   -3.4806   -8.8745    0.3166 H   0  0  0  0  0  0  0  0  0  0  0  0
   -4.9138   -8.3164   -0.5822 H   0  0  0  0  0  0  0  0  0  0  0  0
   -4.8388   -7.9795    1.1992 H   0  0  0  0  0  0  0  0  0  0  0  0
   -2.4096   -4.5420   -0.5086 H   0  0  0  0  0  0  0  0  0  0  0  0
    0.8411    1.0089    1.4287 H   0  0  0  0  0  0  0  0  0  0  0  0
    3.1235    1.9643    1.0247 H   0  0  0  0  0  0  0  0  0  0  0  0
    5.0071    0.4235   -2.7130 H   0  0  0  0  0  0  0  0  0  0  0  0
    7.1941    1.3090   -3.1949 H   0  0  0  0  0  0  0  0  0  0  0  0
    9.5329    1.5996    1.3404 H   0  0  0  0  0  0  0  0  0  0  0  0
   10.5784    0.4781    0.3106 H   0  0  0  0  0  0  0  0  0  0  0  0
    8.7706    0.5643    0.0878 H   0  0  0  0  0  0  0  0  0  0  0  0
   11.5931    3.2773   -0.0395 H   0  0  0  0  0  0  0  0  0  0  0  0
   11.9010    1.8426   -1.0819 H   0  0  0  0  0  0  0  0  0  0  0  0
   11.2300    3.3212   -1.8341 H   0  0  0  0  0  0  0  0  0  0  0  0
    7.4404    2.6922    0.8579 H   0  0  0  0  0  0  0  0  0  0  0  0
    5.1909    1.7654    1.3029 H   0  0  0  0  0  0  0  0  0  0  0  0
    3.8683   -1.1342   -1.8579 H   0  0  0  0  0  0  0  0  0  0  0  0
    1.6741   -2.0086   -1.4353 H   0  0  0  0  0  0  0  0  0  0  0  0
   -1.9970    0.7839    1.2462 H   0  0  0  0  0  0  0  0  0  0  0  0
   -1.9789   -0.4888    2.4744 H   0  0  0  0  0  0  0  0  0  0  0  0
   -3.9834    0.7786    2.8130 H   0  0  0  0  0  0  0  0  0  0  0  0
   -4.4350   -0.8742    2.1191 H   0  0  0  0  0  0  0  0  0  0  0  0
   -4.5713    2.5621    1.8075 H   0  0  0  0  0  0  0  0  0  0  0  0
   -3.2372    2.2929    0.6687 H   0  0  0  0  0  0  0  0  0  0  0  0
   -4.4107    4.0993   -3.2910 H   0  0  0  0  0  0  0  0  0  0  0  0
   -6.7501    4.7882   -3.0829 H   0  0  0  0  0  0  0  0  0  0  0  0
   -8.0170    4.2591   -1.0471 H   0  0  0  0  0  0  0  0  0  0  0  0
   -6.9466    1.9048    1.4215 H   0  0  0  0  0  0  0  0  0  0  0  0
   -6.8084    3.6760    1.8773 H   0  0  0  0  0  0  0  0  0  0  0  0
   -8.2043    3.0944    0.9320 H   0  0  0  0  0  0  0  0  0  0  0  0
   -3.5234    0.7157   -0.8495 H   0  0  0  0  0  0  0  0  0  0  0  0
   -5.2218    0.1110   -1.1183 H   0  0  0  0  0  0  0  0  0  0  0  0
   -3.6467   -1.6784   -1.2662 H   0  0  0  0  0  0  0  0  0  0  0  0
   -4.5015   -1.9313    0.3334 H   0  0  0  0  0  0  0  0  0  0  0  0
   -4.1330   -4.9353    3.9913 H   0  0  0  0  0  0  0  0  0  0  0  0
  1  2  1  0
  2  3  1  0
  3  4  2  0
  4  5  1  0
  5  6  1  0
  6  7  1  0
  7  8  2  0
  7  9  1  0
  9 10  1  0
 10 11  2  0
 11 12  1  0
 12 13  2  0
 13 14  1  0
 14 15  2  0
 15 16  1  0
 16 17  2  0
 17 18  1  0
 18 19  2  0
 18 20  1  0
 20 21  1  0
 20 22  1  0
 17 23  1  0
 23 24  2  0
 13 25  1  0
 25 26  2  0
  9 27  1  0
 27 28  2  0
 27 29  1  0
 29 30  1  0
 30 31  1  0
 31 32  1  0
 32 33  1  0
 33 34  1  0
 34 35  2  0
 35 36  1  0
 36 37  2  0
 37 38  1  0
 38 39  2  0
 39 40  1  0
 32 41  1  0
 41 42  1  0
  5 43  2  0
 43 44  1  0
 44 45  2  0
 45  3  1  0
 29  6  1  0
 39 34  1  0
 26 10  1  0
 42 29  1  0
 24 14  1  0
  1 46  1  0
  1 47  1  0
  1 48  1  0
  4 49  1  0
 11 50  1  0
 12 51  1  0
 15 52  1  0
 16 53  1  0
 21 54  1  0
 21 55  1  0
 21 56  1  0
 22 57  1  0
 22 58  1  0
 22 59  1  0
 23 60  1  0
 24 61  1  0
 25 62  1  0
 26 63  1  0
 30 64  1  0
 30 65  1  0
 31 66  1  0
 31 67  1  0
 33 68  1  0
 33 69  1  0
 36 70  1  0
 37 71  1  0
 38 72  1  0
 40 73  1  0
 40 74  1  0
 40 75  1  0
 41 76  1  0
 41 77  1  0
 42 78  1  0
 42 79  1  0
 44 80  1  0
M  END
$$$$
