
     RDKit          3D

 30 32  0  0  0  0  0  0  0  0999 V2000
   -1.5521   -2.5363   -2.5996 O   0  0  0  0  0  0  0  0  0  0  0  0
   -2.2491   -1.7322   -1.8795 C   0  0  0  0  0  0  0  0  0  0  0  0
   -3.6015   -1.8606   -2.0217 O   0  0  0  0  0  0  0  0  0  0  0  0
   -1.5029   -0.8228   -1.0365 C   0  0  0  0  0  0  0  0  0  0  0  0
   -0.0994   -0.8572   -1.0415 C   0  0  0  0  0  0  0  0  0  0  0  0
    0.6869   -0.0456   -0.2868 C   0  0  0  0  0  0  0  0  0  0  0  0
    2.1394   -0.0867   -0.2971 C   0  0  0  0  0  0  0  0  0  0  0  0
    2.8396   -0.9607   -1.0809 C   0  0  0  0  0  0  0  0  0  0  0  0
    4.2334   -0.9950   -1.0860 C   0  0  0  0  0  0  0  0  0  0  0  0
    4.9322   -0.1346   -0.2885 C   0  0  0  0  0  0  0  0  0  0  0  0
    6.8544   -0.1822   -0.2960 Br  0  0  0  0  0  0  0  0  0  0  0  0
    4.2552    0.7489    0.5043 C   0  0  0  0  0  0  0  0  0  0  0  0
    2.8749    0.7731    0.5005 C   0  0  0  0  0  0  0  0  0  0  0  0
    0.0545    0.8457    0.5140 N   0  0  0  0  0  0  0  0  0  0  0  0
   -1.2639    0.9538    0.5879 C   0  0  0  0  0  0  0  0  0  0  0  0
   -1.8029    1.9059    1.4458 C   0  0  0  0  0  0  0  0  0  0  0  0
   -3.1723    2.0085    1.5136 C   0  0  0  0  0  0  0  0  0  0  0  0
   -3.9717    1.1854    0.7483 C   0  0  0  0  0  0  0  0  0  0  0  0
   -5.8822    1.2972    0.8143 Br  0  0  0  0  0  0  0  0  0  0  0  0
   -3.4109    0.2320   -0.1105 C   0  0  0  0  0  0  0  0  0  0  0  0
   -2.0639    0.1119   -0.1948 C   0  0  0  0  0  0  0  0  0  0  0  0
   -4.0987   -2.7206   -2.2206 H   0  0  0  0  0  0  0  0  0  0  0  0
    0.3646   -1.5748   -1.6871 H   0  0  0  0  0  0  0  0  0  0  0  0
    2.3533   -1.6594   -1.7269 H   0  0  0  0  0  0  0  0  0  0  0  0
    4.7879   -1.6880   -1.7075 H   0  0  0  0  0  0  0  0  0  0  0  0
    4.8045    1.4245    1.1305 H   0  0  0  0  0  0  0  0  0  0  0  0
    2.3883    1.4835    1.1391 H   0  0  0  0  0  0  0  0  0  0  0  0
   -1.1599    2.5359    2.0323 H   0  0  0  0  0  0  0  0  0  0  0  0
   -3.6681    2.7348    2.1666 H   0  0  0  0  0  0  0  0  0  0  0  0
   -4.0696   -0.3840   -0.6845 H   0  0  0  0  0  0  0  0  0  0  0  0
  1  2  2  0
  2  3  1  0
  2  4  1  0
  4  5  2  0
  5  6  1  0
  6  7  1  0
  7  8  2  0
  8  9  1  0
  9 10  2  0
 10 11  1  0
 10 12  1  0
 12 13  2  0
  6 14  2  0
 14 15  1  0
 15 16  2  0
 16 17  1  0
 17 18  2  0
 18 19  1  0
 18 20  1  0
 20 21  2  0
 21  4  1  0
 13  7  1  0
 21 15  1  0
  3 22  1  0
  5 23  1  0
  8 24  1  0
  9 25  1  0
 12 26  1  0
 13 27  1  0
 16 28  1  0
 17 29  1  0
 20 30  1  0
M  END
$$$$
