@<TRIPOS>MOLECULE
*****
 30 32 0 0 0
SMALL
GASTEIGER

@<TRIPOS>ATOM
      1 O          -1.5521   -2.5363   -2.5996 O.2     1  UNL1       -0.2451
      2 C          -2.2491   -1.7322   -1.8795 C.2     1  UNL1        0.3375
      3 O          -3.6015   -1.8606   -2.0217 O.3     1  UNL1       -0.4771
      4 C          -1.5029   -0.8228   -1.0365 C.ar    1  UNL1        0.0700
      5 C          -0.0994   -0.8572   -1.0415 C.ar    1  UNL1       -0.0211
      6 C           0.6869   -0.0456   -0.2868 C.ar    1  UNL1        0.0725
      7 C           2.1394   -0.0867   -0.2971 C.ar    1  UNL1        0.0004
      8 C           2.8396   -0.9607   -1.0809 C.ar    1  UNL1       -0.0515
      9 C           4.2334   -0.9950   -1.0860 C.ar    1  UNL1       -0.0471
     10 C           4.9322   -0.1346   -0.2885 C.ar    1  UNL1        0.0179
     11 BR          6.8544   -0.1822   -0.2960 Br      1  UNL1       -0.0503
     12 C           4.2552    0.7489    0.5043 C.ar    1  UNL1       -0.0471
     13 C           2.8749    0.7731    0.5005 C.ar    1  UNL1       -0.0515
     14 N           0.0545    0.8457    0.5140 N.ar    1  UNL1       -0.2467
     15 C          -1.2639    0.9538    0.5879 C.ar    1  UNL1        0.0725
     16 C          -1.8029    1.9059    1.4458 C.ar    1  UNL1       -0.0347
     17 C          -3.1723    2.0085    1.5136 C.ar    1  UNL1       -0.0457
     18 C          -3.9717    1.1854    0.7483 C.ar    1  UNL1        0.0186
     19 BR         -5.8822    1.2972    0.8143 Br      1  UNL1       -0.0503
     20 C          -3.4109    0.2320   -0.1105 C.ar    1  UNL1       -0.0378
     21 C          -2.0639    0.1119   -0.1948 C.ar    1  UNL1        0.0154
     22 H          -4.0987   -2.7206   -2.2206 H       1  UNL1        0.2954
     23 H           0.3646   -1.5748   -1.6871 H       1  UNL1        0.0647
     24 H           2.3533   -1.6594   -1.7269 H       1  UNL1        0.0624
     25 H           4.7879   -1.6880   -1.7075 H       1  UNL1        0.0629
     26 H           4.8045    1.4245    1.1305 H       1  UNL1        0.0629
     27 H           2.3883    1.4835    1.1391 H       1  UNL1        0.0624
     28 H          -1.1599    2.5359    2.0323 H       1  UNL1        0.0639
     29 H          -3.6681    2.7348    2.1666 H       1  UNL1        0.0629
     30 H          -4.0696   -0.3840   -0.6845 H       1  UNL1        0.0635
@<TRIPOS>BOND
     1     1     2    2
     2     2     3    1
     3     2     4    1
     4     4     5   ar
     5     5     6   ar
     6     6     7    1
     7     7     8   ar
     8     8     9   ar
     9     9    10   ar
    10    10    11    1
    11    10    12   ar
    12    12    13   ar
    13     6    14   ar
    14    14    15   ar
    15    15    16   ar
    16    16    17   ar
    17    17    18   ar
    18    18    19    1
    19    18    20   ar
    20    20    21   ar
    21    21     4   ar
    22    13     7   ar
    23    21    15   ar
    24     3    22    1
    25     5    23    1
    26     8    24    1
    27     9    25    1
    28    12    26    1
    29    13    27    1
    30    16    28    1
    31    17    29    1
    32    20    30    1
