@<TRIPOS>MOLECULE
*****
 73 75 0 0 0
SMALL
GASTEIGER

@<TRIPOS>ATOM
      1 C          -4.4027    3.3841   -1.2590 C.3     1  UNL1       -0.0653
      2 C          -5.5640    3.1135   -0.3554 C.3     1  UNL1       -0.0558
      3 C          -5.5831    1.6241    0.0796 C.3     1  UNL1       -0.0512
      4 C          -4.3242    1.3299    0.7959 C.3     1  UNL1       -0.0270
      5 C          -4.1044   -0.0369    1.3350 C.3     1  UNL1        0.0937
      6 N          -2.7969   -0.0101    1.9677 N.am    1  UNL1       -0.2710
      7 C          -1.6357    0.1240    1.1956 C.2     1  UNL1        0.4012
      8 O          -1.7227    0.2218   -0.0443 O.2     1  UNL1       -0.2265
      9 O          -0.3525    0.1558    1.7432 O.3     1  UNL1       -0.4447
     10 C           0.7777    0.3006    0.8206 C.3     1  UNL1        0.1288
     11 C           1.6016   -0.9122    1.0473 C.3     1  UNL1        0.0791
     12 N           2.8018   -1.0543    0.2564 N.ar    1  UNL1       -0.2673
     13 C           2.8827   -1.6288   -0.9811 C.ar    1  UNL1        0.0262
     14 C           4.1845   -1.6122   -1.3838 C.ar    1  UNL1       -0.0163
     15 C           4.8990   -1.0178   -0.3719 C.ar    1  UNL1        0.0927
     16 C           6.3524   -0.7908   -0.3822 C.ar    1  UNL1        0.0021
     17 C           7.1240   -1.1742   -1.4496 C.ar    1  UNL1       -0.0520
     18 C           8.4991   -0.9555   -1.4504 C.ar    1  UNL1       -0.0495
     19 C           9.1156   -0.3494   -0.3801 C.ar    1  UNL1        0.0548
     20 C          10.5934   -0.1071   -0.3657 C.3     1  UNL1        0.4174
     21 F          10.9357    0.8175    0.5820 F       1  UNL1       -0.1659
     22 F          11.2032   -1.2996   -0.0524 F       1  UNL1       -0.1659
     23 F          10.9880    0.2778   -1.6319 F       1  UNL1       -0.1659
     24 C           8.3461    0.0356    0.6900 C.ar    1  UNL1       -0.0495
     25 C           6.9609   -0.1843    0.6918 C.ar    1  UNL1       -0.0520
     26 N           4.0275   -0.7071    0.5759 N.ar    1  UNL1       -0.1711
     27 C           1.4753    1.5335    1.3271 C.3     1  UNL1        0.0012
     28 C           2.6665    1.9743    0.5590 C.3     1  UNL1       -0.0566
     29 C           0.5091    2.7008    1.4567 C.3     1  UNL1       -0.0566
     30 C           1.8952    1.1944    2.7726 C.3     1  UNL1       -0.0566
     31 C          -4.2745   -1.1651    0.4412 C.2     1  UNL1        0.2376
     32 O          -3.2365   -1.8608    0.1326 O.2     1  UNL1       -0.2852
     33 C          -5.4959   -1.6352   -0.1690 C.2     1  UNL1        0.2867
     34 O          -6.6099   -1.1165    0.0775 O.2     1  UNL1       -0.2666
     35 N          -5.5294   -2.7239   -1.0977 N.am    1  UNL1       -0.2643
     36 C          -6.7425   -3.1534   -1.6721 C.ar    1  UNL1        0.1205
     37 C          -7.5980   -4.1085   -1.1797 C.ar    1  UNL1       -0.0023
     38 C          -8.6789   -4.2259   -2.0566 C.ar    1  UNL1        0.0510
     39 N          -8.4360   -3.3425   -3.0389 N.ar    1  UNL1       -0.1807
     40 N          -7.2859   -2.7051   -2.8111 N.ar    1  UNL1       -0.2639
     41 H          -4.6514    4.2797   -1.8719 H       1  UNL1        0.0230
     42 H          -3.4784    3.6502   -0.6955 H       1  UNL1        0.0230
     43 H          -4.2282    2.5599   -1.9889 H       1  UNL1        0.0230
     44 H          -5.4956    3.7632    0.5294 H       1  UNL1        0.0263
     45 H          -6.5234    3.3484   -0.8644 H       1  UNL1        0.0263
     46 H          -6.5154    1.5148    0.6189 H       1  UNL1        0.0266
     47 H          -5.5552    1.0970   -0.9196 H       1  UNL1        0.0266
     48 H          -3.4738    1.6742    0.1292 H       1  UNL1        0.0287
     49 H          -4.2631    2.0910    1.6429 H       1  UNL1        0.0287
     50 H          -4.8544   -0.1667    2.1711 H       1  UNL1        0.0583
     51 H          -2.7357   -0.0913    2.9948 H       1  UNL1        0.1527
     52 H           0.4177    0.3650   -0.2047 H       1  UNL1        0.0758
     53 H           1.9162   -1.0276    2.1200 H       1  UNL1        0.0546
     54 H           1.0131   -1.8590    0.8499 H       1  UNL1        0.0546
     55 H           2.0650   -2.0242   -1.5392 H       1  UNL1        0.0826
     56 H           4.6109   -1.9825   -2.3075 H       1  UNL1        0.0654
     57 H           6.6239   -1.6476   -2.2793 H       1  UNL1        0.0624
     58 H           9.1016   -1.2589   -2.2923 H       1  UNL1        0.0623
     59 H           8.8485    0.5104    1.5220 H       1  UNL1        0.0623
     60 H           6.3862    0.1274    1.5418 H       1  UNL1        0.0624
     61 H           2.5442    3.0901    0.3492 H       1  UNL1        0.0236
     62 H           2.7681    1.4934   -0.4313 H       1  UNL1        0.0236
     63 H           3.6305    1.9354    1.1025 H       1  UNL1        0.0236
     64 H          -0.0500    2.8924    0.5275 H       1  UNL1        0.0236
     65 H           1.1239    3.6016    1.6576 H       1  UNL1        0.0236
     66 H          -0.1625    2.5777    2.3335 H       1  UNL1        0.0236
     67 H           1.1474    0.5386    3.2462 H       1  UNL1        0.0236
     68 H           2.0257    2.1435    3.3390 H       1  UNL1        0.0236
     69 H           2.8725    0.6713    2.7369 H       1  UNL1        0.0236
     70 H          -4.6213   -3.1972   -1.3413 H       1  UNL1        0.1566
     71 H          -7.5181   -4.7059   -0.2810 H       1  UNL1        0.0667
     72 H          -9.5117   -4.8985   -1.9311 H       1  UNL1        0.0848
     73 H          -6.9228   -1.9764   -3.4649 H       1  UNL1        0.1903
@<TRIPOS>BOND
     1     1     2    1
     2     2     3    1
     3     3     4    1
     4     4     5    1
     5     5     6    1
     6     6     7   am
     7     7     8    2
     8     7     9    1
     9     9    10    1
    10    10    11    1
    11    11    12    1
    12    12    13   ar
    13    13    14   ar
    14    14    15   ar
    15    15    16    1
    16    16    17   ar
    17    17    18   ar
    18    18    19   ar
    19    19    20    1
    20    20    21    1
    21    20    22    1
    22    20    23    1
    23    19    24   ar
    24    24    25   ar
    25    15    26   ar
    26    10    27    1
    27    27    28    1
    28    27    29    1
    29    27    30    1
    30     5    31    1
    31    31    32    2
    32    31    33    1
    33    33    34    2
    34    33    35   am
    35    35    36    1
    36    36    37   ar
    37    37    38   ar
    38    38    39   ar
    39    39    40   ar
    40    26    12   ar
    41    40    36   ar
    42    25    16   ar
    43     1    41    1
    44     1    42    1
    45     1    43    1
    46     2    44    1
    47     2    45    1
    48     3    46    1
    49     3    47    1
    50     4    48    1
    51     4    49    1
    52     5    50    1
    53     6    51    1
    54    10    52    1
    55    11    53    1
    56    11    54    1
    57    13    55    1
    58    14    56    1
    59    17    57    1
    60    18    58    1
    61    24    59    1
    62    25    60    1
    63    28    61    1
    64    28    62    1
    65    28    63    1
    66    29    64    1
    67    29    65    1
    68    29    66    1
    69    30    67    1
    70    30    68    1
    71    30    69    1
    72    35    70    1
    73    37    71    1
    74    38    72    1
    75    40    73    1
