
     RDKit          3D

 73 75  0  0  0  0  0  0  0  0999 V2000
   -4.4027    3.3841   -1.2590 C   0  0  0  0  0  0  0  0  0  0  0  0
   -5.5640    3.1135   -0.3554 C   0  0  0  0  0  0  0  0  0  0  0  0
   -5.5831    1.6241    0.0796 C   0  0  0  0  0  0  0  0  0  0  0  0
   -4.3242    1.3299    0.7959 C   0  0  0  0  0  0  0  0  0  0  0  0
   -4.1044   -0.0369    1.3350 C   0  0  2  0  0  0  0  0  0  0  0  0
   -2.7969   -0.0101    1.9677 N   0  0  0  0  0  0  0  0  0  0  0  0
   -1.6357    0.1240    1.1956 C   0  0  0  0  0  0  0  0  0  0  0  0
   -1.7227    0.2218   -0.0443 O   0  0  0  0  0  0  0  0  0  0  0  0
   -0.3525    0.1558    1.7432 O   0  0  0  0  0  0  0  0  0  0  0  0
    0.7777    0.3006    0.8206 C   0  0  2  0  0  0  0  0  0  0  0  0
    1.6016   -0.9122    1.0473 C   0  0  0  0  0  0  0  0  0  0  0  0
    2.8018   -1.0543    0.2564 N   0  0  0  0  0  0  0  0  0  0  0  0
    2.8827   -1.6288   -0.9811 C   0  0  0  0  0  0  0  0  0  0  0  0
    4.1845   -1.6122   -1.3838 C   0  0  0  0  0  0  0  0  0  0  0  0
    4.8990   -1.0178   -0.3719 C   0  0  0  0  0  0  0  0  0  0  0  0
    6.3524   -0.7908   -0.3822 C   0  0  0  0  0  0  0  0  0  0  0  0
    7.1240   -1.1742   -1.4496 C   0  0  0  0  0  0  0  0  0  0  0  0
    8.4991   -0.9555   -1.4504 C   0  0  0  0  0  0  0  0  0  0  0  0
    9.1156   -0.3494   -0.3801 C   0  0  0  0  0  0  0  0  0  0  0  0
   10.5934   -0.1071   -0.3657 C   0  0  0  0  0  0  0  0  0  0  0  0
   10.9357    0.8175    0.5820 F   0  0  0  0  0  0  0  0  0  0  0  0
   11.2032   -1.2996   -0.0524 F   0  0  0  0  0  0  0  0  0  0  0  0
   10.9880    0.2778   -1.6319 F   0  0  0  0  0  0  0  0  0  0  0  0
    8.3461    0.0356    0.6900 C   0  0  0  0  0  0  0  0  0  0  0  0
    6.9609   -0.1843    0.6918 C   0  0  0  0  0  0  0  0  0  0  0  0
    4.0275   -0.7071    0.5759 N   0  0  0  0  0  0  0  0  0  0  0  0
    1.4753    1.5335    1.3271 C   0  0  0  0  0  0  0  0  0  0  0  0
    2.6665    1.9743    0.5590 C   0  0  0  0  0  0  0  0  0  0  0  0
    0.5091    2.7008    1.4567 C   0  0  0  0  0  0  0  0  0  0  0  0
    1.8952    1.1944    2.7726 C   0  0  0  0  0  0  0  0  0  0  0  0
   -4.2745   -1.1651    0.4412 C   0  0  0  0  0  0  0  0  0  0  0  0
   -3.2365   -1.8608    0.1326 O   0  0  0  0  0  0  0  0  0  0  0  0
   -5.4959   -1.6352   -0.1690 C   0  0  0  0  0  0  0  0  0  0  0  0
   -6.6099   -1.1165    0.0775 O   0  0  0  0  0  0  0  0  0  0  0  0
   -5.5294   -2.7239   -1.0977 N   0  0  0  0  0  0  0  0  0  0  0  0
   -6.7425   -3.1534   -1.6721 C   0  0  0  0  0  0  0  0  0  0  0  0
   -7.5980   -4.1085   -1.1797 C   0  0  0  0  0  0  0  0  0  0  0  0
   -8.6789   -4.2259   -2.0566 C   0  0  0  0  0  0  0  0  0  0  0  0
   -8.4360   -3.3425   -3.0389 N   0  0  0  0  0  0  0  0  0  0  0  0
   -7.2859   -2.7051   -2.8111 N   0  0  0  0  0  0  0  0  0  0  0  0
   -4.6514    4.2797   -1.8719 H   0  0  0  0  0  0  0  0  0  0  0  0
   -3.4784    3.6502   -0.6955 H   0  0  0  0  0  0  0  0  0  0  0  0
   -4.2282    2.5599   -1.9889 H   0  0  0  0  0  0  0  0  0  0  0  0
   -5.4956    3.7632    0.5294 H   0  0  0  0  0  0  0  0  0  0  0  0
   -6.5234    3.3484   -0.8644 H   0  0  0  0  0  0  0  0  0  0  0  0
   -6.5154    1.5148    0.6189 H   0  0  0  0  0  0  0  0  0  0  0  0
   -5.5552    1.0970   -0.9196 H   0  0  0  0  0  0  0  0  0  0  0  0
   -3.4738    1.6742    0.1292 H   0  0  0  0  0  0  0  0  0  0  0  0
   -4.2631    2.0910    1.6429 H   0  0  0  0  0  0  0  0  0  0  0  0
   -4.8544   -0.1667    2.1711 H   0  0  0  0  0  0  0  0  0  0  0  0
   -2.7357   -0.0913    2.9948 H   0  0  0  0  0  0  0  0  0  0  0  0
    0.4177    0.3650   -0.2047 H   0  0  0  0  0  0  0  0  0  0  0  0
    1.9162   -1.0276    2.1200 H   0  0  0  0  0  0  0  0  0  0  0  0
    1.0131   -1.8590    0.8499 H   0  0  0  0  0  0  0  0  0  0  0  0
    2.0650   -2.0242   -1.5392 H   0  0  0  0  0  0  0  0  0  0  0  0
    4.6109   -1.9825   -2.3075 H   0  0  0  0  0  0  0  0  0  0  0  0
    6.6239   -1.6476   -2.2793 H   0  0  0  0  0  0  0  0  0  0  0  0
    9.1016   -1.2589   -2.2923 H   0  0  0  0  0  0  0  0  0  0  0  0
    8.8485    0.5104    1.5220 H   0  0  0  0  0  0  0  0  0  0  0  0
    6.3862    0.1274    1.5418 H   0  0  0  0  0  0  0  0  0  0  0  0
    2.5442    3.0901    0.3492 H   0  0  0  0  0  0  0  0  0  0  0  0
    2.7681    1.4934   -0.4313 H   0  0  0  0  0  0  0  0  0  0  0  0
    3.6305    1.9354    1.1025 H   0  0  0  0  0  0  0  0  0  0  0  0
   -0.0500    2.8924    0.5275 H   0  0  0  0  0  0  0  0  0  0  0  0
    1.1239    3.6016    1.6576 H   0  0  0  0  0  0  0  0  0  0  0  0
   -0.1625    2.5777    2.3335 H   0  0  0  0  0  0  0  0  0  0  0  0
    1.1474    0.5386    3.2462 H   0  0  0  0  0  0  0  0  0  0  0  0
    2.0257    2.1435    3.3390 H   0  0  0  0  0  0  0  0  0  0  0  0
    2.8725    0.6713    2.7369 H   0  0  0  0  0  0  0  0  0  0  0  0
   -4.6213   -3.1972   -1.3413 H   0  0  0  0  0  0  0  0  0  0  0  0
   -7.5181   -4.7059   -0.2810 H   0  0  0  0  0  0  0  0  0  0  0  0
   -9.5117   -4.8985   -1.9311 H   0  0  0  0  0  0  0  0  0  0  0  0
   -6.9228   -1.9764   -3.4649 H   0  0  0  0  0  0  0  0  0  0  0  0
  1  2  1  0
  2  3  1  0
  3  4  1  0
  4  5  1  0
  5  6  1  0
  6  7  1  0
  7  8  2  0
  7  9  1  0
  9 10  1  0
 10 11  1  0
 11 12  1  0
 12 13  1  0
 13 14  2  0
 14 15  1  0
 15 16  1  0
 16 17  2  0
 17 18  1  0
 18 19  2  0
 19 20  1  0
 20 21  1  0
 20 22  1  0
 20 23  1  0
 19 24  1  0
 24 25  2  0
 15 26  2  0
 10 27  1  0
 27 28  1  0
 27 29  1  0
 27 30  1  0
  5 31  1  0
 31 32  2  0
 31 33  1  0
 33 34  2  0
 33 35  1  0
 35 36  1  0
 36 37  2  0
 37 38  1  0
 38 39  2  0
 39 40  1  0
 26 12  1  0
 40 36  1  0
 25 16  1  0
  1 41  1  0
  1 42  1  0
  1 43  1  0
  2 44  1  0
  2 45  1  0
  3 46  1  0
  3 47  1  0
  4 48  1  0
  4 49  1  0
  5 50  1  1
  6 51  1  0
 10 52  1  6
 11 53  1  0
 11 54  1  0
 13 55  1  0
 14 56  1  0
 17 57  1  0
 18 58  1  0
 24 59  1  0
 25 60  1  0
 28 61  1  0
 28 62  1  0
 28 63  1  0
 29 64  1  0
 29 65  1  0
 29 66  1  0
 30 67  1  0
 30 68  1  0
 30 69  1  0
 35 70  1  0
 37 71  1  0
 38 72  1  0
 40 73  1  0
M  END
$$$$
