@<TRIPOS>MOLECULE
*****
 44 46 0 0 0
SMALL
GASTEIGER

@<TRIPOS>ATOM
      1 O           0.2592   -1.2300   -0.5962 O.2     1  UNL1       -0.2738
      2 C           0.3003    0.0089   -0.2771 C.2     1  UNL1        0.2338
      3 N           1.5836    0.5497   -0.1221 N.am    1  UNL1       -0.3108
      4 C           2.8230   -0.1382   -0.2837 C.3     1  UNL1        0.0261
      5 C           3.6672    0.4213   -1.3776 C.3     1  UNL1       -0.0150
      6 C           5.0428   -0.0833   -1.4666 C.3     1  UNL1        0.0674
      7 S           5.8687   -0.4159    0.0248 S.O2    1  UNL1       -0.0309
      8 O           6.2998    0.9024    0.6511 O.2     1  UNL1       -0.1744
      9 O           7.0137   -1.3408   -0.1577 O.2     1  UNL1       -0.1744
     10 C           4.6467   -1.1024    1.1523 C.3     1  UNL1        0.0674
     11 C           3.4867   -0.1683    1.0600 C.3     1  UNL1       -0.0150
     12 C          -0.9207    0.7582   -0.0994 C.3     1  UNL1        0.1038
     13 C          -1.1745    1.1292    1.4205 C.3     1  UNL1       -0.0239
     14 C          -2.6092    0.9008    1.7784 C.3     1  UNL1       -0.0282
     15 C          -3.2832   -0.3970    1.4333 C.3     1  UNL1        0.0727
     16 C          -2.3052   -1.1885    0.4655 C.3     1  UNL1        0.0381
     17 N          -2.1517    0.0922   -0.2751 N.am    1  UNL1       -0.2704
     18 C          -3.4452    0.2870   -0.7333 C.2     1  UNL1        0.3305
     19 O          -3.8252    0.7299   -1.8399 O.2     1  UNL1       -0.2502
     20 N          -4.3092   -0.1452    0.3931 N.am    1  UNL1       -0.1323
     21 O          -5.6326   -0.2669    0.4318 O.3     1  UNL1       -0.0962
     22 S          -6.4050    0.1139   -0.9710 S.O2    1  UNL1        0.2271
     23 O          -7.9040   -0.1123   -0.7853 O.2     1  UNL1       -0.1164
     24 O          -6.2405    1.5551   -1.2934 O.2     1  UNL1       -0.1164
     25 O          -5.8330   -0.9044   -2.1959 O.3     1  UNL1       -0.2297
     26 H           1.6323    1.5788    0.1432 H       1  UNL1        0.1490
     27 H           2.5807   -1.2009   -0.5599 H       1  UNL1        0.0499
     28 H           3.1629    0.1868   -2.3455 H       1  UNL1        0.0299
     29 H           3.6675    1.5476   -1.3135 H       1  UNL1        0.0299
     30 H           5.6577    0.6649   -2.0488 H       1  UNL1        0.0500
     31 H           5.0892   -1.0121   -2.1082 H       1  UNL1        0.0500
     32 H           4.3198   -2.0922    0.7823 H       1  UNL1        0.0500
     33 H           5.0132   -1.1116    2.1802 H       1  UNL1        0.0500
     34 H           3.7420    0.8788    1.3285 H       1  UNL1        0.0299
     35 H           2.7264   -0.4965    1.7998 H       1  UNL1        0.0299
     36 H          -0.8888    1.6824   -0.6947 H       1  UNL1        0.0597
     37 H          -0.9457    2.1858    1.4720 H       1  UNL1        0.0288
     38 H          -0.4731    0.5609    2.0142 H       1  UNL1        0.0288
     39 H          -3.2205    1.7411    1.3718 H       1  UNL1        0.0285
     40 H          -2.6682    1.0023    2.8833 H       1  UNL1        0.0285
     41 H          -3.6127   -1.0150    2.2401 H       1  UNL1        0.0542
     42 H          -1.4256   -1.4941    0.9936 H       1  UNL1        0.0484
     43 H          -2.8572   -1.8876   -0.1140 H       1  UNL1        0.0484
     44 H          -6.4523   -1.6746   -2.2247 H       1  UNL1        0.2470
@<TRIPOS>BOND
     1     1     2    2
     2     2     3   am
     3     3     4    1
     4     4     5    1
     5     5     6    1
     6     6     7    1
     7     7     8    2
     8     7     9    2
     9     7    10    1
    10    10    11    1
    11     2    12    1
    12    12    13    1
    13    13    14    1
    14    14    15    1
    15    15    16    1
    16    16    17    1
    17    17    18   am
    18    18    19    2
    19    18    20   am
    20    20    21    1
    21    21    22    1
    22    22    23    2
    23    22    24    2
    24    22    25    1
    25    11     4    1
    26    17    12    1
    27    20    15    1
    28     3    26    1
    29     4    27    1
    30     5    28    1
    31     5    29    1
    32     6    30    1
    33     6    31    1
    34    10    32    1
    35    10    33    1
    36    11    34    1
    37    11    35    1
    38    12    36    1
    39    13    37    1
    40    13    38    1
    41    14    39    1
    42    14    40    1
    43    15    41    1
    44    16    42    1
    45    16    43    1
    46    25    44    1
