
     RDKit          3D

 44 46  0  0  0  0  0  0  0  0999 V2000
    0.2592   -1.2300   -0.5962 O   0  0  0  0  0  0  0  0  0  0  0  0
    0.3003    0.0089   -0.2771 C   0  0  0  0  0  0  0  0  0  0  0  0
    1.5836    0.5497   -0.1221 N   0  0  0  0  0  0  0  0  0  0  0  0
    2.8230   -0.1382   -0.2837 C   0  0  0  0  0  0  0  0  0  0  0  0
    3.6672    0.4213   -1.3776 C   0  0  0  0  0  0  0  0  0  0  0  0
    5.0428   -0.0833   -1.4666 C   0  0  0  0  0  0  0  0  0  0  0  0
    5.8687   -0.4159    0.0248 S   0  0  0  0  0  6  0  0  0  0  0  0
    6.2998    0.9024    0.6511 O   0  0  0  0  0  0  0  0  0  0  0  0
    7.0137   -1.3408   -0.1577 O   0  0  0  0  0  0  0  0  0  0  0  0
    4.6467   -1.1024    1.1523 C   0  0  0  0  0  0  0  0  0  0  0  0
    3.4867   -0.1683    1.0600 C   0  0  0  0  0  0  0  0  0  0  0  0
   -0.9207    0.7582   -0.0994 C   0  0  2  0  0  0  0  0  0  0  0  0
   -1.1745    1.1292    1.4205 C   0  0  0  0  0  0  0  0  0  0  0  0
   -2.6092    0.9008    1.7784 C   0  0  0  0  0  0  0  0  0  0  0  0
   -3.2832   -0.3970    1.4333 C   0  0  2  0  0  0  0  0  0  0  0  0
   -2.3052   -1.1885    0.4655 C   0  0  0  0  0  0  0  0  0  0  0  0
   -2.1517    0.0922   -0.2751 N   0  0  0  0  0  0  0  0  0  0  0  0
   -3.4452    0.2870   -0.7333 C   0  0  0  0  0  0  0  0  0  0  0  0
   -3.8252    0.7299   -1.8399 O   0  0  0  0  0  0  0  0  0  0  0  0
   -4.3092   -0.1452    0.3931 N   0  0  0  0  0  0  0  0  0  0  0  0
   -5.6326   -0.2669    0.4318 O   0  0  0  0  0  0  0  0  0  0  0  0
   -6.4050    0.1139   -0.9710 S   0  0  0  0  0  6  0  0  0  0  0  0
   -7.9040   -0.1123   -0.7853 O   0  0  0  0  0  0  0  0  0  0  0  0
   -6.2405    1.5551   -1.2934 O   0  0  0  0  0  0  0  0  0  0  0  0
   -5.8330   -0.9044   -2.1959 O   0  0  0  0  0  0  0  0  0  0  0  0
    1.6323    1.5788    0.1432 H   0  0  0  0  0  0  0  0  0  0  0  0
    2.5807   -1.2009   -0.5599 H   0  0  0  0  0  0  0  0  0  0  0  0
    3.1629    0.1868   -2.3455 H   0  0  0  0  0  0  0  0  0  0  0  0
    3.6675    1.5476   -1.3135 H   0  0  0  0  0  0  0  0  0  0  0  0
    5.6577    0.6649   -2.0488 H   0  0  0  0  0  0  0  0  0  0  0  0
    5.0892   -1.0121   -2.1082 H   0  0  0  0  0  0  0  0  0  0  0  0
    4.3198   -2.0922    0.7823 H   0  0  0  0  0  0  0  0  0  0  0  0
    5.0132   -1.1116    2.1802 H   0  0  0  0  0  0  0  0  0  0  0  0
    3.7420    0.8788    1.3285 H   0  0  0  0  0  0  0  0  0  0  0  0
    2.7264   -0.4965    1.7998 H   0  0  0  0  0  0  0  0  0  0  0  0
   -0.8888    1.6824   -0.6947 H   0  0  0  0  0  0  0  0  0  0  0  0
   -0.9457    2.1858    1.4720 H   0  0  0  0  0  0  0  0  0  0  0  0
   -0.4731    0.5609    2.0142 H   0  0  0  0  0  0  0  0  0  0  0  0
   -3.2205    1.7411    1.3718 H   0  0  0  0  0  0  0  0  0  0  0  0
   -2.6682    1.0023    2.8833 H   0  0  0  0  0  0  0  0  0  0  0  0
   -3.6127   -1.0150    2.2401 H   0  0  0  0  0  0  0  0  0  0  0  0
   -1.4256   -1.4941    0.9936 H   0  0  0  0  0  0  0  0  0  0  0  0
   -2.8572   -1.8876   -0.1140 H   0  0  0  0  0  0  0  0  0  0  0  0
   -6.4523   -1.6746   -2.2247 H   0  0  0  0  0  0  0  0  0  0  0  0
  1  2  2  0
  2  3  1  0
  3  4  1  0
  4  5  1  0
  5  6  1  0
  6  7  1  0
  7  8  2  0
  7  9  2  0
  7 10  1  0
 10 11  1  0
  2 12  1  0
 12 13  1  0
 13 14  1  0
 14 15  1  0
 15 16  1  0
 16 17  1  0
 17 18  1  0
 18 19  2  0
 18 20  1  0
 20 21  1  0
 21 22  1  0
 22 23  2  0
 22 24  2  0
 22 25  1  0
 11  4  1  0
 17 12  1  0
 20 15  1  0
  3 26  1  0
  4 27  1  0
  5 28  1  0
  5 29  1  0
  6 30  1  0
  6 31  1  0
 10 32  1  0
 10 33  1  0
 11 34  1  0
 11 35  1  0
 12 36  1  6
 13 37  1  0
 13 38  1  0
 14 39  1  0
 14 40  1  0
 15 41  1  1
 16 42  1  0
 16 43  1  0
 25 44  1  0
M  END
$$$$
