
     RDKit          3D

 44 46  0  0  0  0  0  0  0  0999 V2000
   -2.2691    1.1573    2.7477 N   0  0  0  0  0  0  0  0  0  0  0  0
   -2.5774    0.8818    1.3776 C   0  0  0  0  0  0  0  0  0  0  0  0
   -2.3301   -0.2191    0.8126 N   0  0  0  0  0  0  0  0  0  0  0  0
   -2.6288   -0.5461   -0.5925 C   0  0  2  0  0  0  0  0  0  0  0  0
   -3.1525   -1.9950   -0.6040 C   0  0  0  0  0  0  0  0  0  0  0  0
   -3.4675   -2.3754   -1.8710 F   0  0  0  0  0  0  0  0  0  0  0  0
   -1.2845   -0.5940   -1.2723 C   0  0  0  0  0  0  0  0  0  0  0  0
   -0.1176   -0.4250   -0.5564 C   0  0  0  0  0  0  0  0  0  0  0  0
    1.1588   -0.4869   -1.1098 C   0  0  0  0  0  0  0  0  0  0  0  0
    2.2400   -0.2875   -0.2143 N   0  0  0  0  0  0  0  0  0  0  0  0
    3.6179   -0.2968   -0.5081 C   0  0  0  0  0  0  0  0  0  0  0  0
    3.9004   -0.5301   -1.7512 O   0  0  0  0  0  0  0  0  0  0  0  0
    4.7218   -0.0836    0.4052 C   0  0  0  0  0  0  0  0  0  0  0  0
    5.9531   -0.4972   -0.0347 N   0  0  0  0  0  0  0  0  0  0  0  0
    7.0714   -0.3415    0.6943 C   0  0  0  0  0  0  0  0  0  0  0  0
    7.0574    0.2480    1.9410 C   0  0  0  0  0  0  0  0  0  0  0  0
    8.4967    0.4581    2.9018 Cl  0  0  0  0  0  0  0  0  0  0  0  0
    5.8424    0.6716    2.4063 C   0  0  0  0  0  0  0  0  0  0  0  0
    4.7022    0.4981    1.6302 C   0  0  0  0  0  0  0  0  0  0  0  0
    3.2203    1.1213    2.3021 Cl  0  0  0  0  0  0  0  0  0  0  0  0
    1.2178   -0.7318   -2.4458 C   0  0  0  0  0  0  0  0  0  0  0  0
    0.0731   -0.9132   -3.2359 C   0  0  0  0  0  0  0  0  0  0  0  0
   -1.1568   -0.8374   -2.6187 C   0  0  0  0  0  0  0  0  0  0  0  0
   -2.2571   -0.9836   -3.4089 F   0  0  0  0  0  0  0  0  0  0  0  0
   -3.5378    0.4125   -1.2537 C   0  0  0  0  0  0  0  0  0  0  0  0
   -4.1131    1.4882   -0.3721 C   0  0  1  0  0  0  0  0  0  0  0  0
   -5.3934    1.0620    0.3128 C   0  0  0  0  0  0  0  0  0  0  0  0
   -5.7952    2.1589    1.0846 F   0  0  0  0  0  0  0  0  0  0  0  0
   -5.1786    0.0352    1.2035 F   0  0  0  0  0  0  0  0  0  0  0  0
   -6.3536    0.7964   -0.6173 F   0  0  0  0  0  0  0  0  0  0  0  0
   -3.1900    1.8987    0.6248 O   0  0  0  0  0  0  0  0  0  0  0  0
   -2.3725    0.4574    3.5059 H   0  0  0  0  0  0  0  0  0  0  0  0
   -1.9267    2.1104    2.9728 H   0  0  0  0  0  0  0  0  0  0  0  0
   -4.0392   -2.1106    0.0292 H   0  0  0  0  0  0  0  0  0  0  0  0
   -2.3005   -2.6386   -0.2619 H   0  0  0  0  0  0  0  0  0  0  0  0
   -0.2404   -0.2336    0.5008 H   0  0  0  0  0  0  0  0  0  0  0  0
    2.0173   -0.1300    0.8251 H   0  0  0  0  0  0  0  0  0  0  0  0
    8.0387   -0.6768    0.3266 H   0  0  0  0  0  0  0  0  0  0  0  0
    5.7179    1.1447    3.3671 H   0  0  0  0  0  0  0  0  0  0  0  0
    2.1759   -0.7915   -2.9311 H   0  0  0  0  0  0  0  0  0  0  0  0
    0.1615   -1.1046   -4.2873 H   0  0  0  0  0  0  0  0  0  0  0  0
   -2.9387    0.9575   -2.0421 H   0  0  0  0  0  0  0  0  0  0  0  0
   -4.3957   -0.0804   -1.7706 H   0  0  0  0  0  0  0  0  0  0  0  0
   -4.3678    2.3524   -1.0155 H   0  0  0  0  0  0  0  0  0  0  0  0
  1  2  1  0
  2  3  2  0
  3  4  1  0
  4  5  1  1
  5  6  1  0
  4  7  1  0
  7  8  2  0
  8  9  1  0
  9 10  1  0
 10 11  1  0
 11 12  2  0
 11 13  1  0
 13 14  2  0
 14 15  1  0
 15 16  2  0
 16 17  1  0
 16 18  1  0
 18 19  2  0
 19 20  1  0
  9 21  2  0
 21 22  1  0
 22 23  2  0
 23 24  1  0
  4 25  1  0
 25 26  1  0
 26 27  1  0
 27 28  1  0
 27 29  1  0
 27 30  1  0
 26 31  1  0
 31  2  1  0
 23  7  1  0
 19 13  1  0
  1 32  1  0
  1 33  1  0
  5 34  1  0
  5 35  1  0
  8 36  1  0
 10 37  1  0
 15 38  1  0
 18 39  1  0
 21 40  1  0
 22 41  1  0
 25 42  1  0
 25 43  1  0
 26 44  1  6
M  END
$$$$
