@<TRIPOS>MOLECULE
*****
 44 46 0 0 0
SMALL
GASTEIGER

@<TRIPOS>ATOM
      1 N          -2.2691    1.1573    2.7477 N.pl3   1  UNL1       -0.3134
      2 C          -2.5774    0.8818    1.3776 C.2     1  UNL1        0.2766
      3 N          -2.3301   -0.2191    0.8126 N.2     1  UNL1       -0.2228
      4 C          -2.6288   -0.5461   -0.5925 C.3     1  UNL1        0.1258
      5 C          -3.1525   -1.9950   -0.6040 C.3     1  UNL1        0.1196
      6 F          -3.4675   -2.3754   -1.8710 F       1  UNL1       -0.2462
      7 C          -1.2845   -0.5940   -1.2723 C.ar    1  UNL1        0.0196
      8 C          -0.1176   -0.4250   -0.5564 C.ar    1  UNL1       -0.0322
      9 C           1.1588   -0.4869   -1.1098 C.ar    1  UNL1        0.0342
     10 N           2.2400   -0.2875   -0.2143 N.am    1  UNL1       -0.2802
     11 C           3.6179   -0.2968   -0.5081 C.2     1  UNL1        0.2680
     12 O           3.9004   -0.5301   -1.7512 O.2     1  UNL1       -0.2681
     13 C           4.7218   -0.0836    0.4052 C.ar    1  UNL1        0.1439
     14 N           5.9531   -0.4972   -0.0347 N.ar    1  UNL1       -0.2474
     15 C           7.0714   -0.3415    0.6943 C.ar    1  UNL1        0.0468
     16 C           7.0574    0.2480    1.9410 C.ar    1  UNL1        0.0605
     17 CL          8.4967    0.4581    2.9018 Cl      1  UNL1       -0.0819
     18 C           5.8424    0.6716    2.4063 C.ar    1  UNL1       -0.0213
     19 C           4.7022    0.4981    1.6302 C.ar    1  UNL1        0.0728
     20 CL          3.2203    1.1213    2.3021 Cl      1  UNL1       -0.0811
     21 C           1.2178   -0.7318   -2.4458 C.ar    1  UNL1       -0.0377
     22 C           0.0731   -0.9132   -3.2359 C.ar    1  UNL1       -0.0243
     23 C          -1.1568   -0.8374   -2.6187 C.ar    1  UNL1        0.1291
     24 F          -2.2571   -0.9836   -3.4089 F       1  UNL1       -0.2051
     25 C          -3.5378    0.4125   -1.2537 C.3     1  UNL1        0.0251
     26 C          -4.1131    1.4882   -0.3721 C.3     1  UNL1        0.1998
     27 C          -5.3934    1.0620    0.3128 C.3     1  UNL1        0.4266
     28 F          -5.7952    2.1589    1.0846 F       1  UNL1       -0.1669
     29 F          -5.1786    0.0352    1.2035 F       1  UNL1       -0.1669
     30 F          -6.3536    0.7964   -0.6173 F       1  UNL1       -0.1669
     31 O          -3.1900    1.8987    0.6248 O.2     1  UNL1       -0.4534
     32 H          -2.3725    0.4574    3.5059 H       1  UNL1        0.1466
     33 H          -1.9267    2.1104    2.9728 H       1  UNL1        0.1466
     34 H          -4.0392   -2.1106    0.0292 H       1  UNL1        0.0643
     35 H          -2.3005   -2.6386   -0.2619 H       1  UNL1        0.0643
     36 H          -0.2404   -0.2336    0.5008 H       1  UNL1        0.0640
     37 H           2.0173   -0.1300    0.8251 H       1  UNL1        0.1552
     38 H           8.0387   -0.6768    0.3266 H       1  UNL1        0.0844
     39 H           5.7179    1.1447    3.3671 H       1  UNL1        0.0648
     40 H           2.1759   -0.7915   -2.9311 H       1  UNL1        0.0637
     41 H           0.1615   -1.1046   -4.2873 H       1  UNL1        0.0647
     42 H          -2.9387    0.9575   -2.0421 H       1  UNL1        0.0331
     43 H          -4.3957   -0.0804   -1.7706 H       1  UNL1        0.0331
     44 H          -4.3678    2.3524   -1.0155 H       1  UNL1        0.0826
@<TRIPOS>BOND
     1     1     2    1
     2     2     3    2
     3     3     4    1
     4     4     5    1
     5     5     6    1
     6     4     7    1
     7     7     8   ar
     8     8     9   ar
     9     9    10    1
    10    10    11   am
    11    11    12    2
    12    11    13    1
    13    13    14   ar
    14    14    15   ar
    15    15    16   ar
    16    16    17    1
    17    16    18   ar
    18    18    19   ar
    19    19    20    1
    20     9    21   ar
    21    21    22   ar
    22    22    23   ar
    23    23    24    1
    24     4    25    1
    25    25    26    1
    26    26    27    1
    27    27    28    1
    28    27    29    1
    29    27    30    1
    30    26    31    1
    31    31     2    1
    32    23     7   ar
    33    19    13   ar
    34     1    32    1
    35     1    33    1
    36     5    34    1
    37     5    35    1
    38     8    36    1
    39    10    37    1
    40    15    38    1
    41    18    39    1
    42    21    40    1
    43    22    41    1
    44    25    42    1
    45    25    43    1
    46    26    44    1
