@<TRIPOS>MOLECULE
*****
 54 56 0 0 0
SMALL
GASTEIGER

@<TRIPOS>ATOM
      1 C           4.5410   -3.6046    0.6993 C.3     1  UNL1       -0.0375
      2 C           4.1372   -2.2032    1.0680 C.3     1  UNL1        0.0679
      3 O           3.6406   -2.1264    2.3714 O.3     1  UNL1       -0.3905
      4 C           3.1270   -1.6273    0.1036 C.3     1  UNL1        0.0377
      5 N           2.9111   -0.2384    0.4870 N.am    1  UNL1       -0.3088
      6 C           1.9942    0.5976   -0.2401 C.2     1  UNL1        0.2474
      7 O           1.4339    0.0215   -1.1839 O.2     1  UNL1       -0.2701
      8 C           1.7366    1.9881    0.0906 C.ar    1  UNL1        0.0758
      9 C           2.6781    2.6670    0.8972 C.ar    1  UNL1        0.0415
     10 N           2.5593    3.9777    1.1611 N.ar    1  UNL1       -0.2624
     11 C           1.5585    4.7264    0.6885 C.ar    1  UNL1        0.0293
     12 C           0.6266    4.1268   -0.0890 C.ar    1  UNL1       -0.0217
     13 C           0.7146    2.7293   -0.3938 C.ar    1  UNL1        0.0465
     14 N          -0.3218    2.2151   -1.1962 N.pl3   1  UNL1       -0.3123
     15 C          -1.2595    1.2532   -0.8083 C.ar    1  UNL1        0.0562
     16 C          -1.5026    0.0983   -1.5691 C.ar    1  UNL1       -0.0126
     17 C          -2.4102   -0.8571   -1.2783 C.ar    1  UNL1        0.0756
     18 C          -2.6910   -2.0735   -2.0479 C.ar    1  UNL1        0.0369
     19 C          -3.6902   -2.9411   -1.5825 C.ar    1  UNL1       -0.0314
     20 C          -4.0440   -4.1015   -2.2056 C.ar    1  UNL1        0.0418
     21 CL         -5.2959   -5.1449   -1.5824 Cl      1  UNL1       -0.0835
     22 C          -3.3667   -4.4247   -3.3624 C.ar    1  UNL1       -0.0406
     23 C          -2.3904   -3.6130   -3.8504 C.ar    1  UNL1       -0.0244
     24 C          -2.0508   -2.4401   -3.1978 C.ar    1  UNL1        0.1326
     25 F          -1.0610   -1.6453   -3.7158 F       1  UNL1       -0.2048
     26 N          -3.1452   -0.6690   -0.1473 N.ar    1  UNL1       -0.2529
     27 C          -2.9641    0.4034    0.6176 C.ar    1  UNL1        0.0511
     28 C          -2.0263    1.3944    0.3230 C.ar    1  UNL1        0.0690
     29 N          -1.8747    2.4875    1.2338 N.pl3   1  UNL1       -0.3334
     30 C          -0.8981    2.3452    2.3081 C.3     1  UNL1        0.0005
     31 C          -2.6532    3.7023    1.1115 C.3     1  UNL1        0.0005
     32 H           4.6424   -4.2247    1.6093 H       1  UNL1        0.0255
     33 H           3.7960   -4.0377   -0.0250 H       1  UNL1        0.0255
     34 H           5.5249   -3.6501    0.1827 H       1  UNL1        0.0255
     35 H           5.0752   -1.5884    1.0512 H       1  UNL1        0.0606
     36 H           4.2214   -2.6323    2.9643 H       1  UNL1        0.2098
     37 H           3.4922   -1.7305   -0.9237 H       1  UNL1        0.0487
     38 H           2.1995   -2.2314    0.1854 H       1  UNL1        0.0487
     39 H           3.4077    0.1655    1.2916 H       1  UNL1        0.1491
     40 H           3.4987    2.0773    1.2832 H       1  UNL1        0.0838
     41 H           1.4523    5.7838    0.8928 H       1  UNL1        0.0830
     42 H          -0.2145    4.6656   -0.5099 H       1  UNL1        0.0651
     43 H          -0.3885    2.6098   -2.2073 H       1  UNL1        0.1522
     44 H          -0.9147    0.0033   -2.4533 H       1  UNL1        0.0658
     45 H          -4.2352   -2.6977   -0.6672 H       1  UNL1        0.0639
     46 H          -3.6218   -5.3445   -3.8883 H       1  UNL1        0.0633
     47 H          -1.8424   -3.8515   -4.7650 H       1  UNL1        0.0647
     48 H          -3.5506    0.5463    1.5129 H       1  UNL1        0.0849
     49 H          -0.1884    1.5168    2.1352 H       1  UNL1        0.0428
     50 H          -1.4517    2.1892    3.2874 H       1  UNL1        0.0428
     51 H          -0.3794    3.3093    2.4425 H       1  UNL1        0.0428
     52 H          -2.5713    4.1194    0.0792 H       1  UNL1        0.0428
     53 H          -2.2316    4.4623    1.7855 H       1  UNL1        0.0428
     54 H          -3.7332    3.5163    1.2910 H       1  UNL1        0.0428
@<TRIPOS>BOND
     1     1     2    1
     2     2     3    1
     3     2     4    1
     4     4     5    1
     5     5     6   am
     6     6     7    2
     7     6     8    1
     8     8     9   ar
     9     9    10   ar
    10    10    11   ar
    11    11    12   ar
    12    12    13   ar
    13    13    14    1
    14    14    15    1
    15    15    16   ar
    16    16    17   ar
    17    17    18    1
    18    18    19   ar
    19    19    20   ar
    20    20    21    1
    21    20    22   ar
    22    22    23   ar
    23    23    24   ar
    24    24    25    1
    25    17    26   ar
    26    26    27   ar
    27    27    28   ar
    28    28    29    1
    29    29    30    1
    30    29    31    1
    31    13     8   ar
    32    28    15   ar
    33    24    18   ar
    34     1    32    1
    35     1    33    1
    36     1    34    1
    37     2    35    1
    38     3    36    1
    39     4    37    1
    40     4    38    1
    41     5    39    1
    42     9    40    1
    43    11    41    1
    44    12    42    1
    45    14    43    1
    46    16    44    1
    47    19    45    1
    48    22    46    1
    49    23    47    1
    50    27    48    1
    51    30    49    1
    52    30    50    1
    53    30    51    1
    54    31    52    1
    55    31    53    1
    56    31    54    1
