
     RDKit          3D

 54 56  0  0  0  0  0  0  0  0999 V2000
    4.5410   -3.6046    0.6993 C   0  0  0  0  0  0  0  0  0  0  0  0
    4.1372   -2.2032    1.0680 C   0  0  2  0  0  0  0  0  0  0  0  0
    3.6406   -2.1264    2.3714 O   0  0  0  0  0  0  0  0  0  0  0  0
    3.1270   -1.6273    0.1036 C   0  0  0  0  0  0  0  0  0  0  0  0
    2.9111   -0.2384    0.4870 N   0  0  0  0  0  0  0  0  0  0  0  0
    1.9942    0.5976   -0.2401 C   0  0  0  0  0  0  0  0  0  0  0  0
    1.4339    0.0215   -1.1839 O   0  0  0  0  0  0  0  0  0  0  0  0
    1.7366    1.9881    0.0906 C   0  0  0  0  0  0  0  0  0  0  0  0
    2.6781    2.6670    0.8972 C   0  0  0  0  0  0  0  0  0  0  0  0
    2.5593    3.9777    1.1611 N   0  0  0  0  0  0  0  0  0  0  0  0
    1.5585    4.7264    0.6885 C   0  0  0  0  0  0  0  0  0  0  0  0
    0.6266    4.1268   -0.0890 C   0  0  0  0  0  0  0  0  0  0  0  0
    0.7146    2.7293   -0.3938 C   0  0  0  0  0  0  0  0  0  0  0  0
   -0.3218    2.2151   -1.1962 N   0  0  0  0  0  0  0  0  0  0  0  0
   -1.2595    1.2532   -0.8083 C   0  0  0  0  0  0  0  0  0  0  0  0
   -1.5026    0.0983   -1.5691 C   0  0  0  0  0  0  0  0  0  0  0  0
   -2.4102   -0.8571   -1.2783 C   0  0  0  0  0  0  0  0  0  0  0  0
   -2.6910   -2.0735   -2.0479 C   0  0  0  0  0  0  0  0  0  0  0  0
   -3.6902   -2.9411   -1.5825 C   0  0  0  0  0  0  0  0  0  0  0  0
   -4.0440   -4.1015   -2.2056 C   0  0  0  0  0  0  0  0  0  0  0  0
   -5.2959   -5.1449   -1.5824 Cl  0  0  0  0  0  0  0  0  0  0  0  0
   -3.3667   -4.4247   -3.3624 C   0  0  0  0  0  0  0  0  0  0  0  0
   -2.3904   -3.6130   -3.8504 C   0  0  0  0  0  0  0  0  0  0  0  0
   -2.0508   -2.4401   -3.1978 C   0  0  0  0  0  0  0  0  0  0  0  0
   -1.0610   -1.6453   -3.7158 F   0  0  0  0  0  0  0  0  0  0  0  0
   -3.1452   -0.6690   -0.1473 N   0  0  0  0  0  0  0  0  0  0  0  0
   -2.9641    0.4034    0.6176 C   0  0  0  0  0  0  0  0  0  0  0  0
   -2.0263    1.3944    0.3230 C   0  0  0  0  0  0  0  0  0  0  0  0
   -1.8747    2.4875    1.2338 N   0  0  0  0  0  0  0  0  0  0  0  0
   -0.8981    2.3452    2.3081 C   0  0  0  0  0  0  0  0  0  0  0  0
   -2.6532    3.7023    1.1115 C   0  0  0  0  0  0  0  0  0  0  0  0
    4.6424   -4.2247    1.6093 H   0  0  0  0  0  0  0  0  0  0  0  0
    3.7960   -4.0377   -0.0250 H   0  0  0  0  0  0  0  0  0  0  0  0
    5.5249   -3.6501    0.1827 H   0  0  0  0  0  0  0  0  0  0  0  0
    5.0752   -1.5884    1.0512 H   0  0  0  0  0  0  0  0  0  0  0  0
    4.2214   -2.6323    2.9643 H   0  0  0  0  0  0  0  0  0  0  0  0
    3.4922   -1.7305   -0.9237 H   0  0  0  0  0  0  0  0  0  0  0  0
    2.1995   -2.2314    0.1854 H   0  0  0  0  0  0  0  0  0  0  0  0
    3.4077    0.1655    1.2916 H   0  0  0  0  0  0  0  0  0  0  0  0
    3.4987    2.0773    1.2832 H   0  0  0  0  0  0  0  0  0  0  0  0
    1.4523    5.7838    0.8928 H   0  0  0  0  0  0  0  0  0  0  0  0
   -0.2145    4.6656   -0.5099 H   0  0  0  0  0  0  0  0  0  0  0  0
   -0.3885    2.6098   -2.2073 H   0  0  0  0  0  0  0  0  0  0  0  0
   -0.9147    0.0033   -2.4533 H   0  0  0  0  0  0  0  0  0  0  0  0
   -4.2352   -2.6977   -0.6672 H   0  0  0  0  0  0  0  0  0  0  0  0
   -3.6218   -5.3445   -3.8883 H   0  0  0  0  0  0  0  0  0  0  0  0
   -1.8424   -3.8515   -4.7650 H   0  0  0  0  0  0  0  0  0  0  0  0
   -3.5506    0.5463    1.5129 H   0  0  0  0  0  0  0  0  0  0  0  0
   -0.1884    1.5168    2.1352 H   0  0  0  0  0  0  0  0  0  0  0  0
   -1.4517    2.1892    3.2874 H   0  0  0  0  0  0  0  0  0  0  0  0
   -0.3794    3.3093    2.4425 H   0  0  0  0  0  0  0  0  0  0  0  0
   -2.5713    4.1194    0.0792 H   0  0  0  0  0  0  0  0  0  0  0  0
   -2.2316    4.4623    1.7855 H   0  0  0  0  0  0  0  0  0  0  0  0
   -3.7332    3.5163    1.2910 H   0  0  0  0  0  0  0  0  0  0  0  0
  1  2  1  0
  2  3  1  0
  2  4  1  0
  4  5  1  0
  5  6  1  0
  6  7  2  0
  6  8  1  0
  8  9  2  0
  9 10  1  0
 10 11  2  0
 11 12  1  0
 12 13  2  0
 13 14  1  0
 14 15  1  0
 15 16  2  0
 16 17  1  0
 17 18  1  0
 18 19  2  0
 19 20  1  0
 20 21  1  0
 20 22  2  0
 22 23  1  0
 23 24  2  0
 24 25  1  0
 17 26  2  0
 26 27  1  0
 27 28  2  0
 28 29  1  0
 29 30  1  0
 29 31  1  0
 13  8  1  0
 28 15  1  0
 24 18  1  0
  1 32  1  0
  1 33  1  0
  1 34  1  0
  2 35  1  1
  3 36  1  0
  4 37  1  0
  4 38  1  0
  5 39  1  0
  9 40  1  0
 11 41  1  0
 12 42  1  0
 14 43  1  0
 16 44  1  0
 19 45  1  0
 22 46  1  0
 23 47  1  0
 27 48  1  0
 30 49  1  0
 30 50  1  0
 30 51  1  0
 31 52  1  0
 31 53  1  0
 31 54  1  0
M  END
$$$$
