@<TRIPOS>MOLECULE
*****
 47 48 0 0 0
SMALL
GASTEIGER

@<TRIPOS>ATOM
      1 C          -1.5474    1.9470    1.4530 C.3     1  UNL1       -0.0121
      2 N          -1.4761    1.6365    0.0588 N.3     1  UNL1       -0.2975
      3 C          -0.3500    2.2715   -0.5999 C.3     1  UNL1        0.0180
      4 C           0.9425    1.7044   -0.1348 C.2     1  UNL1       -0.0619
      5 C           1.7886    1.1206   -0.9576 C.2     1  UNL1       -0.0143
      6 C           3.0529    0.5476   -0.5984 C.1     1  UNL1       -0.0738
      7 C           4.1087    0.0829   -0.3170 C.1     1  UNL1       -0.0916
      8 C           5.4043   -0.4731    0.0083 C.3     1  UNL1        0.0239
      9 C           5.6838   -1.7481   -0.7786 C.3     1  UNL1       -0.0491
     10 C           5.5122   -0.7990    1.4643 C.3     1  UNL1       -0.0491
     11 C           6.4708    0.5778   -0.2918 C.3     1  UNL1       -0.0491
     12 C          -1.4502    0.2317   -0.2515 C.3     1  UNL1        0.0246
     13 C          -2.6283   -0.5088    0.2292 C.ar    1  UNL1       -0.0257
     14 C          -2.5290   -1.3213    1.3649 C.ar    1  UNL1       -0.0567
     15 C          -3.5629   -2.0580    1.9026 C.ar    1  UNL1       -0.0609
     16 C          -4.7966   -1.9997    1.2849 C.ar    1  UNL1       -0.0540
     17 C          -4.9577   -1.2037    0.1448 C.ar    1  UNL1       -0.0176
     18 C          -6.1927   -1.1372   -0.4860 C.ar    1  UNL1       -0.0540
     19 C          -6.3339   -0.3471   -1.6108 C.ar    1  UNL1       -0.0612
     20 C          -5.2724    0.3792   -2.1227 C.ar    1  UNL1       -0.0612
     21 C          -4.0307    0.3174   -1.4957 C.ar    1  UNL1       -0.0537
     22 C          -3.8811   -0.4809   -0.3560 C.ar    1  UNL1       -0.0135
     23 H          -2.3613    2.7222    1.5647 H       1  UNL1        0.0391
     24 H          -1.8351    1.1062    2.0931 H       1  UNL1        0.0391
     25 H          -0.6391    2.4734    1.8414 H       1  UNL1        0.0391
     26 H          -0.4445    2.0345   -1.6778 H       1  UNL1        0.0470
     27 H          -0.3577    3.3718   -0.4729 H       1  UNL1        0.0470
     28 H           1.2512    1.7447    0.9036 H       1  UNL1        0.0591
     29 H           1.4909    1.0743   -2.0020 H       1  UNL1        0.0709
     30 H           6.7350   -1.7626   -1.1180 H       1  UNL1        0.0244
     31 H           4.9495   -1.8548   -1.5972 H       1  UNL1        0.0244
     32 H           5.5602   -2.6496   -0.1206 H       1  UNL1        0.0244
     33 H           6.4675   -1.3837    1.5796 H       1  UNL1        0.0244
     34 H           4.6973   -1.4179    1.8713 H       1  UNL1        0.0244
     35 H           5.6953    0.1134    2.0970 H       1  UNL1        0.0244
     36 H           7.4898    0.1537   -0.1685 H       1  UNL1        0.0244
     37 H           6.3659    1.3621    0.4837 H       1  UNL1        0.0244
     38 H           6.2802    0.9589   -1.3034 H       1  UNL1        0.0244
     39 H          -0.5476   -0.2099    0.2168 H       1  UNL1        0.0476
     40 H          -1.3137    0.1310   -1.3477 H       1  UNL1        0.0476
     41 H          -1.5560   -1.3624    1.8459 H       1  UNL1        0.0621
     42 H          -3.3682   -2.6526    2.7861 H       1  UNL1        0.0618
     43 H          -5.6251   -2.5666    1.6841 H       1  UNL1        0.0624
     44 H          -7.0375   -1.7133   -0.0797 H       1  UNL1        0.0624
     45 H          -7.3027   -0.2847   -2.1204 H       1  UNL1        0.0618
     46 H          -5.3882    0.9988   -3.0064 H       1  UNL1        0.0618
     47 H          -3.1608    0.8734   -1.8628 H       1  UNL1        0.0624
@<TRIPOS>BOND
     1     1     2    1
     2     2     3    1
     3     3     4    1
     4     4     5    2
     5     5     6    1
     6     6     7    3
     7     7     8    1
     8     8     9    1
     9     8    10    1
    10     8    11    1
    11     2    12    1
    12    12    13    1
    13    13    14   ar
    14    14    15   ar
    15    15    16   ar
    16    16    17   ar
    17    17    18   ar
    18    18    19   ar
    19    19    20   ar
    20    20    21   ar
    21    21    22   ar
    22    22    13   ar
    23    22    17   ar
    24     1    23    1
    25     1    24    1
    26     1    25    1
    27     3    26    1
    28     3    27    1
    29     4    28    1
    30     5    29    1
    31     9    30    1
    32     9    31    1
    33     9    32    1
    34    10    33    1
    35    10    34    1
    36    10    35    1
    37    11    36    1
    38    11    37    1
    39    11    38    1
    40    12    39    1
    41    12    40    1
    42    14    41    1
    43    15    42    1
    44    16    43    1
    45    18    44    1
    46    19    45    1
    47    20    46    1
    48    21    47    1
