@<TRIPOS>MOLECULE
*****
 77 81 0 0 0
SMALL
GASTEIGER

@<TRIPOS>ATOM
      1 C          -4.8779    2.0329   -0.9297 C.3     1  UNL1       -0.0632
      2 C          -4.3664    0.6139   -0.9939 C.3     1  UNL1       -0.0303
      3 C          -3.6504    0.2798    0.3769 C.3     1  UNL1        0.0802
      4 N          -4.7764    0.6104    1.2919 N.pl3   1  UNL1       -0.3181
      5 C          -5.9586   -0.1697    1.1330 C.ar    1  UNL1        0.1438
      6 N          -5.9284   -1.3349    0.3283 N.ar    1  UNL1       -0.1985
      7 C          -7.0721   -2.0707    0.2291 C.ar    1  UNL1        0.2160
      8 N          -7.1233   -3.2886   -0.4956 N.pl3   1  UNL1       -0.3274
      9 N          -8.2006   -1.7062    0.8610 N.ar    1  UNL1       -0.1987
     10 C          -8.2611   -0.6234    1.6116 C.ar    1  UNL1        0.1407
     11 N          -9.4889   -0.1678    2.1455 N.pl3   1  UNL1       -0.3419
     12 C          -7.1086    0.1328    1.7394 C.ar    1  UNL1        0.1308
     13 C          -7.1950    1.2009    2.7301 C.1     1  UNL1        0.1061
     14 N          -7.2779    2.0557    3.5425 N.1     1  UNL1       -0.1906
     15 C          -2.4516    1.1011    0.4924 C.ar    1  UNL1        0.1378
     16 N          -2.5916    2.4721    0.7654 N.ar    1  UNL1       -0.2312
     17 C          -1.4923    3.2913    0.7933 C.ar    1  UNL1        0.0794
     18 C          -1.5647    4.6912    0.9168 C.ar    1  UNL1       -0.0354
     19 C          -0.4169    5.4387    0.8072 C.ar    1  UNL1       -0.0586
     20 C           0.8404    4.8781    0.5837 C.ar    1  UNL1       -0.0455
     21 C           0.9361    3.5176    0.4544 C.ar    1  UNL1        0.0393
     22 C           2.0417    2.8928    0.0229 C.1     1  UNL1       -0.0655
     23 C           3.1800    2.2360   -0.4286 C.1     1  UNL1       -0.0969
     24 C           4.3829    1.5255   -0.9236 C.3     1  UNL1        0.0099
     25 C           3.8457    0.2000   -1.4907 C.3     1  UNL1       -0.0339
     26 C           4.9509   -0.7601   -1.7924 C.3     1  UNL1        0.0250
     27 C           5.6064   -1.2505   -0.5974 C.2     1  UNL1        0.2157
     28 O           4.9576   -0.9850    0.5700 O.2     1  UNL1       -0.2756
     29 N           6.7695   -1.9373   -0.3937 N.am    1  UNL1       -0.2971
     30 C           7.2579   -2.4298    0.9169 C.3     1  UNL1        0.0382
     31 C           8.7210   -2.1174    1.0067 C.3     1  UNL1        0.0635
     32 O           9.0175   -1.0737    0.1625 O.3     1  UNL1       -0.3767
     33 C           8.9851   -1.5155   -1.1472 C.3     1  UNL1        0.0635
     34 C           7.7433   -2.2896   -1.4771 C.3     1  UNL1        0.0382
     35 C          -0.2426    2.7742    0.5594 C.ar    1  UNL1        0.0806
     36 C          -0.2356    1.4287    0.3170 C.ar    1  UNL1        0.2675
     37 O           0.9128    0.9070    0.0977 O.2     1  UNL1       -0.2665
     38 N          -1.2619    0.5809    0.2656 N.ar    1  UNL1       -0.2628
     39 C          -0.9364   -0.7133   -0.2332 C.ar    1  UNL1        0.0512
     40 C          -0.3989   -1.7726    0.4102 C.ar    1  UNL1       -0.0377
     41 C           0.1140   -2.9066   -0.2416 C.ar    1  UNL1       -0.0598
     42 C           0.0924   -2.9797   -1.6504 C.ar    1  UNL1       -0.0616
     43 C          -0.4490   -1.9072   -2.2641 C.ar    1  UNL1       -0.0598
     44 C          -0.9622   -0.8122   -1.6885 C.ar    1  UNL1       -0.0377
     45 H          -4.0950    2.7949   -0.9661 H       1  UNL1        0.0230
     46 H          -5.6469    2.1859   -1.7418 H       1  UNL1        0.0230
     47 H          -5.4564    2.1295    0.0282 H       1  UNL1        0.0230
     48 H          -3.5924    0.5955   -1.7772 H       1  UNL1        0.0285
     49 H          -5.1416   -0.0791   -1.1530 H       1  UNL1        0.0285
     50 H          -3.4646   -0.7752    0.3938 H       1  UNL1        0.0579
     51 H          -4.6694    1.3181    1.9985 H       1  UNL1        0.1482
     52 H          -6.3112   -3.9233   -0.5211 H       1  UNL1        0.1452
     53 H          -8.0290   -3.5056   -1.0008 H       1  UNL1        0.1452
     54 H          -9.8395   -0.3174    3.0852 H       1  UNL1        0.1437
     55 H         -10.0749    0.4287    1.4475 H       1  UNL1        0.1437
     56 H          -2.5311    5.1456    1.0689 H       1  UNL1        0.0639
     57 H          -0.4958    6.5515    0.8599 H       1  UNL1        0.0619
     58 H           1.6944    5.4735    0.4801 H       1  UNL1        0.0630
     59 H           5.0261    1.2644   -0.0722 H       1  UNL1        0.0398
     60 H           4.9134    2.1332   -1.6391 H       1  UNL1        0.0398
     61 H           3.2137   -0.3212   -0.7221 H       1  UNL1        0.0279
     62 H           3.1800    0.3678   -2.3678 H       1  UNL1        0.0279
     63 H           5.6452   -0.1982   -2.4781 H       1  UNL1        0.0359
     64 H           4.5899   -1.6406   -2.4075 H       1  UNL1        0.0359
     65 H           7.1333   -3.5591    0.9186 H       1  UNL1        0.0487
     66 H           6.6250   -2.0146    1.7103 H       1  UNL1        0.0487
     67 H           9.0229   -1.9296    2.0734 H       1  UNL1        0.0575
     68 H           9.3090   -3.0213    0.6565 H       1  UNL1        0.0575
     69 H           8.9881   -0.5652   -1.7737 H       1  UNL1        0.0575
     70 H           9.9443   -2.0197   -1.4249 H       1  UNL1        0.0575
     71 H           7.8827   -3.3726   -1.4413 H       1  UNL1        0.0487
     72 H           7.3025   -1.9929   -2.4312 H       1  UNL1        0.0487
     73 H          -0.3759   -1.7362    1.5083 H       1  UNL1        0.0638
     74 H           0.5275   -3.7065    0.3127 H       1  UNL1        0.0618
     75 H           0.5059   -3.8142   -2.1597 H       1  UNL1        0.0618
     76 H          -0.4576   -1.9816   -3.4059 H       1  UNL1        0.0618
     77 H          -1.3890    0.0353   -2.1686 H       1  UNL1        0.0638
@<TRIPOS>BOND
     1     1     2    1
     2     2     3    1
     3     3     4    1
     4     4     5    1
     5     5     6   ar
     6     6     7   ar
     7     7     8    1
     8     7     9   ar
     9     9    10   ar
    10    10    11    1
    11    10    12   ar
    12    12    13    1
    13    13    14    3
    14     3    15    1
    15    15    16   ar
    16    16    17   ar
    17    17    18   ar
    18    18    19   ar
    19    19    20   ar
    20    20    21   ar
    21    21    22    1
    22    22    23    3
    23    23    24    1
    24    24    25    1
    25    25    26    1
    26    26    27    1
    27    27    28    2
    28    27    29   am
    29    29    30    1
    30    30    31    1
    31    31    32    1
    32    32    33    1
    33    33    34    1
    34    21    35   ar
    35    35    36   ar
    36    36    37    2
    37    36    38   ar
    38    38    39    1
    39    39    40   ar
    40    40    41   ar
    41    41    42   ar
    42    42    43   ar
    43    43    44   ar
    44    12     5   ar
    45    38    15   ar
    46    44    39   ar
    47    35    17   ar
    48    34    29    1
    49     1    45    1
    50     1    46    1
    51     1    47    1
    52     2    48    1
    53     2    49    1
    54     3    50    1
    55     4    51    1
    56     8    52    1
    57     8    53    1
    58    11    54    1
    59    11    55    1
    60    18    56    1
    61    19    57    1
    62    20    58    1
    63    24    59    1
    64    24    60    1
    65    25    61    1
    66    25    62    1
    67    26    63    1
    68    26    64    1
    69    30    65    1
    70    30    66    1
    71    31    67    1
    72    31    68    1
    73    33    69    1
    74    33    70    1
    75    34    71    1
    76    34    72    1
    77    40    73    1
    78    41    74    1
    79    42    75    1
    80    43    76    1
    81    44    77    1
