@<TRIPOS>MOLECULE
*****
 128 130 0 0 0
SMALL
GASTEIGER

@<TRIPOS>ATOM
      1 C          -2.8369   -1.0625    1.2231 C.3     1  UNL1        0.1371
      2 O          -2.7129   -0.8212    2.5771 O.3     1  UNL1       -0.3818
      3 C          -1.6562   -0.5195    0.4903 C.2     1  UNL1        0.2127
      4 O          -0.9045   -0.0821   -0.5881 O.2     1  UNL1       -0.4939
      5 N          -0.4632   -0.1350    0.7743 N.2     1  UNL1       -0.2521
      6 C           0.0990   -0.1480    2.1076 C.3     1  UNL1        0.0515
      7 C           0.4966   -1.5410    2.5303 C.3     1  UNL1        0.0426
      8 C           1.5560   -2.1396    1.6549 C.2     1  UNL1        0.1842
      9 O           2.2464   -3.2567    1.2354 O.2     1  UNL1       -0.4956
     10 N           2.4594   -2.0324    0.7915 N.2     1  UNL1       -0.2539
     11 C           2.9402   -0.8890    0.1293 C.3     1  UNL1        0.0520
     12 C           3.3511   -1.2061   -1.2986 C.3     1  UNL1        0.0137
     13 S           4.6270   -2.4529   -1.3792 S.3     1  UNL1       -0.1513
     14 C           6.2063   -1.9683   -0.6863 C.3     1  UNL1        0.0522
     15 C           6.8555   -0.8977   -1.4433 C.2     1  UNL1        0.1431
     16 O           7.9150   -0.7096   -0.8665 O.2     1  UNL1       -0.2965
     17 C           6.9770    0.0946   -2.5056 C.3     1  UNL1        0.0066
     18 C           8.3014    0.7654   -2.5940 C.3     1  UNL1       -0.0463
     19 C           9.4683   -0.1023   -2.9060 C.3     1  UNL1       -0.0527
     20 C          10.7345    0.7660   -2.9412 C.3     1  UNL1       -0.0530
     21 C          11.9524   -0.0590   -3.2754 C.3     1  UNL1       -0.0531
     22 C          13.2061    0.7505   -3.3115 C.3     1  UNL1       -0.0531
     23 C          13.5343    1.3971   -2.0077 C.3     1  UNL1       -0.0531
     24 C          13.7414    0.3825   -0.8942 C.3     1  UNL1       -0.0531
     25 C          14.0847    1.1770    0.3604 C.3     1  UNL1       -0.0531
     26 C          14.2975    0.2040    1.4923 C.3     1  UNL1       -0.0531
     27 C          15.4061   -0.7852    1.2444 C.3     1  UNL1       -0.0533
     28 C          16.7544   -0.1570    1.0237 C.3     1  UNL1       -0.0559
     29 C          17.1456    0.6365    2.2453 C.3     1  UNL1       -0.0653
     30 C          -4.1516   -0.6265    0.6462 C.3     1  UNL1        0.0236
     31 C          -4.1992   -0.9263   -0.8504 C.3     1  UNL1       -0.0549
     32 C          -5.2070   -1.5354    1.3137 C.3     1  UNL1       -0.0549
     33 C          -4.4787    0.8087    0.9163 C.3     1  UNL1        0.0670
     34 O          -4.5766    1.1454    2.2449 O.3     1  UNL1       -0.2857
     35 P          -5.3852    2.6497    2.3946 P.3     1  UNL1        0.4834
     36 O          -4.4845    3.5915    3.4616 O.3     1  UNL1       -0.3022
     37 O          -5.4410    3.3530    1.0572 O.2     1  UNL1       -0.2269
     38 O          -6.9356    2.4091    3.0228 O.3     1  UNL1       -0.1861
     39 P          -8.1501    2.6365    1.8931 P.3     1  UNL1        0.4835
     40 O          -7.6063    2.6659    0.3030 O.3     1  UNL1       -0.3022
     41 O          -8.7339    4.0277    2.1636 O.2     1  UNL1       -0.2269
     42 O          -9.4483    1.5619    2.1136 O.3     1  UNL1       -0.2837
     43 C          -9.5205    0.5942    1.1201 C.3     1  UNL1        0.0879
     44 C         -10.6666   -0.3444    1.3461 C.3     1  UNL1        0.1142
     45 O         -11.9124    0.2711    1.3707 O.3     1  UNL1       -0.3456
     46 C         -12.8575   -0.7222    1.1622 C.3     1  UNL1        0.1667
     47 N         -13.8748   -0.1991    0.2770 N.ar    1  UNL1       -0.2855
     48 C         -14.5532   -0.8884   -0.6576 C.ar    1  UNL1        0.1004
     49 N         -15.4477   -0.1210   -1.3319 N.ar    1  UNL1       -0.2306
     50 C         -15.3432    1.1160   -0.8120 C.ar    1  UNL1        0.1473
     51 C         -15.9972    2.2996   -1.0978 C.ar    1  UNL1        0.1472
     52 N         -16.9937    2.3578   -2.1122 N.pl3   1  UNL1       -0.3413
     53 N         -15.6576    3.3775   -0.3871 N.ar    1  UNL1       -0.2188
     54 C         -14.7082    3.3416    0.5875 C.ar    1  UNL1        0.1205
     55 N         -14.0687    2.1711    0.8630 N.ar    1  UNL1       -0.2159
     56 C         -14.3736    1.0482    0.1727 C.ar    1  UNL1        0.1674
     57 C         -12.1758   -1.9341    0.6259 C.3     1  UNL1        0.1294
     58 O         -11.9120   -2.8505    1.6710 O.3     1  UNL1       -0.3846
     59 C         -10.8071   -1.3629    0.2353 C.3     1  UNL1        0.1283
     60 O          -9.8332   -2.3501    0.2576 O.3     1  UNL1       -0.2780
     61 P          -9.2190   -2.4112   -1.3412 P.3     1  UNL1        0.4728
     62 O          -7.7778   -1.5536   -1.4546 O.3     1  UNL1       -0.3026
     63 O          -8.9717   -4.0127   -1.8367 O.3     1  UNL1       -0.3026
     64 O         -10.1858   -1.7888   -2.3206 O.2     1  UNL1       -0.2275
     65 H          -2.7860   -2.1981    1.0958 H       1  UNL1        0.0697
     66 H          -3.1198   -1.5526    3.0818 H       1  UNL1        0.2105
     67 H          -1.2447   -0.1899   -1.5381 H       1  UNL1        0.2935
     68 H           1.0138    0.5118    2.0673 H       1  UNL1        0.0514
     69 H          -0.5919    0.2554    2.8548 H       1  UNL1        0.0514
     70 H           0.8807   -1.4582    3.5890 H       1  UNL1        0.0377
     71 H          -0.3808   -2.1918    2.5990 H       1  UNL1        0.0377
     72 H           2.1660   -4.1893    1.6119 H       1  UNL1        0.2934
     73 H           3.8062   -0.3953    0.6402 H       1  UNL1        0.0517
     74 H           2.1719   -0.1113    0.0630 H       1  UNL1        0.0517
     75 H           3.5742   -0.2739   -1.8131 H       1  UNL1        0.0394
     76 H           2.4366   -1.6290   -1.7799 H       1  UNL1        0.0394
     77 H           6.8569   -2.8707   -0.6590 H       1  UNL1        0.0454
     78 H           6.0434   -1.6983    0.3853 H       1  UNL1        0.0454
     79 H           6.7061   -0.3247   -3.5192 H       1  UNL1        0.0342
     80 H           6.1643    0.8610   -2.3284 H       1  UNL1        0.0342
     81 H           8.2455    1.5819   -3.3700 H       1  UNL1        0.0269
     82 H           8.4702    1.3412   -1.6379 H       1  UNL1        0.0269
     83 H           9.3803   -0.4925   -3.9687 H       1  UNL1        0.0265
     84 H           9.6148   -0.9790   -2.2899 H       1  UNL1        0.0265
     85 H          10.8617    1.1750   -1.9157 H       1  UNL1        0.0265
     86 H          10.6218    1.6054   -3.6315 H       1  UNL1        0.0265
     87 H          11.8137   -0.5692   -4.2480 H       1  UNL1        0.0265
     88 H          12.0962   -0.8716   -2.5286 H       1  UNL1        0.0265
     89 H          14.0501    0.0905   -3.5924 H       1  UNL1        0.0265
     90 H          13.1678    1.5728   -4.0712 H       1  UNL1        0.0265
     91 H          12.7047    2.0555   -1.6408 H       1  UNL1        0.0265
     92 H          14.4504    1.9989   -2.0810 H       1  UNL1        0.0265
     93 H          12.8095   -0.1930   -0.7177 H       1  UNL1        0.0265
     94 H          14.5226   -0.3535   -1.1332 H       1  UNL1        0.0265
     95 H          13.2774    1.8500    0.6447 H       1  UNL1        0.0265
     96 H          14.9914    1.7933    0.2048 H       1  UNL1        0.0265
     97 H          13.3679   -0.3878    1.5942 H       1  UNL1        0.0265
     98 H          14.4227    0.7952    2.4018 H       1  UNL1        0.0265
     99 H          15.4935   -1.3776    2.1905 H       1  UNL1        0.0265
    100 H          15.1306   -1.4835    0.4446 H       1  UNL1        0.0265
    101 H          17.4695   -0.9792    0.8822 H       1  UNL1        0.0263
    102 H          16.7852    0.4669    0.1038 H       1  UNL1        0.0263
    103 H          17.3872    1.7035    1.9799 H       1  UNL1        0.0230
    104 H          18.0409    0.1822    2.6916 H       1  UNL1        0.0230
    105 H          16.3508    0.6183    3.0176 H       1  UNL1        0.0230
    106 H          -5.0454   -1.5841   -1.0657 H       1  UNL1        0.0237
    107 H          -3.2604   -1.4201   -1.1529 H       1  UNL1        0.0237
    108 H          -4.3751    0.0239   -1.4083 H       1  UNL1        0.0237
    109 H          -4.8006   -2.5623    1.2342 H       1  UNL1        0.0237
    110 H          -6.1386   -1.4681    0.7289 H       1  UNL1        0.0237
    111 H          -5.3176   -1.2730    2.3818 H       1  UNL1        0.0237
    112 H          -5.3999    1.0610    0.3430 H       1  UNL1        0.0572
    113 H          -3.6773    1.4543    0.4843 H       1  UNL1        0.0572
    114 H          -4.4822    3.1559    4.3725 H       1  UNL1        0.2220
    115 H          -7.6329    1.7885   -0.1345 H       1  UNL1        0.2220
    116 H          -9.5137    1.0343    0.1074 H       1  UNL1        0.0592
    117 H          -8.5909   -0.0028    1.1911 H       1  UNL1        0.0592
    118 H         -10.5459   -0.9217    2.2804 H       1  UNL1        0.0647
    119 H         -13.3540   -1.0150    2.1243 H       1  UNL1        0.0866
    120 H         -14.4889   -1.9232   -0.9364 H       1  UNL1        0.1030
    121 H         -17.0604    2.8432   -3.0272 H       1  UNL1        0.1438
    122 H         -17.9272    1.8545   -2.0782 H       1  UNL1        0.1438
    123 H         -14.4771    4.2568    1.1318 H       1  UNL1        0.1048
    124 H         -12.6595   -2.4436   -0.2055 H       1  UNL1        0.0666
    125 H         -12.3009   -2.5160    2.5242 H       1  UNL1        0.2101
    126 H         -10.9289   -0.8927   -0.7600 H       1  UNL1        0.0656
    127 H          -7.6242   -1.1393   -2.3361 H       1  UNL1        0.2220
    128 H          -9.7493   -4.5942   -1.6787 H       1  UNL1        0.2220
@<TRIPOS>BOND
     1     1     2    1
     2     1     3    1
     3     3     4    1
     4     3     5    2
     5     5     6    1
     6     6     7    1
     7     7     8    1
     8     8     9    1
     9     8    10    2
    10    10    11    1
    11    11    12    1
    12    12    13    1
    13    13    14    1
    14    14    15    1
    15    15    16    2
    16    15    17    1
    17    17    18    1
    18    18    19    1
    19    19    20    1
    20    20    21    1
    21    21    22    1
    22    22    23    1
    23    23    24    1
    24    24    25    1
    25    25    26    1
    26    26    27    1
    27    27    28    1
    28    28    29    1
    29     1    30    1
    30    30    31    1
    31    30    32    1
    32    30    33    1
    33    33    34    1
    34    34    35    1
    35    35    36    1
    36    35    37    2
    37    35    38    1
    38    38    39    1
    39    39    40    1
    40    39    41    2
    41    39    42    1
    42    42    43    1
    43    43    44    1
    44    44    45    1
    45    45    46    1
    46    46    47    1
    47    47    48   ar
    48    48    49   ar
    49    49    50   ar
    50    50    51   ar
    51    51    52    1
    52    51    53   ar
    53    53    54   ar
    54    54    55   ar
    55    55    56   ar
    56    46    57    1
    57    57    58    1
    58    57    59    1
    59    59    60    1
    60    60    61    1
    61    61    62    1
    62    61    63    1
    63    61    64    2
    64    59    44    1
    65    56    47   ar
    66    56    50   ar
    67     1    65    1
    68     2    66    1
    69     4    67    1
    70     6    68    1
    71     6    69    1
    72     7    70    1
    73     7    71    1
    74     9    72    1
    75    11    73    1
    76    11    74    1
    77    12    75    1
    78    12    76    1
    79    14    77    1
    80    14    78    1
    81    17    79    1
    82    17    80    1
    83    18    81    1
    84    18    82    1
    85    19    83    1
    86    19    84    1
    87    20    85    1
    88    20    86    1
    89    21    87    1
    90    21    88    1
    91    22    89    1
    92    22    90    1
    93    23    91    1
    94    23    92    1
    95    24    93    1
    96    24    94    1
    97    25    95    1
    98    25    96    1
    99    26    97    1
   100    26    98    1
   101    27    99    1
   102    27   100    1
   103    28   101    1
   104    28   102    1
   105    29   103    1
   106    29   104    1
   107    29   105    1
   108    31   106    1
   109    31   107    1
   110    31   108    1
   111    32   109    1
   112    32   110    1
   113    32   111    1
   114    33   112    1
   115    33   113    1
   116    36   114    1
   117    40   115    1
   118    43   116    1
   119    43   117    1
   120    44   118    1
   121    46   119    1
   122    48   120    1
   123    52   121    1
   124    52   122    1
   125    54   123    1
   126    57   124    1
   127    58   125    1
   128    59   126    1
   129    62   127    1
   130    63   128    1
