@<TRIPOS>MOLECULE
*****
 36 37 0 0 0
SMALL
GASTEIGER

@<TRIPOS>ATOM
      1 C           5.7802    0.5826   -0.5729 C.3     1  UNL1       -0.0653
      2 C           4.3793   -0.0041   -0.6285 C.3     1  UNL1       -0.0559
      3 C           3.5979    0.5875    0.4941 C.3     1  UNL1       -0.0533
      4 C           2.1781    0.0589    0.5310 C.3     1  UNL1       -0.0531
      5 C           1.4250    0.3703   -0.7339 C.3     1  UNL1       -0.0528
      6 C          -0.0017   -0.1495   -0.7262 C.3     1  UNL1       -0.0488
      7 C          -0.7637    0.4667    0.3961 C.3     1  UNL1       -0.0204
      8 C          -2.1970    0.0008    0.4649 C.2     1  UNL1        0.0466
      9 C          -2.5704   -0.6545    1.5772 C.2     1  UNL1        0.1717
     10 O          -1.7652   -0.9319    2.6431 O.2     1  UNL1       -0.5029
     11 C          -3.9647   -1.0800    1.5894 C.2     1  UNL1        0.2362
     12 O          -4.5047   -1.6946    2.5149 O.2     1  UNL1       -0.2827
     13 C          -4.8639   -0.8063    0.4750 C.ar    1  UNL1        0.0930
     14 C          -4.4837   -0.1403   -0.6540 C.ar    1  UNL1        0.1288
     15 N          -5.4305    0.0180   -1.5612 N.ar    1  UNL1       -0.2434
     16 C          -6.5265   -0.3183   -1.5477 C.ar    1  UNL1        0.0662
     17 S          -6.5400   -1.1567    0.1601 S.2     1  UNL1       -0.0714
     18 C          -3.0674    0.2920   -0.6668 C.2     1  UNL1        0.2121
     19 O          -2.5676    0.9279   -1.6589 O.2     1  UNL1       -0.2852
     20 H           5.6831    1.6855   -0.5114 H       1  UNL1        0.0230
     21 H           6.2660    0.2355    0.3523 H       1  UNL1        0.0230
     22 H           6.3993    0.2453   -1.4248 H       1  UNL1        0.0230
     23 H           3.9942    0.2215   -1.6449 H       1  UNL1        0.0263
     24 H           4.4355   -1.0943   -0.4952 H       1  UNL1        0.0263
     25 H           4.0881    0.2745    1.4375 H       1  UNL1        0.0265
     26 H           3.6320    1.7033    0.4992 H       1  UNL1        0.0265
     27 H           1.6887    0.4821    1.4539 H       1  UNL1        0.0265
     28 H           2.2526   -1.0217    0.7289 H       1  UNL1        0.0265
     29 H           1.4553    1.4497   -0.9854 H       1  UNL1        0.0265
     30 H           2.0065   -0.1160   -1.5662 H       1  UNL1        0.0265
     31 H          -0.4304    0.0589   -1.7232 H       1  UNL1        0.0268
     32 H           0.0277   -1.2630   -0.6217 H       1  UNL1        0.0268
     33 H          -0.3058    0.3119    1.3795 H       1  UNL1        0.0316
     34 H          -0.7381    1.5704    0.2281 H       1  UNL1        0.0316
     35 H          -1.3195   -0.2259    3.2387 H       1  UNL1        0.2923
     36 H          -7.2487   -0.0992   -2.4409 H       1  UNL1        0.0908
@<TRIPOS>BOND
     1     1     2    1
     2     2     3    1
     3     3     4    1
     4     4     5    1
     5     5     6    1
     6     6     7    1
     7     7     8    1
     8     8     9    2
     9     9    10    1
    10     9    11    1
    11    11    12    2
    12    11    13    1
    13    13    14   ar
    14    14    15   ar
    15    15    16   ar
    16    16    17   ar
    17    14    18    1
    18    18    19    2
    19    18     8    1
    20    17    13   ar
    21     1    20    1
    22     1    21    1
    23     1    22    1
    24     2    23    1
    25     2    24    1
    26     3    25    1
    27     3    26    1
    28     4    27    1
    29     4    28    1
    30     5    29    1
    31     5    30    1
    32     6    31    1
    33     6    32    1
    34     7    33    1
    35     7    34    1
    36    10    35    1
    37    16    36    1
