
     RDKit          3D

 36 37  0  0  0  0  0  0  0  0999 V2000
    5.7802    0.5826   -0.5729 C   0  0  0  0  0  0  0  0  0  0  0  0
    4.3793   -0.0041   -0.6285 C   0  0  0  0  0  0  0  0  0  0  0  0
    3.5979    0.5875    0.4941 C   0  0  0  0  0  0  0  0  0  0  0  0
    2.1781    0.0589    0.5310 C   0  0  0  0  0  0  0  0  0  0  0  0
    1.4250    0.3703   -0.7339 C   0  0  0  0  0  0  0  0  0  0  0  0
   -0.0017   -0.1495   -0.7262 C   0  0  0  0  0  0  0  0  0  0  0  0
   -0.7637    0.4667    0.3961 C   0  0  0  0  0  0  0  0  0  0  0  0
   -2.1970    0.0008    0.4649 C   0  0  0  0  0  0  0  0  0  0  0  0
   -2.5704   -0.6545    1.5772 C   0  0  0  0  0  0  0  0  0  0  0  0
   -1.7652   -0.9319    2.6431 O   0  0  0  0  0  0  0  0  0  0  0  0
   -3.9647   -1.0800    1.5894 C   0  0  0  0  0  0  0  0  0  0  0  0
   -4.5047   -1.6946    2.5149 O   0  0  0  0  0  0  0  0  0  0  0  0
   -4.8639   -0.8063    0.4750 C   0  0  0  0  0  0  0  0  0  0  0  0
   -4.4837   -0.1403   -0.6540 C   0  0  0  0  0  0  0  0  0  0  0  0
   -5.4305    0.0180   -1.5612 N   0  0  0  0  0  0  0  0  0  0  0  0
   -6.5265   -0.3183   -1.5477 C   0  0  0  0  0  0  0  0  0  0  0  0
   -6.5400   -1.1567    0.1601 S   0  0  0  0  0  0  0  0  0  0  0  0
   -3.0674    0.2920   -0.6668 C   0  0  0  0  0  0  0  0  0  0  0  0
   -2.5676    0.9279   -1.6589 O   0  0  0  0  0  0  0  0  0  0  0  0
    5.6831    1.6855   -0.5114 H   0  0  0  0  0  0  0  0  0  0  0  0
    6.2660    0.2355    0.3523 H   0  0  0  0  0  0  0  0  0  0  0  0
    6.3993    0.2453   -1.4248 H   0  0  0  0  0  0  0  0  0  0  0  0
    3.9942    0.2215   -1.6449 H   0  0  0  0  0  0  0  0  0  0  0  0
    4.4355   -1.0943   -0.4952 H   0  0  0  0  0  0  0  0  0  0  0  0
    4.0881    0.2745    1.4375 H   0  0  0  0  0  0  0  0  0  0  0  0
    3.6320    1.7033    0.4992 H   0  0  0  0  0  0  0  0  0  0  0  0
    1.6887    0.4821    1.4539 H   0  0  0  0  0  0  0  0  0  0  0  0
    2.2526   -1.0217    0.7289 H   0  0  0  0  0  0  0  0  0  0  0  0
    1.4553    1.4497   -0.9854 H   0  0  0  0  0  0  0  0  0  0  0  0
    2.0065   -0.1160   -1.5662 H   0  0  0  0  0  0  0  0  0  0  0  0
   -0.4304    0.0589   -1.7232 H   0  0  0  0  0  0  0  0  0  0  0  0
    0.0277   -1.2630   -0.6217 H   0  0  0  0  0  0  0  0  0  0  0  0
   -0.3058    0.3119    1.3795 H   0  0  0  0  0  0  0  0  0  0  0  0
   -0.7381    1.5704    0.2281 H   0  0  0  0  0  0  0  0  0  0  0  0
   -1.3195   -0.2259    3.2387 H   0  0  0  0  0  0  0  0  0  0  0  0
   -7.2487   -0.0992   -2.4409 H   0  0  0  0  0  0  0  0  0  0  0  0
  1  2  1  0
  2  3  1  0
  3  4  1  0
  4  5  1  0
  5  6  1  0
  6  7  1  0
  7  8  1  0
  8  9  2  0
  9 10  1  0
  9 11  1  0
 11 12  2  0
 11 13  1  0
 13 14  2  0
 14 15  1  0
 15 16  2  0
 16 17  1  0
 14 18  1  0
 18 19  2  0
 18  8  1  0
 17 13  1  0
  1 20  1  0
  1 21  1  0
  1 22  1  0
  2 23  1  0
  2 24  1  0
  3 25  1  0
  3 26  1  0
  4 27  1  0
  4 28  1  0
  5 29  1  0
  5 30  1  0
  6 31  1  0
  6 32  1  0
  7 33  1  0
  7 34  1  0
 10 35  1  0
 16 36  1  0
M  END
$$$$
