@<TRIPOS>MOLECULE
*****
 63 66 0 0 0
SMALL
GASTEIGER

@<TRIPOS>ATOM
      1 C          -0.0901    3.2979   -1.1880 C.3     1  UNL1       -0.0421
      2 C           0.1041    1.8937   -1.7597 C.3     1  UNL1        0.0515
      3 C           1.4133    1.3769   -1.3194 C.ar    1  UNL1       -0.0271
      4 C           2.3883    2.2201   -0.8395 C.ar    1  UNL1       -0.0562
      5 C           3.6259    1.7316   -0.4221 C.ar    1  UNL1       -0.0537
      6 C           3.9179    0.3844   -0.4750 C.ar    1  UNL1       -0.0177
      7 C           5.1882   -0.1948   -0.0552 C.ar    1  UNL1       -0.0114
      8 C           5.9308    0.3562    0.9700 C.ar    1  UNL1       -0.0376
      9 C           7.1313   -0.2200    1.3423 C.ar    1  UNL1        0.0082
     10 N           7.6388   -1.3157    0.7533 N.ar    1  UNL1       -0.3182
     11 C           8.9097   -1.8995    1.1706 C.3     1  UNL1        0.0147
     12 C           6.9270   -1.8634   -0.2464 C.ar    1  UNL1        0.2516
     13 O           7.4090   -2.8995   -0.8018 O.2     1  UNL1       -0.2677
     14 C           5.7241   -1.3204   -0.6495 C.ar    1  UNL1        0.0107
     15 C           2.9220   -0.4358   -0.9602 C.ar    1  UNL1       -0.0537
     16 C           1.6954    0.0331   -1.3758 C.ar    1  UNL1       -0.0562
     17 N          -0.9186    1.0526   -1.2288 N.am    1  UNL1       -0.2605
     18 C          -1.0502    0.7333    0.2006 C.3     1  UNL1        0.0224
     19 C          -2.5187    0.9327    0.5018 C.3     1  UNL1        0.0075
     20 C          -3.4228   -0.0284   -0.2169 C.3     1  UNL1        0.1415
     21 C          -4.6368    0.6918   -0.6937 C.3     1  UNL1       -0.0064
     22 C          -5.4195    1.3364    0.3700 C.3     1  UNL1       -0.0258
     23 C          -5.9878    0.4012    1.3936 C.3     1  UNL1        0.0443
     24 O          -6.7246    1.2358    2.2915 O.3     1  UNL1       -0.3950
     25 C          -3.6820   -1.2833    0.5028 C.ar    1  UNL1       -0.0041
     26 C          -4.6460   -2.1537    0.0156 C.ar    1  UNL1       -0.0548
     27 C          -4.8906   -3.3564    0.6435 C.ar    1  UNL1       -0.0614
     28 C          -4.1800   -3.7247    1.7757 C.ar    1  UNL1       -0.0617
     29 C          -3.2183   -2.8630    2.2669 C.ar    1  UNL1       -0.0614
     30 C          -2.9670   -1.6552    1.6431 C.ar    1  UNL1       -0.0548
     31 O          -2.7658   -0.4510   -1.4618 O.3     1  UNL1       -0.4388
     32 C          -1.9176    0.4373   -2.0510 C.2     1  UNL1        0.4042
     33 O          -1.9252    0.7760   -3.2700 O.2     1  UNL1       -0.2262
     34 H           0.2039    3.3663   -0.1406 H       1  UNL1        0.0251
     35 H          -1.1876    3.5501   -1.2399 H       1  UNL1        0.0251
     36 H           0.4205    4.0634   -1.7857 H       1  UNL1        0.0251
     37 H          -0.0226    1.9643   -2.8423 H       1  UNL1        0.0549
     38 H           2.1693    3.2928   -0.7921 H       1  UNL1        0.0621
     39 H           4.3843    2.4020   -0.0469 H       1  UNL1        0.0624
     40 H           5.5359    1.2423    1.4573 H       1  UNL1        0.0638
     41 H           7.7099    0.2188    2.1496 H       1  UNL1        0.0810
     42 H           8.9671   -2.9117    0.7278 H       1  UNL1        0.0457
     43 H           9.7693   -1.3229    0.7565 H       1  UNL1        0.0457
     44 H           8.9905   -1.9093    2.2730 H       1  UNL1        0.0457
     45 H           5.1514   -1.7664   -1.4589 H       1  UNL1        0.0678
     46 H           3.1358   -1.5057   -1.0091 H       1  UNL1        0.0624
     47 H           0.9201   -0.6221   -1.7556 H       1  UNL1        0.0621
     48 H          -0.4778    1.4338    0.8139 H       1  UNL1        0.0467
     49 H          -0.6990   -0.2943    0.3200 H       1  UNL1        0.0467
     50 H          -2.6934    0.9479    1.5968 H       1  UNL1        0.0322
     51 H          -2.7318    1.9985    0.1843 H       1  UNL1        0.0322
     52 H          -4.2436    1.5095   -1.3889 H       1  UNL1        0.0308
     53 H          -5.2622    0.0580   -1.3805 H       1  UNL1        0.0308
     54 H          -4.8135    2.0930    0.9554 H       1  UNL1        0.0289
     55 H          -6.2431    1.9864   -0.0765 H       1  UNL1        0.0289
     56 H          -6.6783   -0.2992    0.8933 H       1  UNL1        0.0557
     57 H          -5.2197   -0.1070    1.9837 H       1  UNL1        0.0557
     58 H          -6.9856    2.0762    1.8564 H       1  UNL1        0.2094
     59 H          -5.2351   -1.9112   -0.8758 H       1  UNL1        0.0622
     60 H          -5.6330   -4.0617    0.2952 H       1  UNL1        0.0618
     61 H          -4.3448   -4.6615    2.2954 H       1  UNL1        0.0618
     62 H          -2.6267   -3.0802    3.1409 H       1  UNL1        0.0618
     63 H          -2.2248   -0.9759    2.0138 H       1  UNL1        0.0622
@<TRIPOS>BOND
     1     1     2    1
     2     2     3    1
     3     3     4   ar
     4     4     5   ar
     5     5     6   ar
     6     6     7    1
     7     7     8   ar
     8     8     9   ar
     9     9    10   ar
    10    10    11    1
    11    10    12   ar
    12    12    13    2
    13    12    14   ar
    14     6    15   ar
    15    15    16   ar
    16     2    17    1
    17    17    18    1
    18    18    19    1
    19    19    20    1
    20    20    21    1
    21    21    22    1
    22    22    23    1
    23    23    24    1
    24    20    25    1
    25    25    26   ar
    26    26    27   ar
    27    27    28   ar
    28    28    29   ar
    29    29    30   ar
    30    20    31    1
    31    31    32    1
    32    32    33    2
    33    16     3   ar
    34    32    17   am
    35    14     7   ar
    36    30    25   ar
    37     1    34    1
    38     1    35    1
    39     1    36    1
    40     2    37    1
    41     4    38    1
    42     5    39    1
    43     8    40    1
    44     9    41    1
    45    11    42    1
    46    11    43    1
    47    11    44    1
    48    14    45    1
    49    15    46    1
    50    16    47    1
    51    18    48    1
    52    18    49    1
    53    19    50    1
    54    19    51    1
    55    21    52    1
    56    21    53    1
    57    22    54    1
    58    22    55    1
    59    23    56    1
    60    23    57    1
    61    24    58    1
    62    26    59    1
    63    27    60    1
    64    28    61    1
    65    29    62    1
    66    30    63    1
