
     RDKit          3D

 63 66  0  0  0  0  0  0  0  0999 V2000
   -0.0901    3.2979   -1.1880 C   0  0  0  0  0  0  0  0  0  0  0  0
    0.1041    1.8937   -1.7597 C   0  0  1  0  0  0  0  0  0  0  0  0
    1.4133    1.3769   -1.3194 C   0  0  0  0  0  0  0  0  0  0  0  0
    2.3883    2.2201   -0.8395 C   0  0  0  0  0  0  0  0  0  0  0  0
    3.6259    1.7316   -0.4221 C   0  0  0  0  0  0  0  0  0  0  0  0
    3.9179    0.3844   -0.4750 C   0  0  0  0  0  0  0  0  0  0  0  0
    5.1882   -0.1948   -0.0552 C   0  0  0  0  0  0  0  0  0  0  0  0
    5.9308    0.3562    0.9700 C   0  0  0  0  0  0  0  0  0  0  0  0
    7.1313   -0.2200    1.3423 C   0  0  0  0  0  0  0  0  0  0  0  0
    7.6388   -1.3157    0.7533 N   0  0  0  0  0  0  0  0  0  0  0  0
    8.9097   -1.8995    1.1706 C   0  0  0  0  0  0  0  0  0  0  0  0
    6.9270   -1.8634   -0.2464 C   0  0  0  0  0  0  0  0  0  0  0  0
    7.4090   -2.8995   -0.8018 O   0  0  0  0  0  0  0  0  0  0  0  0
    5.7241   -1.3204   -0.6495 C   0  0  0  0  0  0  0  0  0  0  0  0
    2.9220   -0.4358   -0.9602 C   0  0  0  0  0  0  0  0  0  0  0  0
    1.6954    0.0331   -1.3758 C   0  0  0  0  0  0  0  0  0  0  0  0
   -0.9186    1.0526   -1.2288 N   0  0  0  0  0  0  0  0  0  0  0  0
   -1.0502    0.7333    0.2006 C   0  0  0  0  0  0  0  0  0  0  0  0
   -2.5187    0.9327    0.5018 C   0  0  0  0  0  0  0  0  0  0  0  0
   -3.4228   -0.0284   -0.2169 C   0  0  2  0  0  0  0  0  0  0  0  0
   -4.6368    0.6918   -0.6937 C   0  0  0  0  0  0  0  0  0  0  0  0
   -5.4195    1.3364    0.3700 C   0  0  0  0  0  0  0  0  0  0  0  0
   -5.9878    0.4012    1.3936 C   0  0  0  0  0  0  0  0  0  0  0  0
   -6.7246    1.2358    2.2915 O   0  0  0  0  0  0  0  0  0  0  0  0
   -3.6820   -1.2833    0.5028 C   0  0  0  0  0  0  0  0  0  0  0  0
   -4.6460   -2.1537    0.0156 C   0  0  0  0  0  0  0  0  0  0  0  0
   -4.8906   -3.3564    0.6435 C   0  0  0  0  0  0  0  0  0  0  0  0
   -4.1800   -3.7247    1.7757 C   0  0  0  0  0  0  0  0  0  0  0  0
   -3.2183   -2.8630    2.2669 C   0  0  0  0  0  0  0  0  0  0  0  0
   -2.9670   -1.6552    1.6431 C   0  0  0  0  0  0  0  0  0  0  0  0
   -2.7658   -0.4510   -1.4618 O   0  0  0  0  0  0  0  0  0  0  0  0
   -1.9176    0.4373   -2.0510 C   0  0  0  0  0  0  0  0  0  0  0  0
   -1.9252    0.7760   -3.2700 O   0  0  0  0  0  0  0  0  0  0  0  0
    0.2039    3.3663   -0.1406 H   0  0  0  0  0  0  0  0  0  0  0  0
   -1.1876    3.5501   -1.2399 H   0  0  0  0  0  0  0  0  0  0  0  0
    0.4205    4.0634   -1.7857 H   0  0  0  0  0  0  0  0  0  0  0  0
   -0.0226    1.9643   -2.8423 H   0  0  0  0  0  0  0  0  0  0  0  0
    2.1693    3.2928   -0.7921 H   0  0  0  0  0  0  0  0  0  0  0  0
    4.3843    2.4020   -0.0469 H   0  0  0  0  0  0  0  0  0  0  0  0
    5.5359    1.2423    1.4573 H   0  0  0  0  0  0  0  0  0  0  0  0
    7.7099    0.2188    2.1496 H   0  0  0  0  0  0  0  0  0  0  0  0
    8.9671   -2.9117    0.7278 H   0  0  0  0  0  0  0  0  0  0  0  0
    9.7693   -1.3229    0.7565 H   0  0  0  0  0  0  0  0  0  0  0  0
    8.9905   -1.9093    2.2730 H   0  0  0  0  0  0  0  0  0  0  0  0
    5.1514   -1.7664   -1.4589 H   0  0  0  0  0  0  0  0  0  0  0  0
    3.1358   -1.5057   -1.0091 H   0  0  0  0  0  0  0  0  0  0  0  0
    0.9201   -0.6221   -1.7556 H   0  0  0  0  0  0  0  0  0  0  0  0
   -0.4778    1.4338    0.8139 H   0  0  0  0  0  0  0  0  0  0  0  0
   -0.6990   -0.2943    0.3200 H   0  0  0  0  0  0  0  0  0  0  0  0
   -2.6934    0.9479    1.5968 H   0  0  0  0  0  0  0  0  0  0  0  0
   -2.7318    1.9985    0.1843 H   0  0  0  0  0  0  0  0  0  0  0  0
   -4.2436    1.5095   -1.3889 H   0  0  0  0  0  0  0  0  0  0  0  0
   -5.2622    0.0580   -1.3805 H   0  0  0  0  0  0  0  0  0  0  0  0
   -4.8135    2.0930    0.9554 H   0  0  0  0  0  0  0  0  0  0  0  0
   -6.2431    1.9864   -0.0765 H   0  0  0  0  0  0  0  0  0  0  0  0
   -6.6783   -0.2992    0.8933 H   0  0  0  0  0  0  0  0  0  0  0  0
   -5.2197   -0.1070    1.9837 H   0  0  0  0  0  0  0  0  0  0  0  0
   -6.9856    2.0762    1.8564 H   0  0  0  0  0  0  0  0  0  0  0  0
   -5.2351   -1.9112   -0.8758 H   0  0  0  0  0  0  0  0  0  0  0  0
   -5.6330   -4.0617    0.2952 H   0  0  0  0  0  0  0  0  0  0  0  0
   -4.3448   -4.6615    2.2954 H   0  0  0  0  0  0  0  0  0  0  0  0
   -2.6267   -3.0802    3.1409 H   0  0  0  0  0  0  0  0  0  0  0  0
   -2.2248   -0.9759    2.0138 H   0  0  0  0  0  0  0  0  0  0  0  0
  1  2  1  0
  2  3  1  0
  3  4  2  0
  4  5  1  0
  5  6  2  0
  6  7  1  0
  7  8  1  0
  8  9  2  0
  9 10  1  0
 10 11  1  0
 10 12  1  0
 12 13  2  0
 12 14  1  0
  6 15  1  0
 15 16  2  0
  2 17  1  0
 17 18  1  0
 18 19  1  0
 19 20  1  0
 20 21  1  6
 21 22  1  0
 22 23  1  0
 23 24  1  0
 20 25  1  0
 25 26  2  0
 26 27  1  0
 27 28  2  0
 28 29  1  0
 29 30  2  0
 20 31  1  0
 31 32  1  0
 32 33  2  0
 16  3  1  0
 32 17  1  0
 14  7  2  0
 30 25  1  0
  1 34  1  0
  1 35  1  0
  1 36  1  0
  2 37  1  6
  4 38  1  0
  5 39  1  0
  8 40  1  0
  9 41  1  0
 11 42  1  0
 11 43  1  0
 11 44  1  0
 14 45  1  0
 15 46  1  0
 16 47  1  0
 18 48  1  0
 18 49  1  0
 19 50  1  0
 19 51  1  0
 21 52  1  0
 21 53  1  0
 22 54  1  0
 22 55  1  0
 23 56  1  0
 23 57  1  0
 24 58  1  0
 26 59  1  0
 27 60  1  0
 28 61  1  0
 29 62  1  0
 30 63  1  0
M  END
$$$$
