@<TRIPOS>MOLECULE
*****
 46 49 0 0 0
SMALL
GASTEIGER

@<TRIPOS>ATOM
      1 C          -3.7905    3.5399   -0.8844 C.3     1  UNL1        0.0790
      2 O          -3.6935    2.1590   -0.9955 O.3     1  UNL1       -0.4913
      3 C          -2.6890    1.3438   -0.5478 C.ar    1  UNL1        0.1657
      4 C          -1.5802    1.8033    0.1121 C.ar    1  UNL1       -0.0082
      5 C          -0.5603    0.9527    0.5607 C.ar    1  UNL1       -0.0050
      6 C           0.5620    1.5314    1.2889 C.2     1  UNL1        0.0572
      7 C           1.8572    1.4136    1.0771 C.2     1  UNL1        0.0589
      8 C           2.5421    0.6627    0.0408 C.ar    1  UNL1        0.0129
      9 C           3.0955    1.2250   -1.1129 C.ar    1  UNL1        0.0106
     10 N           3.7064    0.2793   -1.8422 N.ar    1  UNL1       -0.3600
     11 C           3.5771   -0.9113   -1.2027 C.ar    1  UNL1        0.0471
     12 C           4.0379   -2.1543   -1.5520 C.ar    1  UNL1       -0.0368
     13 C           3.7700   -3.2024   -0.7074 C.ar    1  UNL1       -0.0466
     14 C           3.0512   -3.0250    0.4781 C.ar    1  UNL1        0.0141
     15 I           2.6580   -4.6843    1.7516 I       1  UNL1       -0.0438
     16 C           2.6101   -1.7645    0.7873 C.ar    1  UNL1       -0.0389
     17 C           2.8501   -0.6687   -0.0286 C.ar    1  UNL1        0.0085
     18 C           2.5797    2.2067    2.1221 C.2     1  UNL1        0.2519
     19 O           3.8411    2.2795    2.1694 O.2     1  UNL1       -0.2697
     20 N           1.6282    2.7979    2.9624 N.am    1  UNL1       -0.2483
     21 C           0.3749    2.4056    2.4814 C.2     1  UNL1        0.2518
     22 O          -0.7391    2.7196    2.9530 O.2     1  UNL1       -0.2697
     23 C          -0.7522   -0.3755    0.2910 C.ar    1  UNL1       -0.0082
     24 C          -1.8572   -0.8940   -0.3732 C.ar    1  UNL1        0.1657
     25 O          -1.9933   -2.2408   -0.6105 O.3     1  UNL1       -0.4913
     26 C          -1.1242   -3.2656   -0.2628 C.3     1  UNL1        0.0790
     27 C          -2.8371   -0.0266   -0.7984 C.ar    1  UNL1        0.2035
     28 O          -3.9195   -0.5645   -1.4545 O.3     1  UNL1       -0.4885
     29 C          -5.1100   -1.0258   -0.8950 C.3     1  UNL1        0.0791
     30 H          -3.6931    3.9480    0.1390 H       1  UNL1        0.0660
     31 H          -4.8085    3.8360   -1.2212 H       1  UNL1        0.0660
     32 H          -3.0757    4.0969   -1.5387 H       1  UNL1        0.0660
     33 H          -1.4602    2.8735    0.3117 H       1  UNL1        0.0661
     34 H           3.0032    2.2994   -1.3245 H       1  UNL1        0.0813
     35 H           4.2028    0.4229   -2.7520 H       1  UNL1        0.1654
     36 H           4.6052   -2.2691   -2.4912 H       1  UNL1        0.0639
     37 H           4.1172   -4.1884   -0.9485 H       1  UNL1        0.0629
     38 H           2.0402   -1.5797    1.7111 H       1  UNL1        0.0635
     39 H           1.8771    3.4097    3.7832 H       1  UNL1        0.1581
     40 H          -0.0322   -1.0779    0.6112 H       1  UNL1        0.0661
     41 H          -0.1156   -3.0308   -0.7153 H       1  UNL1        0.0660
     42 H          -1.4588   -4.2234   -0.7159 H       1  UNL1        0.0660
     43 H          -1.0037   -3.3678    0.8401 H       1  UNL1        0.0660
     44 H          -5.9547   -0.3733   -1.1194 H       1  UNL1        0.0660
     45 H          -5.0196   -1.2664    0.1996 H       1  UNL1        0.0660
     46 H          -5.3189   -2.0259   -1.3721 H       1  UNL1        0.0660
@<TRIPOS>BOND
     1     1     2    1
     2     2     3    1
     3     3     4   ar
     4     4     5   ar
     5     5     6    1
     6     6     7    2
     7     7     8    1
     8     8     9   ar
     9     9    10   ar
    10    10    11   ar
    11    11    12   ar
    12    12    13   ar
    13    13    14   ar
    14    14    15    1
    15    14    16   ar
    16    16    17   ar
    17     7    18    1
    18    18    19    2
    19    18    20   am
    20    20    21   am
    21    21    22    2
    22     5    23   ar
    23    23    24   ar
    24    24    25    1
    25    25    26    1
    26    24    27   ar
    27    27    28    1
    28    28    29    1
    29    27     3   ar
    30    21     6    1
    31    17     8   ar
    32    17    11   ar
    33     1    30    1
    34     1    31    1
    35     1    32    1
    36     4    33    1
    37     9    34    1
    38    10    35    1
    39    12    36    1
    40    13    37    1
    41    16    38    1
    42    20    39    1
    43    23    40    1
    44    26    41    1
    45    26    42    1
    46    26    43    1
    47    29    44    1
    48    29    45    1
    49    29    46    1
