
     RDKit          3D

 46 49  0  0  0  0  0  0  0  0999 V2000
   -3.7905    3.5399   -0.8844 C   0  0  0  0  0  0  0  0  0  0  0  0
   -3.6935    2.1590   -0.9955 O   0  0  0  0  0  0  0  0  0  0  0  0
   -2.6890    1.3438   -0.5478 C   0  0  0  0  0  0  0  0  0  0  0  0
   -1.5802    1.8033    0.1121 C   0  0  0  0  0  0  0  0  0  0  0  0
   -0.5603    0.9527    0.5607 C   0  0  0  0  0  0  0  0  0  0  0  0
    0.5620    1.5314    1.2889 C   0  0  0  0  0  0  0  0  0  0  0  0
    1.8572    1.4136    1.0771 C   0  0  0  0  0  0  0  0  0  0  0  0
    2.5421    0.6627    0.0408 C   0  0  0  0  0  0  0  0  0  0  0  0
    3.0955    1.2250   -1.1129 C   0  0  0  0  0  0  0  0  0  0  0  0
    3.7064    0.2793   -1.8422 N   0  0  0  0  0  0  0  0  0  0  0  0
    3.5771   -0.9113   -1.2027 C   0  0  0  0  0  0  0  0  0  0  0  0
    4.0379   -2.1543   -1.5520 C   0  0  0  0  0  0  0  0  0  0  0  0
    3.7700   -3.2024   -0.7074 C   0  0  0  0  0  0  0  0  0  0  0  0
    3.0512   -3.0250    0.4781 C   0  0  0  0  0  0  0  0  0  0  0  0
    2.6580   -4.6843    1.7516 I   0  0  0  0  0  0  0  0  0  0  0  0
    2.6101   -1.7645    0.7873 C   0  0  0  0  0  0  0  0  0  0  0  0
    2.8501   -0.6687   -0.0286 C   0  0  0  0  0  0  0  0  0  0  0  0
    2.5797    2.2067    2.1221 C   0  0  0  0  0  0  0  0  0  0  0  0
    3.8411    2.2795    2.1694 O   0  0  0  0  0  0  0  0  0  0  0  0
    1.6282    2.7979    2.9624 N   0  0  0  0  0  0  0  0  0  0  0  0
    0.3749    2.4056    2.4814 C   0  0  0  0  0  0  0  0  0  0  0  0
   -0.7391    2.7196    2.9530 O   0  0  0  0  0  0  0  0  0  0  0  0
   -0.7522   -0.3755    0.2910 C   0  0  0  0  0  0  0  0  0  0  0  0
   -1.8572   -0.8940   -0.3732 C   0  0  0  0  0  0  0  0  0  0  0  0
   -1.9933   -2.2408   -0.6105 O   0  0  0  0  0  0  0  0  0  0  0  0
   -1.1242   -3.2656   -0.2628 C   0  0  0  0  0  0  0  0  0  0  0  0
   -2.8371   -0.0266   -0.7984 C   0  0  0  0  0  0  0  0  0  0  0  0
   -3.9195   -0.5645   -1.4545 O   0  0  0  0  0  0  0  0  0  0  0  0
   -5.1100   -1.0258   -0.8950 C   0  0  0  0  0  0  0  0  0  0  0  0
   -3.6931    3.9480    0.1390 H   0  0  0  0  0  0  0  0  0  0  0  0
   -4.8085    3.8360   -1.2212 H   0  0  0  0  0  0  0  0  0  0  0  0
   -3.0757    4.0969   -1.5387 H   0  0  0  0  0  0  0  0  0  0  0  0
   -1.4602    2.8735    0.3117 H   0  0  0  0  0  0  0  0  0  0  0  0
    3.0032    2.2994   -1.3245 H   0  0  0  0  0  0  0  0  0  0  0  0
    4.2028    0.4229   -2.7520 H   0  0  0  0  0  0  0  0  0  0  0  0
    4.6052   -2.2691   -2.4912 H   0  0  0  0  0  0  0  0  0  0  0  0
    4.1172   -4.1884   -0.9485 H   0  0  0  0  0  0  0  0  0  0  0  0
    2.0402   -1.5797    1.7111 H   0  0  0  0  0  0  0  0  0  0  0  0
    1.8771    3.4097    3.7832 H   0  0  0  0  0  0  0  0  0  0  0  0
   -0.0322   -1.0779    0.6112 H   0  0  0  0  0  0  0  0  0  0  0  0
   -0.1156   -3.0308   -0.7153 H   0  0  0  0  0  0  0  0  0  0  0  0
   -1.4588   -4.2234   -0.7159 H   0  0  0  0  0  0  0  0  0  0  0  0
   -1.0037   -3.3678    0.8401 H   0  0  0  0  0  0  0  0  0  0  0  0
   -5.9547   -0.3733   -1.1194 H   0  0  0  0  0  0  0  0  0  0  0  0
   -5.0196   -1.2664    0.1996 H   0  0  0  0  0  0  0  0  0  0  0  0
   -5.3189   -2.0259   -1.3721 H   0  0  0  0  0  0  0  0  0  0  0  0
  1  2  1  0
  2  3  1  0
  3  4  2  0
  4  5  1  0
  5  6  1  0
  6  7  2  0
  7  8  1  0
  8  9  2  0
  9 10  1  0
 10 11  1  0
 11 12  2  0
 12 13  1  0
 13 14  2  0
 14 15  1  0
 14 16  1  0
 16 17  2  0
  7 18  1  0
 18 19  2  0
 18 20  1  0
 20 21  1  0
 21 22  2  0
  5 23  2  0
 23 24  1  0
 24 25  1  0
 25 26  1  0
 24 27  2  0
 27 28  1  0
 28 29  1  0
 27  3  1  0
 21  6  1  0
 17  8  1  0
 17 11  1  0
  1 30  1  0
  1 31  1  0
  1 32  1  0
  4 33  1  0
  9 34  1  0
 10 35  1  0
 12 36  1  0
 13 37  1  0
 16 38  1  0
 20 39  1  0
 23 40  1  0
 26 41  1  0
 26 42  1  0
 26 43  1  0
 29 44  1  0
 29 45  1  0
 29 46  1  0
M  END
$$$$
