
     RDKit          3D

 55 56  0  0  0  0  0  0  0  0999 V2000
   -4.0628    0.3995   -0.4216 C   0  0  0  0  0  0  0  0  0  0  0  0
   -2.7620    0.3295   -0.8763 O   0  0  0  0  0  0  0  0  0  0  0  0
   -1.5866    0.1173   -0.2125 C   0  0  0  0  0  0  0  0  0  0  0  0
   -1.0820   -1.1416   -0.0004 C   0  0  0  0  0  0  0  0  0  0  0  0
   -1.8054   -2.3470   -0.4739 C   0  0  0  0  0  0  0  0  0  0  0  0
   -0.9640   -3.5534   -0.0937 C   0  0  0  0  0  0  0  0  0  0  0  0
   -1.9882   -2.3969   -1.9527 C   0  0  0  0  0  0  0  0  0  0  0  0
   -3.1251   -2.5441    0.2726 C   0  0  0  0  0  0  0  0  0  0  0  0
    0.1060   -1.2921    0.6682 C   0  0  0  0  0  0  0  0  0  0  0  0
    0.8472   -0.2408    1.1543 C   0  0  0  0  0  0  0  0  0  0  0  0
    2.1300   -0.4104    1.8663 C   0  0  0  0  0  0  0  0  0  0  0  0
    3.3288   -0.2151    1.0121 C   0  0  0  0  0  0  0  0  0  0  0  0
    4.0484    0.9838    1.0892 C   0  0  0  0  0  0  0  0  0  0  0  0
    5.1344    1.1986    0.3286 N   0  0  0  0  0  0  0  0  0  0  0  0
    5.5951    0.2863   -0.5458 C   0  0  0  0  0  0  0  0  0  0  0  0
    6.7496    0.5497   -1.3356 N   0  0  0  0  0  0  0  0  0  0  0  0
    4.9227   -0.8705   -0.6379 N   0  0  0  0  0  0  0  0  0  0  0  0
    3.8112   -1.1377    0.1146 C   0  0  0  0  0  0  0  0  0  0  0  0
    3.1409   -2.3777   -0.0165 N   0  0  0  0  0  0  0  0  0  0  0  0
    0.3034    1.0117    0.9202 C   0  0  0  0  0  0  0  0  0  0  0  0
   -0.8897    1.2120    0.2518 C   0  0  0  0  0  0  0  0  0  0  0  0
   -1.3355    2.6109    0.0952 C   0  0  0  0  0  0  0  0  0  0  0  0
   -2.6241    2.9713    0.7211 C   0  0  0  0  0  0  0  0  0  0  0  0
   -1.4761    2.9494   -1.4053 C   0  0  0  0  0  0  0  0  0  0  0  0
   -0.2515    3.5336    0.5993 C   0  0  0  0  0  0  0  0  0  0  0  0
   -4.2084    0.3906    0.6675 H   0  0  0  0  0  0  0  0  0  0  0  0
   -4.5230    1.3685   -0.7842 H   0  0  0  0  0  0  0  0  0  0  0  0
   -4.7381   -0.3619   -0.9261 H   0  0  0  0  0  0  0  0  0  0  0  0
   -0.9026   -3.7057    1.0015 H   0  0  0  0  0  0  0  0  0  0  0  0
   -1.5526   -4.4490   -0.4565 H   0  0  0  0  0  0  0  0  0  0  0  0
    0.0140   -3.5790   -0.6053 H   0  0  0  0  0  0  0  0  0  0  0  0
   -2.8104   -1.7721   -2.3346 H   0  0  0  0  0  0  0  0  0  0  0  0
   -2.2308   -3.4476   -2.2283 H   0  0  0  0  0  0  0  0  0  0  0  0
   -1.0341   -2.1557   -2.4428 H   0  0  0  0  0  0  0  0  0  0  0  0
   -3.1733   -3.5620    0.7689 H   0  0  0  0  0  0  0  0  0  0  0  0
   -3.9827   -2.5358   -0.3995 H   0  0  0  0  0  0  0  0  0  0  0  0
   -3.1677   -1.8435    1.1286 H   0  0  0  0  0  0  0  0  0  0  0  0
    0.5345   -2.2887    0.8618 H   0  0  0  0  0  0  0  0  0  0  0  0
    2.2146    0.3236    2.7168 H   0  0  0  0  0  0  0  0  0  0  0  0
    2.1392   -1.4035    2.3665 H   0  0  0  0  0  0  0  0  0  0  0  0
    3.6763    1.7234    1.7969 H   0  0  0  0  0  0  0  0  0  0  0  0
    7.2340    1.4645   -1.2244 H   0  0  0  0  0  0  0  0  0  0  0  0
    7.1422   -0.1125   -2.0183 H   0  0  0  0  0  0  0  0  0  0  0  0
    2.4052   -2.5714   -0.7235 H   0  0  0  0  0  0  0  0  0  0  0  0
    3.3996   -3.1447    0.6348 H   0  0  0  0  0  0  0  0  0  0  0  0
    0.9128    1.8401    1.3185 H   0  0  0  0  0  0  0  0  0  0  0  0
   -3.4135    3.2817    0.0065 H   0  0  0  0  0  0  0  0  0  0  0  0
   -2.9136    2.2294    1.4632 H   0  0  0  0  0  0  0  0  0  0  0  0
   -2.4526    3.9150    1.3316 H   0  0  0  0  0  0  0  0  0  0  0  0
   -2.2842    2.3785   -1.8605 H   0  0  0  0  0  0  0  0  0  0  0  0
   -1.8270    4.0232   -1.4014 H   0  0  0  0  0  0  0  0  0  0  0  0
   -0.5091    2.9299   -1.9150 H   0  0  0  0  0  0  0  0  0  0  0  0
    0.7106    3.4180    0.0875 H   0  0  0  0  0  0  0  0  0  0  0  0
   -0.6015    4.5664    0.3482 H   0  0  0  0  0  0  0  0  0  0  0  0
   -0.2224    3.4543    1.7006 H   0  0  0  0  0  0  0  0  0  0  0  0
  1  2  1  0
  2  3  1  0
  3  4  2  0
  4  5  1  0
  5  6  1  0
  5  7  1  0
  5  8  1  0
  4  9  1  0
  9 10  2  0
 10 11  1  0
 11 12  1  0
 12 13  2  0
 13 14  1  0
 14 15  2  0
 15 16  1  0
 15 17  1  0
 17 18  2  0
 18 19  1  0
 10 20  1  0
 20 21  2  0
 21 22  1  0
 22 23  1  0
 22 24  1  0
 22 25  1  0
 21  3  1  0
 18 12  1  0
  1 26  1  0
  1 27  1  0
  1 28  1  0
  6 29  1  0
  6 30  1  0
  6 31  1  0
  7 32  1  0
  7 33  1  0
  7 34  1  0
  8 35  1  0
  8 36  1  0
  8 37  1  0
  9 38  1  0
 11 39  1  0
 11 40  1  0
 13 41  1  0
 16 42  1  0
 16 43  1  0
 19 44  1  0
 19 45  1  0
 20 46  1  0
 23 47  1  0
 23 48  1  0
 23 49  1  0
 24 50  1  0
 24 51  1  0
 24 52  1  0
 25 53  1  0
 25 54  1  0
 25 55  1  0
M  END
$$$$
