@<TRIPOS>MOLECULE
*****
 55 56 0 0 0
SMALL
GASTEIGER

@<TRIPOS>ATOM
      1 C          -4.0628    0.3995   -0.4216 C.3     1  UNL1        0.0788
      2 O          -2.7620    0.3295   -0.8763 O.3     1  UNL1       -0.4945
      3 C          -1.5866    0.1173   -0.2125 C.ar    1  UNL1        0.1274
      4 C          -1.0820   -1.1416   -0.0004 C.ar    1  UNL1        0.0002
      5 C          -1.8054   -2.3470   -0.4739 C.3     1  UNL1       -0.0092
      6 C          -0.9640   -3.5534   -0.0937 C.3     1  UNL1       -0.0559
      7 C          -1.9882   -2.3969   -1.9527 C.3     1  UNL1       -0.0559
      8 C          -3.1251   -2.5441    0.2726 C.3     1  UNL1       -0.0559
      9 C           0.1060   -1.2921    0.6682 C.ar    1  UNL1       -0.0511
     10 C           0.8472   -0.2408    1.1543 C.ar    1  UNL1       -0.0421
     11 C           2.1300   -0.4104    1.8663 C.3     1  UNL1        0.0023
     12 C           3.3288   -0.2151    1.0121 C.ar    1  UNL1        0.0146
     13 C           4.0484    0.9838    1.0892 C.ar    1  UNL1        0.0379
     14 N           5.1344    1.1986    0.3286 N.ar    1  UNL1       -0.2227
     15 C           5.5951    0.2863   -0.5458 C.ar    1  UNL1        0.2142
     16 N           6.7496    0.5497   -1.3356 N.pl3   1  UNL1       -0.3274
     17 N           4.9227   -0.8705   -0.6379 N.ar    1  UNL1       -0.1999
     18 C           3.8112   -1.1377    0.1146 C.ar    1  UNL1        0.1247
     19 N           3.1409   -2.3777   -0.0165 N.pl3   1  UNL1       -0.3428
     20 C           0.3034    1.0117    0.9202 C.ar    1  UNL1       -0.0511
     21 C          -0.8897    1.2120    0.2518 C.ar    1  UNL1        0.0002
     22 C          -1.3355    2.6109    0.0952 C.3     1  UNL1       -0.0092
     23 C          -2.6241    2.9713    0.7211 C.3     1  UNL1       -0.0559
     24 C          -1.4761    2.9494   -1.4053 C.3     1  UNL1       -0.0559
     25 C          -0.2515    3.5336    0.5993 C.3     1  UNL1       -0.0559
     26 H          -4.2084    0.3906    0.6675 H       1  UNL1        0.0660
     27 H          -4.5230    1.3685   -0.7842 H       1  UNL1        0.0660
     28 H          -4.7381   -0.3619   -0.9261 H       1  UNL1        0.0660
     29 H          -0.9026   -3.7057    1.0015 H       1  UNL1        0.0238
     30 H          -1.5526   -4.4490   -0.4565 H       1  UNL1        0.0238
     31 H           0.0140   -3.5790   -0.6053 H       1  UNL1        0.0238
     32 H          -2.8104   -1.7721   -2.3346 H       1  UNL1        0.0238
     33 H          -2.2308   -3.4476   -2.2283 H       1  UNL1        0.0238
     34 H          -1.0341   -2.1557   -2.4428 H       1  UNL1        0.0238
     35 H          -3.1733   -3.5620    0.7689 H       1  UNL1        0.0238
     36 H          -3.9827   -2.5358   -0.3995 H       1  UNL1        0.0238
     37 H          -3.1677   -1.8435    1.1286 H       1  UNL1        0.0238
     38 H           0.5345   -2.2887    0.8618 H       1  UNL1        0.0624
     39 H           2.2146    0.3236    2.7168 H       1  UNL1        0.0363
     40 H           2.1392   -1.4035    2.3665 H       1  UNL1        0.0363
     41 H           3.6763    1.7234    1.7969 H       1  UNL1        0.0834
     42 H           7.2340    1.4645   -1.2244 H       1  UNL1        0.1452
     43 H           7.1422   -0.1125   -2.0183 H       1  UNL1        0.1452
     44 H           2.4052   -2.5714   -0.7235 H       1  UNL1        0.1437
     45 H           3.3996   -3.1447    0.6348 H       1  UNL1        0.1437
     46 H           0.9128    1.8401    1.3185 H       1  UNL1        0.0624
     47 H          -3.4135    3.2817    0.0065 H       1  UNL1        0.0238
     48 H          -2.9136    2.2294    1.4632 H       1  UNL1        0.0238
     49 H          -2.4526    3.9150    1.3316 H       1  UNL1        0.0238
     50 H          -2.2842    2.3785   -1.8605 H       1  UNL1        0.0238
     51 H          -1.8270    4.0232   -1.4014 H       1  UNL1        0.0238
     52 H          -0.5091    2.9299   -1.9150 H       1  UNL1        0.0238
     53 H           0.7106    3.4180    0.0875 H       1  UNL1        0.0238
     54 H          -0.6015    4.5664    0.3482 H       1  UNL1        0.0238
     55 H          -0.2224    3.4543    1.7006 H       1  UNL1        0.0238
@<TRIPOS>BOND
     1     1     2    1
     2     2     3    1
     3     3     4   ar
     4     4     5    1
     5     5     6    1
     6     5     7    1
     7     5     8    1
     8     4     9   ar
     9     9    10   ar
    10    10    11    1
    11    11    12    1
    12    12    13   ar
    13    13    14   ar
    14    14    15   ar
    15    15    16    1
    16    15    17   ar
    17    17    18   ar
    18    18    19    1
    19    10    20   ar
    20    20    21   ar
    21    21    22    1
    22    22    23    1
    23    22    24    1
    24    22    25    1
    25    21     3   ar
    26    18    12   ar
    27     1    26    1
    28     1    27    1
    29     1    28    1
    30     6    29    1
    31     6    30    1
    32     6    31    1
    33     7    32    1
    34     7    33    1
    35     7    34    1
    36     8    35    1
    37     8    36    1
    38     8    37    1
    39     9    38    1
    40    11    39    1
    41    11    40    1
    42    13    41    1
    43    16    42    1
    44    16    43    1
    45    19    44    1
    46    19    45    1
    47    20    46    1
    48    23    47    1
    49    23    48    1
    50    23    49    1
    51    24    50    1
    52    24    51    1
    53    24    52    1
    54    25    53    1
    55    25    54    1
    56    25    55    1
