@<TRIPOS>MOLECULE
*****
 66 71 0 0 0
SMALL
GASTEIGER

@<TRIPOS>ATOM
      1 C          -6.4400    1.1456   -1.0530 C.3     1  UNL1       -0.0380
      2 C          -5.9915    1.6586    0.2632 C.ar    1  UNL1       -0.0279
      3 C          -6.5263    2.7865    0.8595 C.ar    1  UNL1       -0.0557
      4 C          -6.0755    3.2328    2.0944 C.ar    1  UNL1       -0.0433
      5 C          -5.0736    2.4918    2.6828 C.ar    1  UNL1        0.0279
      6 N          -4.5660    1.4025    2.0934 N.ar    1  UNL1       -0.2583
      7 C          -4.9912    0.9507    0.8909 C.ar    1  UNL1        0.0581
      8 C          -4.3662   -0.2446    0.3472 C.3     1  UNL1        0.0415
      9 N          -3.4290   -0.0348   -0.6997 N.3     1  UNL1       -0.2965
     10 C          -2.8789   -1.3134   -1.1529 C.3     1  UNL1        0.0017
     11 C          -1.5235   -1.0901   -1.8198 C.3     1  UNL1       -0.0095
     12 C          -0.5252   -0.8908   -0.6977 C.3     1  UNL1        0.1240
     13 C          -1.2415   -0.2094    0.4337 C.3     1  UNL1       -0.0095
     14 C          -2.2977    0.6987   -0.1582 C.3     1  UNL1        0.0017
     15 C           0.6119   -0.0427   -1.1185 C.2     1  UNL1        0.2516
     16 O           0.6227    0.9066   -1.9568 O.2     1  UNL1       -0.2724
     17 N           1.7521   -0.4800   -0.3993 N.am    1  UNL1       -0.1920
     18 C           3.0029    0.2172   -0.2015 C.ar    1  UNL1        0.0455
     19 C           3.2339    1.0550    0.8596 C.ar    1  UNL1       -0.0392
     20 C           4.4332    1.7025    1.0237 C.ar    1  UNL1       -0.0522
     21 C           5.4409    1.5218    0.1147 C.ar    1  UNL1       -0.0149
     22 C           6.6975    2.2130    0.3109 C.ar    1  UNL1        0.0164
     23 C           7.8650    1.6047   -0.1375 C.ar    1  UNL1        0.0421
     24 N           9.0378    2.2533    0.0461 N.ar    1  UNL1       -0.2009
     25 C           9.0618    3.4537    0.6472 C.ar    1  UNL1        0.3458
     26 O          10.1637    4.0317    0.8036 O.2     1  UNL1       -0.2447
     27 N           7.9377    4.0508    1.0847 N.ar    1  UNL1       -0.3124
     28 C           6.7433    3.4410    0.9232 C.ar    1  UNL1        0.0155
     29 C           5.2367    0.6889   -0.9571 C.ar    1  UNL1       -0.0522
     30 C           4.0278    0.0371   -1.1210 C.ar    1  UNL1       -0.0392
     31 C           1.4218   -1.7760    0.1008 C.2     1  UNL1        0.3219
     32 O           2.2326   -2.4668    0.8022 O.2     1  UNL1       -0.2512
     33 N           0.1051   -2.1211   -0.3081 N.am    1  UNL1       -0.2240
     34 C          -0.3689   -3.4610   -0.2870 C.ar    1  UNL1        0.1364
     35 C          -0.2431   -4.3162   -1.3601 C.ar    1  UNL1        0.0432
     36 C          -0.6947   -5.6178   -1.3581 C.ar    1  UNL1        0.2531
     37 O          -0.5528   -6.3502   -2.3641 O.2     1  UNL1       -0.2678
     38 N          -1.2980   -6.0725   -0.2245 N.ar    1  UNL1       -0.3133
     39 C          -1.4308   -5.2555    0.8326 C.ar    1  UNL1        0.0981
     40 N          -0.9820   -3.9818    0.8131 N.ar    1  UNL1       -0.2220
     41 H          -5.7030    1.3367   -1.8611 H       1  UNL1        0.0278
     42 H          -7.3485    1.7408   -1.3457 H       1  UNL1        0.0278
     43 H          -6.7773    0.0981   -1.0106 H       1  UNL1        0.0278
     44 H          -7.3121    3.3405    0.3638 H       1  UNL1        0.0621
     45 H          -6.4794    4.1114    2.5769 H       1  UNL1        0.0633
     46 H          -4.6992    2.8199    3.6582 H       1  UNL1        0.0829
     47 H          -5.2052   -0.8793   -0.0728 H       1  UNL1        0.0491
     48 H          -3.9738   -0.8637    1.1847 H       1  UNL1        0.0491
     49 H          -2.7383   -2.0163   -0.3258 H       1  UNL1        0.0427
     50 H          -3.5208   -1.7815   -1.9224 H       1  UNL1        0.0427
     51 H          -1.2774   -1.9871   -2.3923 H       1  UNL1        0.0303
     52 H          -1.5432   -0.2273   -2.5080 H       1  UNL1        0.0303
     53 H          -1.7706   -0.9319    1.1051 H       1  UNL1        0.0303
     54 H          -0.5811    0.3802    1.0895 H       1  UNL1        0.0303
     55 H          -1.7918    1.2749   -0.9748 H       1  UNL1        0.0427
     56 H          -2.6271    1.4655    0.5758 H       1  UNL1        0.0427
     57 H           2.4020    1.1752    1.5689 H       1  UNL1        0.0636
     58 H           4.5803    2.3492    1.8636 H       1  UNL1        0.0624
     59 H           7.8369    0.6327   -0.6228 H       1  UNL1        0.0838
     60 H           7.9693    4.9898    1.5539 H       1  UNL1        0.1699
     61 H           5.8281    3.8986    1.2641 H       1  UNL1        0.0815
     62 H           6.0574    0.5719   -1.6526 H       1  UNL1        0.0624
     63 H           3.8579   -0.6231   -1.9647 H       1  UNL1        0.0636
     64 H           0.2349   -3.9540   -2.2575 H       1  UNL1        0.0706
     65 H          -1.6272   -7.0582   -0.2529 H       1  UNL1        0.1698
     66 H          -1.9232   -5.6826    1.7073 H       1  UNL1        0.1028
@<TRIPOS>BOND
     1     1     2    1
     2     2     3   ar
     3     3     4   ar
     4     4     5   ar
     5     5     6   ar
     6     6     7   ar
     7     7     8    1
     8     8     9    1
     9     9    10    1
    10    10    11    1
    11    11    12    1
    12    12    13    1
    13    13    14    1
    14    12    15    1
    15    15    16    2
    16    15    17   am
    17    17    18    1
    18    18    19   ar
    19    19    20   ar
    20    20    21   ar
    21    21    22    1
    22    22    23   ar
    23    23    24   ar
    24    24    25   ar
    25    25    26    2
    26    25    27   ar
    27    27    28   ar
    28    21    29   ar
    29    29    30   ar
    30    17    31   am
    31    31    32    2
    32    31    33   am
    33    33    34    1
    34    34    35   ar
    35    35    36   ar
    36    36    37    2
    37    36    38   ar
    38    38    39   ar
    39    39    40   ar
    40     7     2   ar
    41    14     9    1
    42    30    18   ar
    43    40    34   ar
    44    33    12    1
    45    28    22   ar
    46     1    41    1
    47     1    42    1
    48     1    43    1
    49     3    44    1
    50     4    45    1
    51     5    46    1
    52     8    47    1
    53     8    48    1
    54    10    49    1
    55    10    50    1
    56    11    51    1
    57    11    52    1
    58    13    53    1
    59    13    54    1
    60    14    55    1
    61    14    56    1
    62    19    57    1
    63    20    58    1
    64    23    59    1
    65    27    60    1
    66    28    61    1
    67    29    62    1
    68    30    63    1
    69    35    64    1
    70    38    65    1
    71    39    66    1
