@<TRIPOS>MOLECULE
*****
 30 31 0 0 0
SMALL
GASTEIGER

@<TRIPOS>ATOM
      1 C           4.1459   -0.1442    1.2430 C.3     1  UNL1       -0.0383
      2 C           3.1114    0.3167    0.2748 C.ar    1  UNL1       -0.0302
      3 C           3.3370    1.4452   -0.5079 C.ar    1  UNL1       -0.0560
      4 C           2.4081    1.9058   -1.4151 C.ar    1  UNL1       -0.0412
      5 C           1.2152    1.2442   -1.5669 C.ar    1  UNL1        0.0635
      6 CL         -0.0262    1.7488   -2.6897 Cl      1  UNL1       -0.0816
      7 C           0.9884    0.1176   -0.7865 C.ar    1  UNL1        0.0687
      8 N          -0.2552   -0.6128   -0.9119 N.pl3   1  UNL1       -0.3116
      9 C          -1.3433   -0.2470   -0.0945 C.ar    1  UNL1        0.0455
     10 C          -1.1618    0.8222    0.8119 C.ar    1  UNL1       -0.0397
     11 C          -2.1853    1.2219    1.6321 C.ar    1  UNL1       -0.0600
     12 C          -3.3800    0.5541    1.5428 C.ar    1  UNL1       -0.0609
     13 C          -3.5809   -0.4922    0.6660 C.ar    1  UNL1       -0.0460
     14 C          -2.5398   -0.8984   -0.1680 C.ar    1  UNL1        0.0799
     15 C          -2.7986   -1.9957   -1.0664 C.2     1  UNL1        0.3386
     16 O          -2.0078   -2.5070   -1.8871 O.2     1  UNL1       -0.2451
     17 O          -4.0748   -2.6226   -1.0820 O.3     1  UNL1       -0.4771
     18 C           1.9011   -0.3417    0.1104 C.ar    1  UNL1        0.0664
     19 CL          1.6001   -1.7707    1.0926 Cl      1  UNL1       -0.0813
     20 H           3.7244   -0.9685    1.8290 H       1  UNL1        0.0278
     21 H           4.9884   -0.5325    0.6377 H       1  UNL1        0.0278
     22 H           4.4756    0.7121    1.8723 H       1  UNL1        0.0278
     23 H           4.2553    1.9779   -0.4099 H       1  UNL1        0.0621
     24 H           2.5668    2.7807   -2.0312 H       1  UNL1        0.0633
     25 H          -0.2193   -1.3588   -1.6161 H       1  UNL1        0.1523
     26 H          -0.2052    1.3236    0.8528 H       1  UNL1        0.0636
     27 H          -2.0164    2.0545    2.3259 H       1  UNL1        0.0618
     28 H          -4.2061    0.8428    2.1735 H       1  UNL1        0.0618
     29 H          -4.5241   -1.0113    0.6030 H       1  UNL1        0.0626
     30 H          -4.1930   -3.5646   -1.4348 H       1  UNL1        0.2954
@<TRIPOS>BOND
     1     1     2    1
     2     2     3   ar
     3     3     4   ar
     4     4     5   ar
     5     5     6    1
     6     5     7   ar
     7     7     8    1
     8     8     9    1
     9     9    10   ar
    10    10    11   ar
    11    11    12   ar
    12    12    13   ar
    13    13    14   ar
    14    14    15    1
    15    15    16    2
    16    15    17    1
    17     7    18   ar
    18    18    19    1
    19    18     2   ar
    20    14     9   ar
    21     1    20    1
    22     1    21    1
    23     1    22    1
    24     3    23    1
    25     4    24    1
    26     8    25    1
    27    10    26    1
    28    11    27    1
    29    12    28    1
    30    13    29    1
    31    17    30    1
