
     RDKit          3D

 66 68  0  0  0  0  0  0  0  0999 V2000
    0.4969    0.3891    1.0244 C   0  0  1  0  0  0  0  0  0  0  0  0
    0.0847    1.7232    1.5530 C   0  0  0  0  0  0  0  0  0  0  0  0
   -0.5212   -0.5196    1.1924 O   0  0  0  0  0  0  0  0  0  0  0  0
   -1.3947   -0.6300    0.1229 C   0  0  2  0  0  0  0  0  0  0  0  0
   -2.5497   -1.3007    0.5290 O   0  0  0  0  0  0  0  0  0  0  0  0
   -3.6956   -0.5550    0.2738 C   0  0  2  0  0  0  0  0  0  0  0  0
   -4.4631   -0.2225    1.5221 C   0  0  1  0  0  0  0  0  0  0  0  0
   -4.5773    1.2866    1.7052 C   0  0  0  0  0  0  0  0  0  0  0  0
   -5.1579    1.6039    2.9242 O   0  0  0  0  0  0  0  0  0  0  0  0
   -5.7271   -0.8211    1.5676 O   0  0  0  0  0  0  0  0  0  0  0  0
   -6.5568   -0.4084    0.5261 C   0  0  2  0  0  0  0  0  0  0  0  0
   -7.6525   -1.2700    0.4978 O   0  0  0  0  0  0  0  0  0  0  0  0
   -5.8822   -0.4522   -0.8050 C   0  0  2  0  0  0  0  0  0  0  0  0
   -6.7220   -1.0475   -1.7334 O   0  0  0  0  0  0  0  0  0  0  0  0
   -4.5743   -1.2243   -0.7685 C   0  0  1  0  0  0  0  0  0  0  0  0
   -3.9838   -1.0539   -2.0273 O   0  0  0  0  0  0  0  0  0  0  0  0
   -0.7182   -1.3634   -1.0236 C   0  0  2  0  0  0  0  0  0  0  0  0
   -0.8592   -2.7435   -0.9171 O   0  0  0  0  0  0  0  0  0  0  0  0
    0.7699   -0.9796   -0.9721 C   0  0  1  0  0  0  0  0  0  0  0  0
    1.2327   -1.0113   -2.3080 O   0  0  0  0  0  0  0  0  0  0  0  0
    0.9037    0.3986   -0.4306 C   0  0  2  0  0  0  0  0  0  0  0  0
    2.0925    1.1070   -0.7003 N   0  0  0  0  0  0  0  0  0  0  0  0
    3.2904    0.7414   -0.0471 C   0  0  1  0  0  0  0  0  0  0  0  0
    3.7766   -0.6256   -0.3538 C   0  0  0  0  0  0  0  0  0  0  0  0
    4.9636   -0.8304    0.2534 C   0  0  0  0  0  0  0  0  0  0  0  0
    5.7452   -2.1107    0.1580 C   0  0  0  0  0  0  0  0  0  0  0  0
    6.9972   -1.8885   -0.4029 O   0  0  0  0  0  0  0  0  0  0  0  0
    5.5893    0.2617    1.0871 C   0  0  1  0  0  0  0  0  0  0  0  0
    6.9054   -0.0563    1.4101 O   0  0  0  0  0  0  0  0  0  0  0  0
    5.6669    1.4839    0.1886 C   0  0  2  0  0  0  0  0  0  0  0  0
    5.8829    2.6401    0.9289 O   0  0  0  0  0  0  0  0  0  0  0  0
    4.3870    1.6682   -0.6003 C   0  0  1  0  0  0  0  0  0  0  0  0
    4.6434    1.1776   -1.8872 O   0  0  0  0  0  0  0  0  0  0  0  0
    1.4188    0.0915    1.5875 H   0  0  0  0  0  0  0  0  0  0  0  0
   -0.2461    2.4494    0.7703 H   0  0  0  0  0  0  0  0  0  0  0  0
   -0.7830    1.5799    2.2331 H   0  0  0  0  0  0  0  0  0  0  0  0
    0.8736    2.1889    2.2055 H   0  0  0  0  0  0  0  0  0  0  0  0
   -1.7239    0.3450   -0.2908 H   0  0  0  0  0  0  0  0  0  0  0  0
   -3.3750    0.3984   -0.1921 H   0  0  0  0  0  0  0  0  0  0  0  0
   -3.9105   -0.6118    2.3996 H   0  0  0  0  0  0  0  0  0  0  0  0
   -5.1616    1.6732    0.8643 H   0  0  0  0  0  0  0  0  0  0  0  0
   -3.5408    1.6951    1.7437 H   0  0  0  0  0  0  0  0  0  0  0  0
   -5.0057    2.5705    3.0996 H   0  0  0  0  0  0  0  0  0  0  0  0
   -6.9164    0.6442    0.7100 H   0  0  0  0  0  0  0  0  0  0  0  0
   -8.3926   -0.7152    0.1024 H   0  0  0  0  0  0  0  0  0  0  0  0
   -5.6611    0.5652   -1.2051 H   0  0  0  0  0  0  0  0  0  0  0  0
   -7.6117   -0.6303   -1.7816 H   0  0  0  0  0  0  0  0  0  0  0  0
   -4.7006   -2.2953   -0.5876 H   0  0  0  0  0  0  0  0  0  0  0  0
   -3.5204   -1.8696   -2.3296 H   0  0  0  0  0  0  0  0  0  0  0  0
   -1.1233   -1.0071   -1.9685 H   0  0  0  0  0  0  0  0  0  0  0  0
   -1.6556   -2.9274   -0.3770 H   0  0  0  0  0  0  0  0  0  0  0  0
    1.2200   -1.7732   -0.3528 H   0  0  0  0  0  0  0  0  0  0  0  0
    0.5358   -0.5154   -2.8199 H   0  0  0  0  0  0  0  0  0  0  0  0
    0.0840    1.0085   -0.9346 H   0  0  0  0  0  0  0  0  0  0  0  0
    1.9201    2.1207   -0.7119 H   0  0  0  0  0  0  0  0  0  0  0  0
    3.2648    0.9340    1.0513 H   0  0  0  0  0  0  0  0  0  0  0  0
    3.5093   -1.5096   -0.8949 H   0  0  0  0  0  0  0  0  0  0  0  0
    5.9015   -2.4488    1.1888 H   0  0  0  0  0  0  0  0  0  0  0  0
    5.1760   -2.8114   -0.4607 H   0  0  0  0  0  0  0  0  0  0  0  0
    7.5488   -2.6841   -0.3156 H   0  0  0  0  0  0  0  0  0  0  0  0
    5.0116    0.4968    1.9859 H   0  0  0  0  0  0  0  0  0  0  0  0
    7.5755    0.4163    0.8478 H   0  0  0  0  0  0  0  0  0  0  0  0
    6.5589    1.3420   -0.4636 H   0  0  0  0  0  0  0  0  0  0  0  0
    5.8560    3.3935    0.2951 H   0  0  0  0  0  0  0  0  0  0  0  0
    4.0365    2.6943   -0.6700 H   0  0  0  0  0  0  0  0  0  0  0  0
    4.4447    1.8248   -2.5875 H   0  0  0  0  0  0  0  0  0  0  0  0
  1  2  1  0
  1  3  1  0
  3  4  1  0
  4  5  1  0
  5  6  1  0
  6  7  1  0
  7  8  1  0
  8  9  1  0
  7 10  1  0
 10 11  1  0
 11 12  1  0
 11 13  1  0
 13 14  1  0
 13 15  1  0
 15 16  1  0
  4 17  1  0
 17 18  1  0
 17 19  1  0
 19 20  1  0
 19 21  1  0
 21 22  1  0
 22 23  1  0
 23 24  1  0
 24 25  2  0
 25 26  1  0
 26 27  1  0
 25 28  1  0
 28 29  1  0
 28 30  1  0
 30 31  1  0
 30 32  1  0
 32 33  1  0
 21  1  1  0
 32 23  1  0
 15  6  1  0
  1 34  1  1
  2 35  1  0
  2 36  1  0
  2 37  1  0
  4 38  1  6
  6 39  1  6
  7 40  1  1
  8 41  1  0
  8 42  1  0
  9 43  1  0
 11 44  1  1
 12 45  1  0
 13 46  1  6
 14 47  1  0
 15 48  1  1
 16 49  1  0
 17 50  1  6
 18 51  1  0
 19 52  1  1
 20 53  1  0
 21 54  1  6
 22 55  1  0
 23 56  1  1
 24 57  1  0
 26 58  1  0
 26 59  1  0
 27 60  1  0
 28 61  1  1
 29 62  1  0
 30 63  1  6
 31 64  1  0
 32 65  1  6
 33 66  1  0
M  END
$$$$
