@<TRIPOS>MOLECULE
*****
 66 68 0 0 0
SMALL
GASTEIGER

@<TRIPOS>ATOM
      1 C           0.4969    0.3891    1.0244 C.3     1  UNL1        0.0768
      2 C           0.0847    1.7232    1.5530 C.3     1  UNL1       -0.0370
      3 O          -0.5212   -0.5196    1.1924 O.3     1  UNL1       -0.3441
      4 C          -1.3947   -0.6300    0.1229 C.3     1  UNL1        0.1882
      5 O          -2.5497   -1.3007    0.5290 O.3     1  UNL1       -0.3401
      6 C          -3.6956   -0.5550    0.2738 C.3     1  UNL1        0.1184
      7 C          -4.4631   -0.2225    1.5221 C.3     1  UNL1        0.1134
      8 C          -4.5773    1.2866    1.7052 C.3     1  UNL1        0.0730
      9 O          -5.1579    1.6039    2.9242 O.3     1  UNL1       -0.3924
     10 O          -5.7271   -0.8211    1.5676 O.3     1  UNL1       -0.3407
     11 C          -6.5568   -0.4084    0.5261 C.3     1  UNL1        0.1854
     12 O          -7.6525   -1.2700    0.4978 O.3     1  UNL1       -0.3649
     13 C          -5.8822   -0.4522   -0.8050 C.3     1  UNL1        0.1339
     14 O          -6.7220   -1.0475   -1.7334 O.3     1  UNL1       -0.3841
     15 C          -4.5743   -1.2243   -0.7685 C.3     1  UNL1        0.1144
     16 O          -3.9838   -1.0539   -2.0273 O.3     1  UNL1       -0.3864
     17 C          -0.7182   -1.3634   -1.0236 C.3     1  UNL1        0.1332
     18 O          -0.8592   -2.7435   -0.9171 O.3     1  UNL1       -0.3841
     19 C           0.7699   -0.9796   -0.9721 C.3     1  UNL1        0.1035
     20 O           1.2327   -1.0113   -2.3080 O.3     1  UNL1       -0.3874
     21 C           0.9037    0.3986   -0.4306 C.3     1  UNL1        0.0631
     22 N           2.0925    1.1070   -0.7003 N.3     1  UNL1       -0.3002
     23 C           3.2904    0.7414   -0.0471 C.3     1  UNL1        0.0555
     24 C           3.7766   -0.6256   -0.3538 C.2     1  UNL1       -0.0608
     25 C           4.9636   -0.8304    0.2534 C.2     1  UNL1       -0.0162
     26 C           5.7452   -2.1107    0.1580 C.3     1  UNL1        0.0678
     27 O           6.9972   -1.8885   -0.4029 O.3     1  UNL1       -0.3906
     28 C           5.5893    0.2617    1.0871 C.3     1  UNL1        0.1067
     29 O           6.9054   -0.0563    1.4101 O.3     1  UNL1       -0.3848
     30 C           5.6669    1.4839    0.1886 C.3     1  UNL1        0.1124
     31 O           5.8829    2.6401    0.9289 O.3     1  UNL1       -0.3863
     32 C           4.3870    1.6682   -0.6003 C.3     1  UNL1        0.1026
     33 O           4.6434    1.1776   -1.8872 O.3     1  UNL1       -0.3873
     34 H           1.4188    0.0915    1.5875 H       1  UNL1        0.0611
     35 H          -0.2461    2.4494    0.7703 H       1  UNL1        0.0255
     36 H          -0.7830    1.5799    2.2331 H       1  UNL1        0.0255
     37 H           0.8736    2.1889    2.2055 H       1  UNL1        0.0255
     38 H          -1.7239    0.3450   -0.2908 H       1  UNL1        0.0937
     39 H          -3.3750    0.3984   -0.1921 H       1  UNL1        0.0651
     40 H          -3.9105   -0.6118    2.3996 H       1  UNL1        0.0647
     41 H          -5.1616    1.6732    0.8643 H       1  UNL1        0.0584
     42 H          -3.5408    1.6951    1.7437 H       1  UNL1        0.0584
     43 H          -5.0057    2.5705    3.0996 H       1  UNL1        0.2095
     44 H          -6.9164    0.6442    0.7100 H       1  UNL1        0.0935
     45 H          -8.3926   -0.7152    0.1024 H       1  UNL1        0.2126
     46 H          -5.6611    0.5652   -1.2051 H       1  UNL1        0.0671
     47 H          -7.6117   -0.6303   -1.7816 H       1  UNL1        0.2101
     48 H          -4.7006   -2.2953   -0.5876 H       1  UNL1        0.0648
     49 H          -3.5204   -1.8696   -2.3296 H       1  UNL1        0.2100
     50 H          -1.1233   -1.0071   -1.9685 H       1  UNL1        0.0671
     51 H          -1.6556   -2.9274   -0.3770 H       1  UNL1        0.2101
     52 H           1.2200   -1.7732   -0.3528 H       1  UNL1        0.0637
     53 H           0.5358   -0.5154   -2.8199 H       1  UNL1        0.2100
     54 H           0.0840    1.0085   -0.9346 H       1  UNL1        0.0512
     55 H           1.9201    2.1207   -0.7119 H       1  UNL1        0.1230
     56 H           3.2648    0.9340    1.0513 H       1  UNL1        0.0531
     57 H           3.5093   -1.5096   -0.8949 H       1  UNL1        0.0589
     58 H           5.9015   -2.4488    1.1888 H       1  UNL1        0.0605
     59 H           5.1760   -2.8114   -0.4607 H       1  UNL1        0.0605
     60 H           7.5488   -2.6841   -0.3156 H       1  UNL1        0.2098
     61 H           5.0116    0.4968    1.9859 H       1  UNL1        0.0668
     62 H           7.5755    0.4163    0.8478 H       1  UNL1        0.2103
     63 H           6.5589    1.3420   -0.4636 H       1  UNL1        0.0649
     64 H           5.8560    3.3935    0.2951 H       1  UNL1        0.2100
     65 H           4.0365    2.6943   -0.6700 H       1  UNL1        0.0639
     66 H           4.4447    1.8248   -2.5875 H       1  UNL1        0.2100
@<TRIPOS>BOND
     1     1     2    1
     2     1     3    1
     3     3     4    1
     4     4     5    1
     5     5     6    1
     6     6     7    1
     7     7     8    1
     8     8     9    1
     9     7    10    1
    10    10    11    1
    11    11    12    1
    12    11    13    1
    13    13    14    1
    14    13    15    1
    15    15    16    1
    16     4    17    1
    17    17    18    1
    18    17    19    1
    19    19    20    1
    20    19    21    1
    21    21    22    1
    22    22    23    1
    23    23    24    1
    24    24    25    2
    25    25    26    1
    26    26    27    1
    27    25    28    1
    28    28    29    1
    29    28    30    1
    30    30    31    1
    31    30    32    1
    32    32    33    1
    33    21     1    1
    34    32    23    1
    35    15     6    1
    36     1    34    1
    37     2    35    1
    38     2    36    1
    39     2    37    1
    40     4    38    1
    41     6    39    1
    42     7    40    1
    43     8    41    1
    44     8    42    1
    45     9    43    1
    46    11    44    1
    47    12    45    1
    48    13    46    1
    49    14    47    1
    50    15    48    1
    51    16    49    1
    52    17    50    1
    53    18    51    1
    54    19    52    1
    55    20    53    1
    56    21    54    1
    57    22    55    1
    58    23    56    1
    59    24    57    1
    60    26    58    1
    61    26    59    1
    62    27    60    1
    63    28    61    1
    64    29    62    1
    65    30    63    1
    66    31    64    1
    67    32    65    1
    68    33    66    1
