
     RDKit          3D

 44 46  0  0  0  0  0  0  0  0999 V2000
   -3.9336   -2.0572   -0.5021 C   0  0  0  0  0  0  0  0  0  0  0  0
   -3.0854   -0.8719   -0.1031 C   0  0  1  0  0  0  0  0  0  0  0  0
   -1.8295   -0.7818   -0.8799 C   0  0  0  0  0  0  0  0  0  0  0  0
   -0.5927   -0.7787   -0.2737 C   0  0  0  0  0  0  0  0  0  0  0  0
    0.5676   -0.6905   -1.0134 C   0  0  0  0  0  0  0  0  0  0  0  0
    1.9165   -0.6845   -0.3421 C   0  0  0  0  0  0  0  0  0  0  0  0
    2.4391    0.6576   -0.3313 N   0  0  0  0  0  0  0  0  0  0  0  0
    3.7082    0.7976    0.2836 C   0  0  0  0  0  0  0  0  0  0  0  0
    3.8661    0.4236    1.7115 C   0  0  0  0  0  0  0  0  0  0  0  0
    3.0073    1.2102    2.4922 F   0  0  0  0  0  0  0  0  0  0  0  0
    3.7255   -0.9037    1.9849 F   0  0  0  0  0  0  0  0  0  0  0  0
    5.1485    0.7906    2.1114 F   0  0  0  0  0  0  0  0  0  0  0  0
    4.4424    2.0817   -0.0249 C   0  0  0  0  0  0  0  0  0  0  0  0
    4.8490    1.5448   -1.2322 O   0  0  0  0  0  0  0  0  0  0  0  0
    4.8231    0.2853   -0.6022 C   0  0  0  0  0  0  0  0  0  0  0  0
    0.4699   -0.6042   -2.3894 C   0  0  0  0  0  0  0  0  0  0  0  0
    1.6342   -0.5197   -3.0740 F   0  0  0  0  0  0  0  0  0  0  0  0
   -0.7588   -0.6066   -3.0032 C   0  0  0  0  0  0  0  0  0  0  0  0
   -1.9194   -0.6955   -2.2519 C   0  0  0  0  0  0  0  0  0  0  0  0
   -3.1094   -0.6952   -2.9101 F   0  0  0  0  0  0  0  0  0  0  0  0
   -3.9193    0.3790   -0.3776 C   0  0  0  0  0  0  0  0  0  0  0  0
   -3.1008    1.6281   -0.2198 C   0  0  0  0  0  0  0  0  0  0  0  0
   -2.3934    1.6381    1.4403 S   0  0  0  0  0  0  0  0  0  0  0  0
   -2.5519   -0.0086    2.0981 C   0  0  0  0  0  0  0  0  0  0  0  0
   -2.3321   -0.1746    3.5007 N   0  0  0  0  0  0  0  0  0  0  0  0
   -2.8488   -0.9608    1.3166 N   0  0  0  0  0  0  0  0  0  0  0  0
   -4.8846   -1.7538   -0.9991 H   0  0  0  0  0  0  0  0  0  0  0  0
   -3.3750   -2.7644   -1.1561 H   0  0  0  0  0  0  0  0  0  0  0  0
   -4.2468   -2.6660    0.3853 H   0  0  0  0  0  0  0  0  0  0  0  0
   -0.5335   -0.8469    0.8027 H   0  0  0  0  0  0  0  0  0  0  0  0
    2.5900   -1.4115   -0.8118 H   0  0  0  0  0  0  0  0  0  0  0  0
    1.7371   -1.0242    0.6975 H   0  0  0  0  0  0  0  0  0  0  0  0
    1.7646    1.2942    0.1464 H   0  0  0  0  0  0  0  0  0  0  0  0
    3.7802    2.9476   -0.0719 H   0  0  0  0  0  0  0  0  0  0  0  0
    5.3039    2.2436    0.6494 H   0  0  0  0  0  0  0  0  0  0  0  0
    4.5053   -0.4733   -1.3551 H   0  0  0  0  0  0  0  0  0  0  0  0
    5.7684    0.0601   -0.0909 H   0  0  0  0  0  0  0  0  0  0  0  0
   -0.7920   -0.5367   -4.0955 H   0  0  0  0  0  0  0  0  0  0  0  0
   -4.7118    0.4196    0.4205 H   0  0  0  0  0  0  0  0  0  0  0  0
   -4.4157    0.3378   -1.3408 H   0  0  0  0  0  0  0  0  0  0  0  0
   -2.3232    1.7345   -1.0033 H   0  0  0  0  0  0  0  0  0  0  0  0
   -3.8342    2.4820   -0.2646 H   0  0  0  0  0  0  0  0  0  0  0  0
   -1.4856   -0.6142    3.9020 H   0  0  0  0  0  0  0  0  0  0  0  0
   -3.0693    0.1685    4.1426 H   0  0  0  0  0  0  0  0  0  0  0  0
  2  1  1  6
  2  3  1  0
  3  4  2  0
  4  5  1  0
  5  6  1  0
  6  7  1  0
  7  8  1  0
  8  9  1  0
  9 10  1  0
  9 11  1  0
  9 12  1  0
  8 13  1  0
 13 14  1  0
 14 15  1  0
  5 16  2  0
 16 17  1  0
 16 18  1  0
 18 19  2  0
 19 20  1  0
  2 21  1  0
 21 22  1  0
 22 23  1  0
 23 24  1  0
 24 25  1  0
 24 26  2  0
 26  2  1  0
 19  3  1  0
 15  8  1  0
  1 27  1  0
  1 28  1  0
  1 29  1  0
  4 30  1  0
  6 31  1  0
  6 32  1  0
  7 33  1  0
 13 34  1  0
 13 35  1  0
 15 36  1  0
 15 37  1  0
 18 38  1  0
 21 39  1  0
 21 40  1  0
 22 41  1  0
 22 42  1  0
 25 43  1  0
 25 44  1  0
M  END
$$$$
