@<TRIPOS>MOLECULE
*****
 44 46 0 0 0
SMALL
GASTEIGER

@<TRIPOS>ATOM
      1 C          -3.9336   -2.0572   -0.5021 C.3     1  UNL1       -0.0354
      2 C          -3.0854   -0.8719   -0.1031 C.3     1  UNL1        0.0897
      3 C          -1.8295   -0.7818   -0.8799 C.ar    1  UNL1        0.0154
      4 C          -0.5927   -0.7787   -0.2737 C.ar    1  UNL1       -0.0464
      5 C           0.5676   -0.6905   -1.0134 C.ar    1  UNL1        0.0021
      6 C           1.9165   -0.6845   -0.3421 C.3     1  UNL1        0.0249
      7 N           2.4391    0.6576   -0.3313 N.3     1  UNL1       -0.2956
      8 C           3.7082    0.7976    0.2836 C.3     1  UNL1        0.1620
      9 C           3.8661    0.4236    1.7115 C.3     1  UNL1        0.4119
     10 F           3.0073    1.2102    2.4922 F       1  UNL1       -0.1685
     11 F           3.7255   -0.9037    1.9849 F       1  UNL1       -0.1685
     12 F           5.1485    0.7906    2.1114 F       1  UNL1       -0.1685
     13 C           4.4424    2.0817   -0.0249 C.3     1  UNL1        0.0766
     14 O           4.8490    1.5448   -1.2322 O.3     1  UNL1       -0.3754
     15 C           4.8231    0.2853   -0.6022 C.3     1  UNL1        0.0766
     16 C           0.4699   -0.6042   -2.3894 C.ar    1  UNL1        0.1305
     17 F           1.6342   -0.5197   -3.0740 F       1  UNL1       -0.2051
     18 C          -0.7588   -0.6066   -3.0032 C.ar    1  UNL1        0.0095
     19 C          -1.9194   -0.6955   -2.2519 C.ar    1  UNL1        0.1316
     20 F          -3.1094   -0.6952   -2.9101 F       1  UNL1       -0.2050
     21 C          -3.9193    0.3790   -0.3776 C.3     1  UNL1       -0.0142
     22 C          -3.1008    1.6281   -0.2198 C.3     1  UNL1        0.0034
     23 S          -2.3934    1.6381    1.4403 S.3     1  UNL1       -0.0910
     24 C          -2.5519   -0.0086    2.0981 C.2     1  UNL1        0.1475
     25 N          -2.3321   -0.1746    3.5007 N.pl3   1  UNL1       -0.3380
     26 N          -2.8488   -0.9608    1.3166 N.2     1  UNL1       -0.2524
     27 H          -4.8846   -1.7538   -0.9991 H       1  UNL1        0.0256
     28 H          -3.3750   -2.7644   -1.1561 H       1  UNL1        0.0256
     29 H          -4.2468   -2.6660    0.3853 H       1  UNL1        0.0256
     30 H          -0.5335   -0.8469    0.8027 H       1  UNL1        0.0626
     31 H           2.5900   -1.4115   -0.8118 H       1  UNL1        0.0475
     32 H           1.7371   -1.0242    0.6975 H       1  UNL1        0.0475
     33 H           1.7646    1.2942    0.1464 H       1  UNL1        0.1232
     34 H           3.7802    2.9476   -0.0719 H       1  UNL1        0.0582
     35 H           5.3039    2.2436    0.6494 H       1  UNL1        0.0582
     36 H           4.5053   -0.4733   -1.3551 H       1  UNL1        0.0582
     37 H           5.7684    0.0601   -0.0909 H       1  UNL1        0.0582
     38 H          -0.7920   -0.5367   -4.0955 H       1  UNL1        0.0675
     39 H          -4.7118    0.4196    0.4205 H       1  UNL1        0.0300
     40 H          -4.4157    0.3378   -1.3408 H       1  UNL1        0.0300
     41 H          -2.3232    1.7345   -1.0033 H       1  UNL1        0.0381
     42 H          -3.8342    2.4820   -0.2646 H       1  UNL1        0.0381
     43 H          -1.4856   -0.6142    3.9020 H       1  UNL1        0.1442
     44 H          -3.0693    0.1685    4.1426 H       1  UNL1        0.1442
@<TRIPOS>BOND
     1     2     1    1
     2     2     3    1
     3     3     4   ar
     4     4     5   ar
     5     5     6    1
     6     6     7    1
     7     7     8    1
     8     8     9    1
     9     9    10    1
    10     9    11    1
    11     9    12    1
    12     8    13    1
    13    13    14    1
    14    14    15    1
    15     5    16   ar
    16    16    17    1
    17    16    18   ar
    18    18    19   ar
    19    19    20    1
    20     2    21    1
    21    21    22    1
    22    22    23    1
    23    23    24    1
    24    24    25    1
    25    24    26    2
    26    26     2    1
    27    19     3   ar
    28    15     8    1
    29     1    27    1
    30     1    28    1
    31     1    29    1
    32     4    30    1
    33     6    31    1
    34     6    32    1
    35     7    33    1
    36    13    34    1
    37    13    35    1
    38    15    36    1
    39    15    37    1
    40    18    38    1
    41    21    39    1
    42    21    40    1
    43    22    41    1
    44    22    42    1
    45    25    43    1
    46    25    44    1
