@<TRIPOS>MOLECULE
*****
 60 63 0 0 0
SMALL
GASTEIGER

@<TRIPOS>ATOM
      1 C           0.3431   -3.2282   -0.3187 C.3     1  UNL1       -0.0421
      2 C           0.4202   -1.9338    0.4925 C.3     1  UNL1        0.0515
      3 C           1.7043   -1.2417    0.2792 C.ar    1  UNL1       -0.0271
      4 C           2.0623   -0.5850   -0.8618 C.ar    1  UNL1       -0.0562
      5 C           3.2997    0.0644   -0.9947 C.ar    1  UNL1       -0.0537
      6 C           4.2092    0.0648    0.0281 C.ar    1  UNL1       -0.0177
      7 C           5.5098    0.7327   -0.0757 C.ar    1  UNL1       -0.0114
      8 C           6.1901    0.8355   -1.2709 C.ar    1  UNL1       -0.0378
      9 C           7.4277    1.4821   -1.3266 C.ar    1  UNL1        0.0055
     10 N           7.9830    2.0170   -0.2227 N.ar    1  UNL1       -0.3291
     11 C           7.3318    1.9247    0.9498 C.ar    1  UNL1        0.2493
     12 O           7.8439    2.4213    1.9825 O.2     1  UNL1       -0.2679
     13 C           6.0943    1.2861    1.0420 C.ar    1  UNL1        0.0105
     14 C           3.8714   -0.5919    1.1905 C.ar    1  UNL1       -0.0537
     15 C           2.6536   -1.2264    1.3109 C.ar    1  UNL1       -0.0562
     16 N          -0.7635   -1.1931    0.2195 N.am    1  UNL1       -0.2605
     17 C          -1.1697   -0.6265   -1.0306 C.3     1  UNL1        0.0224
     18 C          -2.6626   -0.6420   -1.2294 C.3     1  UNL1        0.0075
     19 C          -3.3990    0.0917   -0.1000 C.3     1  UNL1        0.1415
     20 C          -4.8283   -0.1606   -0.2947 C.3     1  UNL1       -0.0064
     21 C          -5.3267   -1.5618   -0.2802 C.3     1  UNL1       -0.0258
     22 C          -5.1393   -2.2995    1.0121 C.3     1  UNL1        0.0443
     23 O          -5.6815   -3.5991    0.8975 O.3     1  UNL1       -0.3950
     24 C          -3.0074    1.5175   -0.1731 C.ar    1  UNL1       -0.0041
     25 C          -1.9404    1.9452    0.5726 C.ar    1  UNL1       -0.0548
     26 C          -1.5352    3.2913    0.5265 C.ar    1  UNL1       -0.0614
     27 C          -2.2149    4.1820   -0.2720 C.ar    1  UNL1       -0.0617
     28 C          -3.2981    3.7582   -1.0317 C.ar    1  UNL1       -0.0614
     29 C          -3.6635    2.4470   -0.9632 C.ar    1  UNL1       -0.0548
     30 O          -2.9432   -0.4111    1.1251 O.3     1  UNL1       -0.4388
     31 C          -1.6967   -0.9917    1.3057 C.2     1  UNL1        0.4042
     32 O          -1.3740   -1.3541    2.4637 O.2     1  UNL1       -0.2262
     33 H          -0.6886   -3.5813   -0.3305 H       1  UNL1        0.0251
     34 H           1.0525   -3.9560    0.0921 H       1  UNL1        0.0251
     35 H           0.6756   -2.9491   -1.3508 H       1  UNL1        0.0251
     36 H           0.4019   -2.2879    1.5758 H       1  UNL1        0.0549
     37 H           1.3975   -0.5583   -1.6984 H       1  UNL1        0.0621
     38 H           3.5716    0.5828   -1.9064 H       1  UNL1        0.0624
     39 H           5.7438    0.4091   -2.1409 H       1  UNL1        0.0638
     40 H           7.9695    1.5662   -2.2686 H       1  UNL1        0.0808
     41 H           8.9034    2.4919   -0.2917 H       1  UNL1        0.1683
     42 H           5.5725    1.2113    1.9779 H       1  UNL1        0.0678
     43 H           4.6035   -0.5825    1.9914 H       1  UNL1        0.0624
     44 H           2.4079   -1.7356    2.2297 H       1  UNL1        0.0621
     45 H          -0.7243    0.3579   -1.2714 H       1  UNL1        0.0467
     46 H          -0.7927   -1.3237   -1.8379 H       1  UNL1        0.0467
     47 H          -2.9756   -1.7031   -1.1844 H       1  UNL1        0.0322
     48 H          -2.8950   -0.2324   -2.2042 H       1  UNL1        0.0322
     49 H          -5.1939    0.2472   -1.3053 H       1  UNL1        0.0308
     50 H          -5.5072    0.4007    0.3975 H       1  UNL1        0.0308
     51 H          -6.4556   -1.5938   -0.4548 H       1  UNL1        0.0289
     52 H          -4.9475   -2.1586   -1.1549 H       1  UNL1        0.0289
     53 H          -4.1097   -2.3394    1.3359 H       1  UNL1        0.0557
     54 H          -5.7746   -1.7834    1.7808 H       1  UNL1        0.0557
     55 H          -6.2369   -3.6341    0.1016 H       1  UNL1        0.2094
     56 H          -1.3344    1.3428    1.2350 H       1  UNL1        0.0622
     57 H          -0.6911    3.6494    1.1107 H       1  UNL1        0.0618
     58 H          -1.9275    5.2145   -0.3265 H       1  UNL1        0.0618
     59 H          -3.8508    4.4321   -1.6667 H       1  UNL1        0.0618
     60 H          -4.4950    2.0983   -1.5412 H       1  UNL1        0.0622
@<TRIPOS>BOND
     1     1     2    1
     2     2     3    1
     3     3     4   ar
     4     4     5   ar
     5     5     6   ar
     6     6     7    1
     7     7     8   ar
     8     8     9   ar
     9     9    10   ar
    10    10    11   ar
    11    11    12    2
    12    11    13   ar
    13     6    14   ar
    14    14    15   ar
    15     2    16    1
    16    16    17    1
    17    17    18    1
    18    18    19    1
    19    19    20    1
    20    20    21    1
    21    21    22    1
    22    22    23    1
    23    19    24    1
    24    24    25   ar
    25    25    26   ar
    26    26    27   ar
    27    27    28   ar
    28    28    29   ar
    29    19    30    1
    30    30    31    1
    31    31    32    2
    32    15     3   ar
    33    31    16   am
    34    13     7   ar
    35    29    24   ar
    36     1    33    1
    37     1    34    1
    38     1    35    1
    39     2    36    1
    40     4    37    1
    41     5    38    1
    42     8    39    1
    43     9    40    1
    44    10    41    1
    45    13    42    1
    46    14    43    1
    47    15    44    1
    48    17    45    1
    49    17    46    1
    50    18    47    1
    51    18    48    1
    52    20    49    1
    53    20    50    1
    54    21    51    1
    55    21    52    1
    56    22    53    1
    57    22    54    1
    58    23    55    1
    59    25    56    1
    60    26    57    1
    61    27    58    1
    62    28    59    1
    63    29    60    1
