
     RDKit          3D

 60 63  0  0  0  0  0  0  0  0999 V2000
    0.3431   -3.2282   -0.3187 C   0  0  0  0  0  0  0  0  0  0  0  0
    0.4202   -1.9338    0.4925 C   0  0  1  0  0  0  0  0  0  0  0  0
    1.7043   -1.2417    0.2792 C   0  0  0  0  0  0  0  0  0  0  0  0
    2.0623   -0.5850   -0.8618 C   0  0  0  0  0  0  0  0  0  0  0  0
    3.2997    0.0644   -0.9947 C   0  0  0  0  0  0  0  0  0  0  0  0
    4.2092    0.0648    0.0281 C   0  0  0  0  0  0  0  0  0  0  0  0
    5.5098    0.7327   -0.0757 C   0  0  0  0  0  0  0  0  0  0  0  0
    6.1901    0.8355   -1.2709 C   0  0  0  0  0  0  0  0  0  0  0  0
    7.4277    1.4821   -1.3266 C   0  0  0  0  0  0  0  0  0  0  0  0
    7.9830    2.0170   -0.2227 N   0  0  0  0  0  0  0  0  0  0  0  0
    7.3318    1.9247    0.9498 C   0  0  0  0  0  0  0  0  0  0  0  0
    7.8439    2.4213    1.9825 O   0  0  0  0  0  0  0  0  0  0  0  0
    6.0943    1.2861    1.0420 C   0  0  0  0  0  0  0  0  0  0  0  0
    3.8714   -0.5919    1.1905 C   0  0  0  0  0  0  0  0  0  0  0  0
    2.6536   -1.2264    1.3109 C   0  0  0  0  0  0  0  0  0  0  0  0
   -0.7635   -1.1931    0.2195 N   0  0  0  0  0  0  0  0  0  0  0  0
   -1.1697   -0.6265   -1.0306 C   0  0  0  0  0  0  0  0  0  0  0  0
   -2.6626   -0.6420   -1.2294 C   0  0  0  0  0  0  0  0  0  0  0  0
   -3.3990    0.0917   -0.1000 C   0  0  2  0  0  0  0  0  0  0  0  0
   -4.8283   -0.1606   -0.2947 C   0  0  0  0  0  0  0  0  0  0  0  0
   -5.3267   -1.5618   -0.2802 C   0  0  0  0  0  0  0  0  0  0  0  0
   -5.1393   -2.2995    1.0121 C   0  0  0  0  0  0  0  0  0  0  0  0
   -5.6815   -3.5991    0.8975 O   0  0  0  0  0  0  0  0  0  0  0  0
   -3.0074    1.5175   -0.1731 C   0  0  0  0  0  0  0  0  0  0  0  0
   -1.9404    1.9452    0.5726 C   0  0  0  0  0  0  0  0  0  0  0  0
   -1.5352    3.2913    0.5265 C   0  0  0  0  0  0  0  0  0  0  0  0
   -2.2149    4.1820   -0.2720 C   0  0  0  0  0  0  0  0  0  0  0  0
   -3.2981    3.7582   -1.0317 C   0  0  0  0  0  0  0  0  0  0  0  0
   -3.6635    2.4470   -0.9632 C   0  0  0  0  0  0  0  0  0  0  0  0
   -2.9432   -0.4111    1.1251 O   0  0  0  0  0  0  0  0  0  0  0  0
   -1.6967   -0.9917    1.3057 C   0  0  0  0  0  0  0  0  0  0  0  0
   -1.3740   -1.3541    2.4637 O   0  0  0  0  0  0  0  0  0  0  0  0
   -0.6886   -3.5813   -0.3305 H   0  0  0  0  0  0  0  0  0  0  0  0
    1.0525   -3.9560    0.0921 H   0  0  0  0  0  0  0  0  0  0  0  0
    0.6756   -2.9491   -1.3508 H   0  0  0  0  0  0  0  0  0  0  0  0
    0.4019   -2.2879    1.5758 H   0  0  0  0  0  0  0  0  0  0  0  0
    1.3975   -0.5583   -1.6984 H   0  0  0  0  0  0  0  0  0  0  0  0
    3.5716    0.5828   -1.9064 H   0  0  0  0  0  0  0  0  0  0  0  0
    5.7438    0.4091   -2.1409 H   0  0  0  0  0  0  0  0  0  0  0  0
    7.9695    1.5662   -2.2686 H   0  0  0  0  0  0  0  0  0  0  0  0
    8.9034    2.4919   -0.2917 H   0  0  0  0  0  0  0  0  0  0  0  0
    5.5725    1.2113    1.9779 H   0  0  0  0  0  0  0  0  0  0  0  0
    4.6035   -0.5825    1.9914 H   0  0  0  0  0  0  0  0  0  0  0  0
    2.4079   -1.7356    2.2297 H   0  0  0  0  0  0  0  0  0  0  0  0
   -0.7243    0.3579   -1.2714 H   0  0  0  0  0  0  0  0  0  0  0  0
   -0.7927   -1.3237   -1.8379 H   0  0  0  0  0  0  0  0  0  0  0  0
   -2.9756   -1.7031   -1.1844 H   0  0  0  0  0  0  0  0  0  0  0  0
   -2.8950   -0.2324   -2.2042 H   0  0  0  0  0  0  0  0  0  0  0  0
   -5.1939    0.2472   -1.3053 H   0  0  0  0  0  0  0  0  0  0  0  0
   -5.5072    0.4007    0.3975 H   0  0  0  0  0  0  0  0  0  0  0  0
   -6.4556   -1.5938   -0.4548 H   0  0  0  0  0  0  0  0  0  0  0  0
   -4.9475   -2.1586   -1.1549 H   0  0  0  0  0  0  0  0  0  0  0  0
   -4.1097   -2.3394    1.3359 H   0  0  0  0  0  0  0  0  0  0  0  0
   -5.7746   -1.7834    1.7808 H   0  0  0  0  0  0  0  0  0  0  0  0
   -6.2369   -3.6341    0.1016 H   0  0  0  0  0  0  0  0  0  0  0  0
   -1.3344    1.3428    1.2350 H   0  0  0  0  0  0  0  0  0  0  0  0
   -0.6911    3.6494    1.1107 H   0  0  0  0  0  0  0  0  0  0  0  0
   -1.9275    5.2145   -0.3265 H   0  0  0  0  0  0  0  0  0  0  0  0
   -3.8508    4.4321   -1.6667 H   0  0  0  0  0  0  0  0  0  0  0  0
   -4.4950    2.0983   -1.5412 H   0  0  0  0  0  0  0  0  0  0  0  0
  1  2  1  0
  2  3  1  0
  3  4  2  0
  4  5  1  0
  5  6  2  0
  6  7  1  0
  7  8  1  0
  8  9  2  0
  9 10  1  0
 10 11  1  0
 11 12  2  0
 11 13  1  0
  6 14  1  0
 14 15  2  0
  2 16  1  0
 16 17  1  0
 17 18  1  0
 18 19  1  0
 19 20  1  6
 20 21  1  0
 21 22  1  0
 22 23  1  0
 19 24  1  0
 24 25  2  0
 25 26  1  0
 26 27  2  0
 27 28  1  0
 28 29  2  0
 19 30  1  0
 30 31  1  0
 31 32  2  0
 15  3  1  0
 31 16  1  0
 13  7  2  0
 29 24  1  0
  1 33  1  0
  1 34  1  0
  1 35  1  0
  2 36  1  1
  4 37  1  0
  5 38  1  0
  8 39  1  0
  9 40  1  0
 10 41  1  0
 13 42  1  0
 14 43  1  0
 15 44  1  0
 17 45  1  0
 17 46  1  0
 18 47  1  0
 18 48  1  0
 20 49  1  0
 20 50  1  0
 21 51  1  0
 21 52  1  0
 22 53  1  0
 22 54  1  0
 23 55  1  0
 25 56  1  0
 26 57  1  0
 27 58  1  0
 28 59  1  0
 29 60  1  0
M  END
$$$$
