@<TRIPOS>MOLECULE
*****
 55 60 0 0 0
SMALL
GASTEIGER

@<TRIPOS>ATOM
      1 C           5.3147   -3.6638    0.9583 C.3     1  UNL1        0.0788
      2 O           5.4961   -3.0871   -0.3448 O.3     1  UNL1       -0.4951
      3 C           4.7372   -2.0624   -0.7363 C.ar    1  UNL1        0.1208
      4 C           4.6657   -1.3904   -1.9266 C.ar    1  UNL1       -0.0180
      5 C           3.8548   -0.3491   -2.2584 C.ar    1  UNL1       -0.0341
      6 C           2.9226    0.1627   -1.3139 C.ar    1  UNL1        0.0501
      7 C           2.9807   -0.4959   -0.1013 C.ar    1  UNL1        0.0118
      8 C           3.7847   -1.4903    0.1944 C.ar    1  UNL1       -0.0102
      9 C           1.7825   -0.0727    0.5504 C.ar    1  UNL1        0.0222
     10 C           1.2029   -0.7229    1.6644 C.ar    1  UNL1        0.0518
     11 C          -0.1264   -0.4695    1.7891 C.ar    1  UNL1       -0.0078
     12 C          -0.8115    0.3406    0.9596 C.ar    1  UNL1        0.0152
     13 C          -2.1937    0.5841    0.8545 C.ar    1  UNL1        0.0114
     14 C          -3.2602    0.0385    1.4915 C.ar    1  UNL1       -0.0102
     15 C          -4.5488    0.2271    1.1251 C.ar    1  UNL1        0.1208
     16 O          -5.7039   -0.2734    1.6118 O.3     1  UNL1       -0.4951
     17 C          -5.9982   -1.1656    2.6174 C.3     1  UNL1        0.0788
     18 C          -4.7558    1.1169   -0.0326 C.ar    1  UNL1       -0.0180
     19 C          -3.6567    1.6656   -0.6653 C.ar    1  UNL1       -0.0341
     20 C          -2.3558    1.3852   -0.2173 C.ar    1  UNL1        0.0504
     21 N          -1.1161    1.6700   -0.8108 N.ar    1  UNL1       -0.3372
     22 C          -1.1238    2.7132   -1.8092 C.3     1  UNL1        0.0367
     23 C          -1.4591    2.3855   -3.2405 C.3     1  UNL1        0.0527
     24 C          -1.8873    4.0549   -3.7099 C.1     1  UNL1        0.0643
     25 N          -2.0993    4.8712   -3.9240 N.1     1  UNL1       -0.1965
     26 C          -0.2482    1.0432   -0.1231 C.ar    1  UNL1        0.0749
     27 C           1.1477    0.7528   -0.2908 C.ar    1  UNL1        0.0750
     28 N           1.8229    0.9496   -1.4657 N.ar    1  UNL1       -0.3413
     29 C           1.6185    1.5838   -2.7083 C.3     1  UNL1        0.0125
     30 C          -0.6283   -1.2197    2.9879 C.3     1  UNL1        0.0385
     31 N           0.5789   -1.6141    3.6895 N.am    1  UNL1       -0.3072
     32 C           1.7309   -1.4332    2.7920 C.2     1  UNL1        0.2453
     33 O           2.8788   -1.8723    3.0881 O.2     1  UNL1       -0.2702
     34 H           4.1938   -3.4002    1.2429 H       1  UNL1        0.0660
     35 H           6.0251   -3.2054    1.6263 H       1  UNL1        0.0660
     36 H           5.2562   -4.7656    1.0410 H       1  UNL1        0.0660
     37 H           5.3518   -1.7911   -2.7255 H       1  UNL1        0.0655
     38 H           3.9300    0.0522   -3.2386 H       1  UNL1        0.0639
     39 H           3.7971   -1.8891    1.1725 H       1  UNL1        0.0661
     40 H          -3.1047   -0.6325    2.3588 H       1  UNL1        0.0661
     41 H          -5.4943   -2.1756    2.4753 H       1  UNL1        0.0660
     42 H          -5.7483   -0.8395    3.6347 H       1  UNL1        0.0660
     43 H          -7.1333   -1.3948    2.6381 H       1  UNL1        0.0660
     44 H          -5.7761    1.2781   -0.3442 H       1  UNL1        0.0655
     45 H          -3.8238    2.3142   -1.4802 H       1  UNL1        0.0639
     46 H          -1.9368    3.4978   -1.4603 H       1  UNL1        0.0502
     47 H          -0.2430    3.4286   -1.6865 H       1  UNL1        0.0502
     48 H          -0.6479    2.4426   -3.9389 H       1  UNL1        0.0435
     49 H          -2.3721    1.9561   -3.4834 H       1  UNL1        0.0435
     50 H           1.4285    2.6487   -2.7990 H       1  UNL1        0.0456
     51 H           2.5661    1.5014   -3.3925 H       1  UNL1        0.0456
     52 H           0.8785    0.9726   -3.3676 H       1  UNL1        0.0456
     53 H          -1.1511   -0.4850    3.6349 H       1  UNL1        0.0512
     54 H          -1.2261   -2.1231    2.7241 H       1  UNL1        0.0512
     55 H           0.6838   -1.9824    4.6729 H       1  UNL1        0.1493
@<TRIPOS>BOND
     1     1     2    1
     2     2     3    1
     3     3     4   ar
     4     4     5   ar
     5     5     6   ar
     6     6     7   ar
     7     7     8   ar
     8     7     9   ar
     9     9    10   ar
    10    10    11   ar
    11    11    12   ar
    12    12    13   ar
    13    13    14   ar
    14    14    15   ar
    15    15    16    1
    16    16    17    1
    17    15    18   ar
    18    18    19   ar
    19    19    20   ar
    20    20    21   ar
    21    21    22    1
    22    22    23    1
    23    23    24    1
    24    24    25    3
    25    21    26   ar
    26    26    27   ar
    27    27    28   ar
    28    28    29    1
    29    11    30    1
    30    30    31    1
    31    31    32   am
    32    32    33    2
    33     8     3   ar
    34    27     9   ar
    35    28     6   ar
    36    32    10    1
    37    26    12   ar
    38    20    13   ar
    39     1    34    1
    40     1    35    1
    41     1    36    1
    42     4    37    1
    43     5    38    1
    44     8    39    1
    45    14    40    1
    46    17    41    1
    47    17    42    1
    48    17    43    1
    49    18    44    1
    50    19    45    1
    51    22    46    1
    52    22    47    1
    53    23    48    1
    54    23    49    1
    55    29    50    1
    56    29    51    1
    57    29    52    1
    58    30    53    1
    59    30    54    1
    60    31    55    1
