
     RDKit          3D

 55 60  0  0  0  0  0  0  0  0999 V2000
    5.3147   -3.6638    0.9583 C   0  0  0  0  0  0  0  0  0  0  0  0
    5.4961   -3.0871   -0.3448 O   0  0  0  0  0  0  0  0  0  0  0  0
    4.7372   -2.0624   -0.7363 C   0  0  0  0  0  0  0  0  0  0  0  0
    4.6657   -1.3904   -1.9266 C   0  0  0  0  0  0  0  0  0  0  0  0
    3.8548   -0.3491   -2.2584 C   0  0  0  0  0  0  0  0  0  0  0  0
    2.9226    0.1627   -1.3139 C   0  0  0  0  0  0  0  0  0  0  0  0
    2.9807   -0.4959   -0.1013 C   0  0  0  0  0  0  0  0  0  0  0  0
    3.7847   -1.4903    0.1944 C   0  0  0  0  0  0  0  0  0  0  0  0
    1.7825   -0.0727    0.5504 C   0  0  0  0  0  0  0  0  0  0  0  0
    1.2029   -0.7229    1.6644 C   0  0  0  0  0  0  0  0  0  0  0  0
   -0.1264   -0.4695    1.7891 C   0  0  0  0  0  0  0  0  0  0  0  0
   -0.8115    0.3406    0.9596 C   0  0  0  0  0  0  0  0  0  0  0  0
   -2.1937    0.5841    0.8545 C   0  0  0  0  0  0  0  0  0  0  0  0
   -3.2602    0.0385    1.4915 C   0  0  0  0  0  0  0  0  0  0  0  0
   -4.5488    0.2271    1.1251 C   0  0  0  0  0  0  0  0  0  0  0  0
   -5.7039   -0.2734    1.6118 O   0  0  0  0  0  0  0  0  0  0  0  0
   -5.9982   -1.1656    2.6174 C   0  0  0  0  0  0  0  0  0  0  0  0
   -4.7558    1.1169   -0.0326 C   0  0  0  0  0  0  0  0  0  0  0  0
   -3.6567    1.6656   -0.6653 C   0  0  0  0  0  0  0  0  0  0  0  0
   -2.3558    1.3852   -0.2173 C   0  0  0  0  0  0  0  0  0  0  0  0
   -1.1161    1.6700   -0.8108 N   0  0  0  0  0  0  0  0  0  0  0  0
   -1.1238    2.7132   -1.8092 C   0  0  0  0  0  0  0  0  0  0  0  0
   -1.4591    2.3855   -3.2405 C   0  0  0  0  0  0  0  0  0  0  0  0
   -1.8873    4.0549   -3.7099 C   0  0  0  0  0  0  0  0  0  0  0  0
   -2.0993    4.8712   -3.9240 N   0  0  0  0  0  0  0  0  0  0  0  0
   -0.2482    1.0432   -0.1231 C   0  0  0  0  0  0  0  0  0  0  0  0
    1.1477    0.7528   -0.2908 C   0  0  0  0  0  0  0  0  0  0  0  0
    1.8229    0.9496   -1.4657 N   0  0  0  0  0  0  0  0  0  0  0  0
    1.6185    1.5838   -2.7083 C   0  0  0  0  0  0  0  0  0  0  0  0
   -0.6283   -1.2197    2.9879 C   0  0  0  0  0  0  0  0  0  0  0  0
    0.5789   -1.6141    3.6895 N   0  0  0  0  0  0  0  0  0  0  0  0
    1.7309   -1.4332    2.7920 C   0  0  0  0  0  0  0  0  0  0  0  0
    2.8788   -1.8723    3.0881 O   0  0  0  0  0  0  0  0  0  0  0  0
    4.1938   -3.4002    1.2429 H   0  0  0  0  0  0  0  0  0  0  0  0
    6.0251   -3.2054    1.6263 H   0  0  0  0  0  0  0  0  0  0  0  0
    5.2562   -4.7656    1.0410 H   0  0  0  0  0  0  0  0  0  0  0  0
    5.3518   -1.7911   -2.7255 H   0  0  0  0  0  0  0  0  0  0  0  0
    3.9300    0.0522   -3.2386 H   0  0  0  0  0  0  0  0  0  0  0  0
    3.7971   -1.8891    1.1725 H   0  0  0  0  0  0  0  0  0  0  0  0
   -3.1047   -0.6325    2.3588 H   0  0  0  0  0  0  0  0  0  0  0  0
   -5.4943   -2.1756    2.4753 H   0  0  0  0  0  0  0  0  0  0  0  0
   -5.7483   -0.8395    3.6347 H   0  0  0  0  0  0  0  0  0  0  0  0
   -7.1333   -1.3948    2.6381 H   0  0  0  0  0  0  0  0  0  0  0  0
   -5.7761    1.2781   -0.3442 H   0  0  0  0  0  0  0  0  0  0  0  0
   -3.8238    2.3142   -1.4802 H   0  0  0  0  0  0  0  0  0  0  0  0
   -1.9368    3.4978   -1.4603 H   0  0  0  0  0  0  0  0  0  0  0  0
   -0.2430    3.4286   -1.6865 H   0  0  0  0  0  0  0  0  0  0  0  0
   -0.6479    2.4426   -3.9389 H   0  0  0  0  0  0  0  0  0  0  0  0
   -2.3721    1.9561   -3.4834 H   0  0  0  0  0  0  0  0  0  0  0  0
    1.4285    2.6487   -2.7990 H   0  0  0  0  0  0  0  0  0  0  0  0
    2.5661    1.5014   -3.3925 H   0  0  0  0  0  0  0  0  0  0  0  0
    0.8785    0.9726   -3.3676 H   0  0  0  0  0  0  0  0  0  0  0  0
   -1.1511   -0.4850    3.6349 H   0  0  0  0  0  0  0  0  0  0  0  0
   -1.2261   -2.1231    2.7241 H   0  0  0  0  0  0  0  0  0  0  0  0
    0.6838   -1.9824    4.6729 H   0  0  0  0  0  0  0  0  0  0  0  0
  1  2  1  0
  2  3  1  0
  3  4  2  0
  4  5  1  0
  5  6  2  0
  6  7  1  0
  7  8  2  0
  7  9  1  0
  9 10  2  0
 10 11  1  0
 11 12  2  0
 12 13  1  0
 13 14  2  0
 14 15  1  0
 15 16  1  0
 16 17  1  0
 15 18  2  0
 18 19  1  0
 19 20  2  0
 20 21  1  0
 21 22  1  0
 22 23  1  0
 23 24  1  0
 24 25  3  0
 21 26  1  0
 26 27  2  0
 27 28  1  0
 28 29  1  0
 11 30  1  0
 30 31  1  0
 31 32  1  0
 32 33  2  0
  8  3  1  0
 27  9  1  0
 28  6  1  0
 32 10  1  0
 26 12  1  0
 20 13  1  0
  1 34  1  0
  1 35  1  0
  1 36  1  0
  4 37  1  0
  5 38  1  0
  8 39  1  0
 14 40  1  0
 17 41  1  0
 17 42  1  0
 17 43  1  0
 18 44  1  0
 19 45  1  0
 22 46  1  0
 22 47  1  0
 23 48  1  0
 23 49  1  0
 29 50  1  0
 29 51  1  0
 29 52  1  0
 30 53  1  0
 30 54  1  0
 31 55  1  0
M  END
$$$$
