
     RDKit          3D

 57 60  0  0  0  0  0  0  0  0999 V2000
   -1.3569    0.6925   -0.3526 C   0  0  2  0  0  0  0  0  0  0  0  0
   -0.1125    1.3316   -0.9169 C   0  0  0  0  0  0  0  0  0  0  0  0
    0.8662    0.2749   -1.3768 C   0  0  0  0  0  0  0  0  0  0  0  0
    2.1174    0.8611   -1.9461 C   0  0  0  0  0  0  0  0  0  0  0  0
    3.3765    0.4553   -1.2512 C   0  0  0  0  0  0  0  0  0  0  0  0
    3.3101    0.2751    0.1434 N   0  0  0  0  0  0  0  0  0  0  0  0
    4.3413    0.7846    0.9604 C   0  0  0  0  0  0  0  0  0  0  0  0
    5.6346    0.1467    0.6093 C   0  0  0  0  0  0  0  0  0  0  0  0
    6.6055    0.5555   -0.2756 C   0  0  0  0  0  0  0  0  0  0  0  0
    7.7394   -0.2094   -0.4491 C   0  0  0  0  0  0  0  0  0  0  0  0
    7.9781   -1.3911    0.2210 C   0  0  0  0  0  0  0  0  0  0  0  0
    7.0214   -1.8112    1.1052 C   0  0  0  0  0  0  0  0  0  0  0  0
    5.8849   -1.0535    1.2852 C   0  0  0  0  0  0  0  0  0  0  0  0
    2.0422    0.0375    0.7334 C   0  0  0  0  0  0  0  0  0  0  0  0
    1.1961   -0.7002   -0.2865 C   0  0  0  0  0  0  0  0  0  0  0  0
   -2.0665   -0.1668   -1.3451 C   0  0  0  0  0  0  0  0  0  0  0  0
   -3.4686   -0.1445   -0.8606 C   0  0  0  0  0  0  0  0  0  0  0  0
   -4.4421   -1.0903   -1.1042 C   0  0  0  0  0  0  0  0  0  0  0  0
   -5.6854   -0.8599   -0.5474 C   0  0  0  0  0  0  0  0  0  0  0  0
   -6.7078   -1.7761   -0.7568 O   0  0  0  0  0  0  0  0  0  0  0  0
   -6.5534   -2.9468   -1.5151 C   0  0  0  0  0  0  0  0  0  0  0  0
   -5.9423    0.2563    0.2124 C   0  0  0  0  0  0  0  0  0  0  0  0
   -7.2099    0.4235    0.7391 O   0  0  0  0  0  0  0  0  0  0  0  0
   -7.5048    1.5512    1.5187 C   0  0  0  0  0  0  0  0  0  0  0  0
   -4.9320    1.1673    0.4226 C   0  0  0  0  0  0  0  0  0  0  0  0
   -3.6639    1.0026   -0.1028 C   0  0  0  0  0  0  0  0  0  0  0  0
   -2.3935    1.7517   -0.0777 C   0  0  0  0  0  0  0  0  0  0  0  0
   -2.4402    2.9932    0.1459 O   0  0  0  0  0  0  0  0  0  0  0  0
   -1.1968    0.1408    0.5687 H   0  0  0  0  0  0  0  0  0  0  0  0
    0.3520    1.9639   -0.1103 H   0  0  0  0  0  0  0  0  0  0  0  0
   -0.3207    2.0159   -1.7401 H   0  0  0  0  0  0  0  0  0  0  0  0
    0.2947   -0.3264   -2.1466 H   0  0  0  0  0  0  0  0  0  0  0  0
    2.0647    1.9743   -2.0503 H   0  0  0  0  0  0  0  0  0  0  0  0
    2.1958    0.5019   -3.0146 H   0  0  0  0  0  0  0  0  0  0  0  0
    3.7034   -0.5224   -1.7016 H   0  0  0  0  0  0  0  0  0  0  0  0
    4.1606    1.1918   -1.5346 H   0  0  0  0  0  0  0  0  0  0  0  0
    4.0752    0.5763    2.0313 H   0  0  0  0  0  0  0  0  0  0  0  0
    4.4624    1.8943    0.9082 H   0  0  0  0  0  0  0  0  0  0  0  0
    6.3864    1.4793   -0.7736 H   0  0  0  0  0  0  0  0  0  0  0  0
    8.4488    0.1962   -1.1699 H   0  0  0  0  0  0  0  0  0  0  0  0
    8.8983   -1.9237    0.0191 H   0  0  0  0  0  0  0  0  0  0  0  0
    7.1845   -2.7325    1.6420 H   0  0  0  0  0  0  0  0  0  0  0  0
    5.1747   -1.4721    2.0155 H   0  0  0  0  0  0  0  0  0  0  0  0
    1.5311    0.8975    1.1674 H   0  0  0  0  0  0  0  0  0  0  0  0
    2.2094   -0.7190    1.5553 H   0  0  0  0  0  0  0  0  0  0  0  0
    1.8009   -1.5397   -0.6718 H   0  0  0  0  0  0  0  0  0  0  0  0
    0.3333   -1.1404    0.2265 H   0  0  0  0  0  0  0  0  0  0  0  0
   -1.6665   -1.2028   -1.3957 H   0  0  0  0  0  0  0  0  0  0  0  0
   -2.0552    0.3041   -2.3545 H   0  0  0  0  0  0  0  0  0  0  0  0
   -4.2566   -1.9725   -1.6989 H   0  0  0  0  0  0  0  0  0  0  0  0
   -7.5544   -3.3517   -1.7708 H   0  0  0  0  0  0  0  0  0  0  0  0
   -5.9033   -3.7018   -1.0194 H   0  0  0  0  0  0  0  0  0  0  0  0
   -6.0554   -2.7187   -2.4930 H   0  0  0  0  0  0  0  0  0  0  0  0
   -7.0892    2.4550    0.9852 H   0  0  0  0  0  0  0  0  0  0  0  0
   -7.1082    1.5241    2.5393 H   0  0  0  0  0  0  0  0  0  0  0  0
   -8.6138    1.7454    1.5674 H   0  0  0  0  0  0  0  0  0  0  0  0
   -5.0895    2.0522    1.0095 H   0  0  0  0  0  0  0  0  0  0  0  0
  1  2  1  0
  2  3  1  0
  3  4  1  0
  4  5  1  0
  5  6  1  0
  6  7  1  0
  7  8  1  0
  8  9  2  0
  9 10  1  0
 10 11  2  0
 11 12  1  0
 12 13  2  0
  6 14  1  0
 14 15  1  0
  1 16  1  0
 16 17  1  0
 17 18  2  0
 18 19  1  0
 19 20  1  0
 20 21  1  0
 19 22  2  0
 22 23  1  0
 23 24  1  0
 22 25  1  0
 25 26  2  0
 26 27  1  0
 27 28  2  0
 27  1  1  0
 15  3  1  0
 26 17  1  0
 13  8  1  0
  1 29  1  1
  2 30  1  0
  2 31  1  0
  3 32  1  0
  4 33  1  0
  4 34  1  0
  5 35  1  0
  5 36  1  0
  7 37  1  0
  7 38  1  0
  9 39  1  0
 10 40  1  0
 11 41  1  0
 12 42  1  0
 13 43  1  0
 14 44  1  0
 14 45  1  0
 15 46  1  0
 15 47  1  0
 16 48  1  0
 16 49  1  0
 18 50  1  0
 21 51  1  0
 21 52  1  0
 21 53  1  0
 24 54  1  0
 24 55  1  0
 24 56  1  0
 25 57  1  0
M  END
$$$$
