@<TRIPOS>MOLECULE
*****
 57 60 0 0 0
SMALL
GASTEIGER

@<TRIPOS>ATOM
      1 C          -1.3569    0.6925   -0.3526 C.3     1  UNL1        0.0264
      2 C          -0.1125    1.3316   -0.9169 C.3     1  UNL1       -0.0399
      3 C           0.8662    0.2749   -1.3768 C.3     1  UNL1       -0.0381
      4 C           2.1174    0.8611   -1.9461 C.3     1  UNL1       -0.0373
      5 C           3.3765    0.4553   -1.2512 C.3     1  UNL1       -0.0005
      6 N           3.3101    0.2751    0.1434 N.3     1  UNL1       -0.2981
      7 C           4.3413    0.7846    0.9604 C.3     1  UNL1        0.0240
      8 C           5.6346    0.1467    0.6093 C.ar    1  UNL1       -0.0334
      9 C           6.6055    0.5555   -0.2756 C.ar    1  UNL1       -0.0573
     10 C           7.7394   -0.2094   -0.4491 C.ar    1  UNL1       -0.0615
     11 C           7.9781   -1.3911    0.2210 C.ar    1  UNL1       -0.0617
     12 C           7.0214   -1.8112    1.1052 C.ar    1  UNL1       -0.0615
     13 C           5.8849   -1.0535    1.2852 C.ar    1  UNL1       -0.0573
     14 C           2.0422    0.0375    0.7334 C.3     1  UNL1       -0.0005
     15 C           1.1961   -0.7002   -0.2865 C.3     1  UNL1       -0.0373
     16 C          -2.0665   -0.1668   -1.3451 C.3     1  UNL1       -0.0170
     17 C          -3.4686   -0.1445   -0.8606 C.ar    1  UNL1       -0.0325
     18 C          -4.4421   -1.0903   -1.1042 C.ar    1  UNL1       -0.0124
     19 C          -5.6854   -0.8599   -0.5474 C.ar    1  UNL1        0.1618
     20 O          -6.7078   -1.7761   -0.7568 O.3     1  UNL1       -0.4914
     21 C          -6.5534   -2.9468   -1.5151 C.3     1  UNL1        0.0790
     22 C          -5.9423    0.2563    0.2124 C.ar    1  UNL1        0.1622
     23 O          -7.2099    0.4235    0.7391 O.3     1  UNL1       -0.4914
     24 C          -7.5048    1.5512    1.5187 C.3     1  UNL1        0.0790
     25 C          -4.9320    1.1673    0.4226 C.ar    1  UNL1       -0.0056
     26 C          -3.6639    1.0026   -0.1028 C.ar    1  UNL1        0.0246
     27 C          -2.3935    1.7517   -0.0777 C.2     1  UNL1        0.1669
     28 O          -2.4402    2.9932    0.1459 O.2     1  UNL1       -0.2917
     29 H          -1.1968    0.1408    0.5687 H       1  UNL1        0.0384
     30 H           0.3520    1.9639   -0.1103 H       1  UNL1        0.0275
     31 H          -0.3207    2.0159   -1.7401 H       1  UNL1        0.0275
     32 H           0.2947   -0.3264   -2.1466 H       1  UNL1        0.0302
     33 H           2.0647    1.9743   -2.0503 H       1  UNL1        0.0280
     34 H           2.1958    0.5019   -3.0146 H       1  UNL1        0.0280
     35 H           3.7034   -0.5224   -1.7016 H       1  UNL1        0.0427
     36 H           4.1606    1.1918   -1.5346 H       1  UNL1        0.0427
     37 H           4.0752    0.5763    2.0313 H       1  UNL1        0.0476
     38 H           4.4624    1.8943    0.9082 H       1  UNL1        0.0476
     39 H           6.3864    1.4793   -0.7736 H       1  UNL1        0.0621
     40 H           8.4488    0.1962   -1.1699 H       1  UNL1        0.0618
     41 H           8.8983   -1.9237    0.0191 H       1  UNL1        0.0618
     42 H           7.1845   -2.7325    1.6420 H       1  UNL1        0.0618
     43 H           5.1747   -1.4721    2.0155 H       1  UNL1        0.0621
     44 H           1.5311    0.8975    1.1674 H       1  UNL1        0.0427
     45 H           2.2094   -0.7190    1.5553 H       1  UNL1        0.0427
     46 H           1.8009   -1.5397   -0.6718 H       1  UNL1        0.0280
     47 H           0.3333   -1.1404    0.2265 H       1  UNL1        0.0280
     48 H          -1.6665   -1.2028   -1.3957 H       1  UNL1        0.0320
     49 H          -2.0552    0.3041   -2.3545 H       1  UNL1        0.0320
     50 H          -4.2566   -1.9725   -1.6989 H       1  UNL1        0.0658
     51 H          -7.5544   -3.3517   -1.7708 H       1  UNL1        0.0660
     52 H          -5.9033   -3.7018   -1.0194 H       1  UNL1        0.0660
     53 H          -6.0554   -2.7187   -2.4930 H       1  UNL1        0.0660
     54 H          -7.0892    2.4550    0.9852 H       1  UNL1        0.0660
     55 H          -7.1082    1.5241    2.5393 H       1  UNL1        0.0660
     56 H          -8.6138    1.7454    1.5674 H       1  UNL1        0.0660
     57 H          -5.0895    2.0522    1.0095 H       1  UNL1        0.0662
@<TRIPOS>BOND
     1     1     2    1
     2     2     3    1
     3     3     4    1
     4     4     5    1
     5     5     6    1
     6     6     7    1
     7     7     8    1
     8     8     9   ar
     9     9    10   ar
    10    10    11   ar
    11    11    12   ar
    12    12    13   ar
    13     6    14    1
    14    14    15    1
    15     1    16    1
    16    16    17    1
    17    17    18   ar
    18    18    19   ar
    19    19    20    1
    20    20    21    1
    21    19    22   ar
    22    22    23    1
    23    23    24    1
    24    22    25   ar
    25    25    26   ar
    26    26    27    1
    27    27    28    2
    28    27     1    1
    29    15     3    1
    30    26    17   ar
    31    13     8   ar
    32     1    29    1
    33     2    30    1
    34     2    31    1
    35     3    32    1
    36     4    33    1
    37     4    34    1
    38     5    35    1
    39     5    36    1
    40     7    37    1
    41     7    38    1
    42     9    39    1
    43    10    40    1
    44    11    41    1
    45    12    42    1
    46    13    43    1
    47    14    44    1
    48    14    45    1
    49    15    46    1
    50    15    47    1
    51    16    48    1
    52    16    49    1
    53    18    50    1
    54    21    51    1
    55    21    52    1
    56    21    53    1
    57    24    54    1
    58    24    55    1
    59    24    56    1
    60    25    57    1
