
     RDKit          3D

 26 26  0  0  0  0  0  0  0  0999 V2000
   -1.0475    0.1207   -0.7004 C   0  0  1  0  0  0  0  0  0  0  0  0
    0.1720    0.8020   -0.0839 C   0  0  0  0  0  0  0  0  0  0  0  0
    1.3706   -0.0991   -0.1319 C   0  0  0  0  0  0  0  0  0  0  0  0
    2.5980    0.5569    0.4760 C   0  0  0  0  0  0  0  0  0  0  0  0
    3.7450   -0.4338    0.3767 C   0  0  0  0  0  0  0  0  0  0  0  0
   -1.4041   -1.1090   -0.0052 C   0  0  0  0  0  0  0  0  0  0  0  0
   -2.7950   -1.0820    0.5273 C   0  0  0  0  0  0  0  0  0  0  0  0
   -3.0452    0.7080    0.7460 S   0  0  0  0  0  4  0  0  0  0  0  0
   -4.5140    1.0621    0.6412 O   0  0  0  0  0  0  0  0  0  0  0  0
   -2.1391    1.1205   -0.7589 C   0  0  0  0  0  0  0  0  0  0  0  0
   -0.7458   -0.0943   -1.7675 H   0  0  0  0  0  0  0  0  0  0  0  0
    0.4251    1.7299   -0.6365 H   0  0  0  0  0  0  0  0  0  0  0  0
   -0.0122    1.0614    0.9806 H   0  0  0  0  0  0  0  0  0  0  0  0
    1.6323   -0.3630   -1.1793 H   0  0  0  0  0  0  0  0  0  0  0  0
    1.2282   -1.0575    0.4001 H   0  0  0  0  0  0  0  0  0  0  0  0
    2.9011    1.4502   -0.1074 H   0  0  0  0  0  0  0  0  0  0  0  0
    2.4397    0.8358    1.5315 H   0  0  0  0  0  0  0  0  0  0  0  0
    3.9439   -0.9516    1.3376 H   0  0  0  0  0  0  0  0  0  0  0  0
    4.6901    0.0776    0.0543 H   0  0  0  0  0  0  0  0  0  0  0  0
    3.5296   -1.1722   -0.4054 H   0  0  0  0  0  0  0  0  0  0  0  0
   -0.7391   -1.2323    0.9008 H   0  0  0  0  0  0  0  0  0  0  0  0
   -1.2370   -2.0342   -0.5962 H   0  0  0  0  0  0  0  0  0  0  0  0
   -2.9561   -1.6484    1.4430 H   0  0  0  0  0  0  0  0  0  0  0  0
   -3.4919   -1.3898   -0.2845 H   0  0  0  0  0  0  0  0  0  0  0  0
   -2.7952    0.9853   -1.6608 H   0  0  0  0  0  0  0  0  0  0  0  0
   -1.7534    2.1570   -0.6906 H   0  0  0  0  0  0  0  0  0  0  0  0
  1  2  1  0
  2  3  1  0
  3  4  1  0
  4  5  1  0
  1  6  1  0
  6  7  1  0
  8  7  1  6
  8  9  2  0
  8 10  1  0
 10  1  1  0
  1 11  1  6
  2 12  1  0
  2 13  1  0
  3 14  1  0
  3 15  1  0
  4 16  1  0
  4 17  1  0
  5 18  1  0
  5 19  1  0
  5 20  1  0
  6 21  1  0
  6 22  1  0
  7 23  1  0
  7 24  1  0
 10 25  1  0
 10 26  1  0
M  END
$$$$
