
     RDKit          3D

 53 57  0  0  0  0  0  0  0  0999 V2000
    5.3180    4.7724   -1.9737 C   0  0  0  0  0  0  0  0  0  0  0  0
    5.1826    3.4104   -1.7861 O   0  0  0  0  0  0  0  0  0  0  0  0
    4.7687    2.4153   -2.6037 C   0  0  0  0  0  0  0  0  0  0  0  0
    4.4165    2.7294   -3.7754 O   0  0  0  0  0  0  0  0  0  0  0  0
    4.7105    1.0020   -2.1888 C   0  0  0  0  0  0  0  0  0  0  0  0
    4.3482    0.0775   -2.9182 O   0  0  0  0  0  0  0  0  0  0  0  0
    5.1154    0.6846   -0.8316 N   0  0  0  0  0  0  0  0  0  0  0  0
    5.1647   -0.6011   -0.2712 C   0  0  0  0  0  0  0  0  0  0  0  0
    6.3839   -1.3091   -0.3310 C   0  0  0  0  0  0  0  0  0  0  0  0
    6.5977   -2.5270    0.2345 C   0  0  0  0  0  0  0  0  0  0  0  0
    5.5183   -3.0845    0.9081 C   0  0  0  0  0  0  0  0  0  0  0  0
    4.3145   -2.4052    0.9771 C   0  0  0  0  0  0  0  0  0  0  0  0
    4.0934   -1.1683    0.4093 C   0  0  0  0  0  0  0  0  0  0  0  0
    2.7418   -0.7191    0.7427 C   0  0  0  0  0  0  0  0  0  0  0  0
    2.0737   -1.9487    1.2978 C   0  0  0  0  0  0  0  0  0  0  0  0
    3.0531   -2.8916    1.5415 C   0  0  0  0  0  0  0  0  0  0  0  0
    2.5203   -3.9551    2.1452 N   0  0  0  0  0  0  0  0  0  0  0  0
    1.2574   -3.6978    2.2664 N   0  0  0  0  0  0  0  0  0  0  0  0
    0.8973   -2.4708    1.7622 C   0  0  0  0  0  0  0  0  0  0  0  0
   -0.4975   -1.9513    1.7089 C   0  0  0  0  0  0  0  0  0  0  0  0
   -1.4700   -2.6449    2.4826 C   0  0  0  0  0  0  0  0  0  0  0  0
   -2.9973   -1.9897    1.9333 S   0  0  0  0  0  0  0  0  0  0  0  0
   -2.3206   -0.8716    0.7521 C   0  0  0  0  0  0  0  0  0  0  0  0
   -3.1519    0.0002   -0.1659 C   0  0  0  0  0  0  0  0  0  0  0  0
   -3.8015    0.6530   -0.8608 C   0  0  0  0  0  0  0  0  0  0  0  0
   -4.6142    1.5064   -1.7464 C   0  0  0  0  0  0  0  0  0  0  0  0
   -5.9588    1.1734   -1.8308 O   0  0  0  0  0  0  0  0  0  0  0  0
   -6.9408    1.1513   -0.8914 C   0  0  0  0  0  0  0  0  0  0  0  0
   -8.2067    0.7580   -1.1539 C   0  0  0  0  0  0  0  0  0  0  0  0
   -9.3161    0.6639   -0.3757 C   0  0  0  0  0  0  0  0  0  0  0  0
   -9.0604    1.0664    0.9766 C   0  0  0  0  0  0  0  0  0  0  0  0
   -7.7947    1.4816    1.3061 C   0  0  0  0  0  0  0  0  0  0  0  0
   -6.7253    1.5510    0.4695 C   0  0  0  0  0  0  0  0  0  0  0  0
   -1.0344   -1.0612    0.8505 C   0  0  0  0  0  0  0  0  0  0  0  0
    6.0590    5.1443   -1.2241 H   0  0  0  0  0  0  0  0  0  0  0  0
    4.3740    5.3434   -1.8334 H   0  0  0  0  0  0  0  0  0  0  0  0
    5.7407    5.0070   -2.9622 H   0  0  0  0  0  0  0  0  0  0  0  0
    5.4254    1.5270   -0.2821 H   0  0  0  0  0  0  0  0  0  0  0  0
    7.2216   -0.8368   -0.8713 H   0  0  0  0  0  0  0  0  0  0  0  0
    7.5408   -3.0382    0.1757 H   0  0  0  0  0  0  0  0  0  0  0  0
    5.6685   -4.0485    1.3669 H   0  0  0  0  0  0  0  0  0  0  0  0
    2.8125   -0.0299    1.6854 H   0  0  0  0  0  0  0  0  0  0  0  0
    2.1981   -0.1933   -0.0045 H   0  0  0  0  0  0  0  0  0  0  0  0
    0.5397   -4.3616    2.6931 H   0  0  0  0  0  0  0  0  0  0  0  0
   -1.3215   -3.4074    3.2568 H   0  0  0  0  0  0  0  0  0  0  0  0
   -4.1032    1.4757   -2.7602 H   0  0  0  0  0  0  0  0  0  0  0  0
   -4.5080    2.5894   -1.3732 H   0  0  0  0  0  0  0  0  0  0  0  0
   -8.3928    0.4484   -2.2211 H   0  0  0  0  0  0  0  0  0  0  0  0
  -10.2823    0.3424   -0.6043 H   0  0  0  0  0  0  0  0  0  0  0  0
   -9.8532    1.0273    1.6888 H   0  0  0  0  0  0  0  0  0  0  0  0
   -7.6094    1.7970    2.3804 H   0  0  0  0  0  0  0  0  0  0  0  0
   -5.7674    1.8715    0.7346 H   0  0  0  0  0  0  0  0  0  0  0  0
   -0.3285   -0.4574    0.1764 H   0  0  0  0  0  0  0  0  0  0  0  0
  1  2  1  0
  2  3  1  0
  3  4  2  0
  3  5  1  0
  5  6  2  0
  5  7  1  0
  7  8  1  0
  8  9  2  0
  9 10  1  0
 10 11  2  0
 11 12  1  0
 12 13  2  0
 13 14  1  0
 14 15  1  0
 15 16  1  0
 16 17  2  0
 17 18  1  0
 18 19  1  0
 19 20  1  0
 20 21  2  0
 21 22  1  0
 22 23  1  0
 23 24  1  0
 24 25  3  0
 25 26  1  0
 26 27  1  0
 27 28  1  0
 28 29  2  0
 29 30  1  0
 30 31  2  0
 31 32  1  0
 32 33  2  0
 23 34  2  0
 13  8  1  0
 19 15  2  0
 34 20  1  0
 16 12  1  0
 33 28  1  0
  1 35  1  0
  1 36  1  0
  1 37  1  0
  7 38  1  0
  9 39  1  0
 10 40  1  0
 11 41  1  0
 14 42  1  0
 14 43  1  0
 18 44  1  0
 21 45  1  0
 26 46  1  0
 26 47  1  0
 29 48  1  0
 30 49  1  0
 31 50  1  0
 32 51  1  0
 33 52  1  0
 34 53  1  0
M  END
$$$$
