@<TRIPOS>MOLECULE
*****
 53 57 0 0 0
SMALL
GASTEIGER

@<TRIPOS>ATOM
      1 C           5.3180    4.7724   -1.9737 C.3     1  UNL1        0.0821
      2 O           5.1826    3.4104   -1.7861 O.3     1  UNL1       -0.4613
      3 C           4.7687    2.4153   -2.6037 C.2     1  UNL1        0.3947
      4 O           4.4165    2.7294   -3.7754 O.2     1  UNL1       -0.2398
      5 C           4.7105    1.0020   -2.1888 C.2     1  UNL1        0.3256
      6 O           4.3482    0.0775   -2.9182 O.2     1  UNL1       -0.2627
      7 N           5.1154    0.6846   -0.8316 N.am    1  UNL1       -0.2759
      8 C           5.1647   -0.6011   -0.2712 C.ar    1  UNL1        0.0380
      9 C           6.3839   -1.3091   -0.3310 C.ar    1  UNL1       -0.0402
     10 C           6.5977   -2.5270    0.2345 C.ar    1  UNL1       -0.0594
     11 C           5.5183   -3.0845    0.9081 C.ar    1  UNL1       -0.0521
     12 C           4.3145   -2.4052    0.9771 C.ar    1  UNL1        0.0076
     13 C           4.0934   -1.1683    0.4093 C.ar    1  UNL1       -0.0125
     14 C           2.7418   -0.7191    0.7427 C.3     1  UNL1        0.0041
     15 C           2.0737   -1.9487    1.2978 C.ar    1  UNL1        0.0099
     16 C           3.0531   -2.8916    1.5415 C.ar    1  UNL1        0.0969
     17 N           2.5203   -3.9551    2.1452 N.ar    1  UNL1       -0.1730
     18 N           1.2574   -3.6978    2.2664 N.ar    1  UNL1       -0.2761
     19 C           0.8973   -2.4708    1.7622 C.ar    1  UNL1        0.0704
     20 C          -0.4975   -1.9513    1.7089 C.ar    1  UNL1        0.0083
     21 C          -1.4700   -2.6449    2.4826 C.ar    1  UNL1       -0.0140
     22 S          -2.9973   -1.9897    1.9333 S.2     1  UNL1       -0.0876
     23 C          -2.3206   -0.8716    0.7521 C.ar    1  UNL1        0.0627
     24 C          -3.1519    0.0002   -0.1659 C.1     1  UNL1       -0.0558
     25 C          -3.8015    0.6530   -0.8608 C.1     1  UNL1       -0.0557
     26 C          -4.6142    1.5064   -1.7464 C.3     1  UNL1        0.1502
     27 O          -5.9588    1.1734   -1.8308 O.3     1  UNL1       -0.4795
     28 C          -6.9408    1.1513   -0.8914 C.ar    1  UNL1        0.1219
     29 C          -8.2067    0.7580   -1.1539 C.ar    1  UNL1       -0.0199
     30 C          -9.3161    0.6639   -0.3757 C.ar    1  UNL1       -0.0583
     31 C          -9.0604    1.0664    0.9766 C.ar    1  UNL1       -0.0615
     32 C          -7.7947    1.4816    1.3061 C.ar    1  UNL1       -0.0583
     33 C          -6.7253    1.5510    0.4695 C.ar    1  UNL1       -0.0199
     34 C          -1.0344   -1.0612    0.8505 C.ar    1  UNL1       -0.0300
     35 H           6.0590    5.1443   -1.2241 H       1  UNL1        0.0661
     36 H           4.3740    5.3434   -1.8334 H       1  UNL1        0.0661
     37 H           5.7407    5.0070   -2.9622 H       1  UNL1        0.0661
     38 H           5.4254    1.5270   -0.2821 H       1  UNL1        0.1553
     39 H           7.2216   -0.8368   -0.8713 H       1  UNL1        0.0636
     40 H           7.5408   -3.0382    0.1757 H       1  UNL1        0.0618
     41 H           5.6685   -4.0485    1.3669 H       1  UNL1        0.0624
     42 H           2.8125   -0.0299    1.6854 H       1  UNL1        0.0364
     43 H           2.1981   -0.1933   -0.0045 H       1  UNL1        0.0364
     44 H           0.5397   -4.3616    2.6931 H       1  UNL1        0.1889
     45 H          -1.3215   -3.4074    3.2568 H       1  UNL1        0.0700
     46 H          -4.1032    1.4757   -2.7602 H       1  UNL1        0.0837
     47 H          -4.5080    2.5894   -1.3732 H       1  UNL1        0.0837
     48 H          -8.3928    0.4484   -2.2211 H       1  UNL1        0.0654
     49 H         -10.2823    0.3424   -0.6043 H       1  UNL1        0.0619
     50 H          -9.8532    1.0273    1.6888 H       1  UNL1        0.0618
     51 H          -7.6094    1.7970    2.3804 H       1  UNL1        0.0619
     52 H          -5.7674    1.8715    0.7346 H       1  UNL1        0.0654
     53 H          -0.3285   -0.4574    0.1764 H       1  UNL1        0.0642
@<TRIPOS>BOND
     1     1     2    1
     2     2     3    1
     3     3     4    2
     4     3     5    1
     5     5     6    2
     6     5     7   am
     7     7     8    1
     8     8     9   ar
     9     9    10   ar
    10    10    11   ar
    11    11    12   ar
    12    12    13   ar
    13    13    14    1
    14    14    15    1
    15    15    16   ar
    16    16    17   ar
    17    17    18   ar
    18    18    19   ar
    19    19    20    1
    20    20    21   ar
    21    21    22   ar
    22    22    23   ar
    23    23    24    1
    24    24    25    3
    25    25    26    1
    26    26    27    1
    27    27    28    1
    28    28    29   ar
    29    29    30   ar
    30    30    31   ar
    31    31    32   ar
    32    32    33   ar
    33    23    34   ar
    34    13     8   ar
    35    19    15   ar
    36    34    20   ar
    37    16    12    1
    38    33    28   ar
    39     1    35    1
    40     1    36    1
    41     1    37    1
    42     7    38    1
    43     9    39    1
    44    10    40    1
    45    11    41    1
    46    14    42    1
    47    14    43    1
    48    18    44    1
    49    21    45    1
    50    26    46    1
    51    26    47    1
    52    29    48    1
    53    30    49    1
    54    31    50    1
    55    32    51    1
    56    33    52    1
    57    34    53    1
