@<TRIPOS>MOLECULE
*****
 45 48 0 0 0
SMALL
GASTEIGER

@<TRIPOS>ATOM
      1 N          -3.6796    3.8763    0.2648 N.1     1  UNL1       -0.1892
      2 C          -2.8000    3.5689   -0.4647 C.1     1  UNL1        0.1208
      3 C          -1.7296    3.1798   -1.3299 C.ar    1  UNL1        0.1618
      4 C          -1.3801    3.8491   -2.5140 C.ar    1  UNL1        0.0659
      5 N          -0.3457    3.1837   -3.0544 N.ar    1  UNL1       -0.2333
      6 C          -0.0225    2.1327   -2.2784 C.ar    1  UNL1        0.1555
      7 C           0.9472    1.1472   -2.3976 C.ar    1  UNL1       -0.0153
      8 C           1.0141    0.1913   -1.4193 C.ar    1  UNL1       -0.0290
      9 C           0.1303    0.1948   -0.3164 C.ar    1  UNL1        0.1103
     10 C           0.2537   -0.8150    0.7145 C.ar    1  UNL1        0.0969
     11 C           1.1578   -0.6857    1.7726 C.ar    1  UNL1        0.0982
     12 C           2.0243    0.4540    2.0342 C.ar    1  UNL1        0.0027
     13 C           3.0341    0.8884    1.2168 C.ar    1  UNL1       -0.0498
     14 C           3.8307    2.0024    1.5511 C.ar    1  UNL1       -0.0258
     15 C           3.6185    2.6877    2.7133 C.ar    1  UNL1        0.1234
     16 F           4.4076    3.7755    3.0120 F       1  UNL1       -0.2055
     17 C           2.6197    2.2775    3.5538 C.ar    1  UNL1       -0.0258
     18 C           1.8266    1.1776    3.2253 C.ar    1  UNL1       -0.0498
     19 N           1.0270   -1.7936    2.5207 N.ar    1  UNL1       -0.2351
     20 C           0.1043   -2.5884    1.9956 C.ar    1  UNL1        0.0974
     21 N          -0.3740   -1.9659    0.8658 N.ar    1  UNL1       -0.3228
     22 C          -1.4245   -2.5405    0.0798 C.3     1  UNL1        0.0672
     23 C          -0.8747   -3.7559   -0.6135 C.3     1  UNL1        0.0653
     24 O           0.1881   -3.3845   -1.4467 O.3     1  UNL1       -0.3930
     25 C          -2.1380   -1.6137   -0.8261 C.3     1  UNL1        0.0657
     26 C          -3.2381   -2.2917   -1.5880 C.3     1  UNL1        0.3921
     27 F          -3.8417   -1.2936   -2.3970 F       1  UNL1       -0.1707
     28 F          -2.7833   -3.2148   -2.5073 F       1  UNL1       -0.1707
     29 F          -4.2275   -2.7962   -0.7740 F       1  UNL1       -0.1707
     30 N          -0.7559    1.1871   -0.3137 N.ar    1  UNL1       -0.1623
     31 N          -0.8628    2.1303   -1.2291 N.ar    1  UNL1       -0.2023
     32 H          -1.8389    4.7276   -2.9369 H       1  UNL1        0.0859
     33 H           1.6229    1.1526   -3.2542 H       1  UNL1        0.0655
     34 H           1.7309   -0.5944   -1.4460 H       1  UNL1        0.0641
     35 H           3.2304    0.3568    0.2962 H       1  UNL1        0.0625
     36 H           4.6195    2.3150    0.8790 H       1  UNL1        0.0646
     37 H           2.4645    2.8264    4.4727 H       1  UNL1        0.0646
     38 H           1.0418    0.8530    3.8834 H       1  UNL1        0.0625
     39 H          -0.2100   -3.5331    2.3820 H       1  UNL1        0.1029
     40 H          -2.2329   -2.9564    0.7830 H       1  UNL1        0.0554
     41 H          -0.3896   -4.3827    0.2016 H       1  UNL1        0.0578
     42 H          -1.5955   -4.4163   -1.0791 H       1  UNL1        0.0578
     43 H          -0.0528   -3.4999   -2.4133 H       1  UNL1        0.2095
     44 H          -1.4510   -1.1920   -1.5956 H       1  UNL1        0.0373
     45 H          -2.6448   -0.8214   -0.2229 H       1  UNL1        0.0373
@<TRIPOS>BOND
     1     1     2    3
     2     2     3    1
     3     3     4   ar
     4     4     5   ar
     5     5     6   ar
     6     6     7   ar
     7     7     8   ar
     8     8     9   ar
     9     9    10    1
    10    10    11   ar
    11    11    12    1
    12    12    13   ar
    13    13    14   ar
    14    14    15   ar
    15    15    16    1
    16    15    17   ar
    17    17    18   ar
    18    11    19   ar
    19    19    20   ar
    20    20    21   ar
    21    21    22    1
    22    22    23    1
    23    23    24    1
    24    22    25    1
    25    25    26    1
    26    26    27    1
    27    26    28    1
    28    26    29    1
    29     9    30   ar
    30    30    31   ar
    31    31     3   ar
    32    31     6   ar
    33    21    10   ar
    34    18    12   ar
    35     4    32    1
    36     7    33    1
    37     8    34    1
    38    13    35    1
    39    14    36    1
    40    17    37    1
    41    18    38    1
    42    20    39    1
    43    22    40    1
    44    23    41    1
    45    23    42    1
    46    24    43    1
    47    25    44    1
    48    25    45    1
