
     RDKit          3D

 45 48  0  0  0  0  0  0  0  0999 V2000
   -3.6796    3.8763    0.2648 N   0  0  0  0  0  0  0  0  0  0  0  0
   -2.8000    3.5689   -0.4647 C   0  0  0  0  0  0  0  0  0  0  0  0
   -1.7296    3.1798   -1.3299 C   0  0  0  0  0  0  0  0  0  0  0  0
   -1.3801    3.8491   -2.5140 C   0  0  0  0  0  0  0  0  0  0  0  0
   -0.3457    3.1837   -3.0544 N   0  0  0  0  0  0  0  0  0  0  0  0
   -0.0225    2.1327   -2.2784 C   0  0  0  0  0  0  0  0  0  0  0  0
    0.9472    1.1472   -2.3976 C   0  0  0  0  0  0  0  0  0  0  0  0
    1.0141    0.1913   -1.4193 C   0  0  0  0  0  0  0  0  0  0  0  0
    0.1303    0.1948   -0.3164 C   0  0  0  0  0  0  0  0  0  0  0  0
    0.2537   -0.8150    0.7145 C   0  0  0  0  0  0  0  0  0  0  0  0
    1.1578   -0.6857    1.7726 C   0  0  0  0  0  0  0  0  0  0  0  0
    2.0243    0.4540    2.0342 C   0  0  0  0  0  0  0  0  0  0  0  0
    3.0341    0.8884    1.2168 C   0  0  0  0  0  0  0  0  0  0  0  0
    3.8307    2.0024    1.5511 C   0  0  0  0  0  0  0  0  0  0  0  0
    3.6185    2.6877    2.7133 C   0  0  0  0  0  0  0  0  0  0  0  0
    4.4076    3.7755    3.0120 F   0  0  0  0  0  0  0  0  0  0  0  0
    2.6197    2.2775    3.5538 C   0  0  0  0  0  0  0  0  0  0  0  0
    1.8266    1.1776    3.2253 C   0  0  0  0  0  0  0  0  0  0  0  0
    1.0270   -1.7936    2.5207 N   0  0  0  0  0  0  0  0  0  0  0  0
    0.1043   -2.5884    1.9956 C   0  0  0  0  0  0  0  0  0  0  0  0
   -0.3740   -1.9659    0.8658 N   0  0  0  0  0  0  0  0  0  0  0  0
   -1.4245   -2.5405    0.0798 C   0  0  2  0  0  0  0  0  0  0  0  0
   -0.8747   -3.7559   -0.6135 C   0  0  0  0  0  0  0  0  0  0  0  0
    0.1881   -3.3845   -1.4467 O   0  0  0  0  0  0  0  0  0  0  0  0
   -2.1380   -1.6137   -0.8261 C   0  0  0  0  0  0  0  0  0  0  0  0
   -3.2381   -2.2917   -1.5880 C   0  0  0  0  0  0  0  0  0  0  0  0
   -3.8417   -1.2936   -2.3970 F   0  0  0  0  0  0  0  0  0  0  0  0
   -2.7833   -3.2148   -2.5073 F   0  0  0  0  0  0  0  0  0  0  0  0
   -4.2275   -2.7962   -0.7740 F   0  0  0  0  0  0  0  0  0  0  0  0
   -0.7559    1.1871   -0.3137 N   0  0  0  0  0  0  0  0  0  0  0  0
   -0.8628    2.1303   -1.2291 N   0  0  0  0  0  0  0  0  0  0  0  0
   -1.8389    4.7276   -2.9369 H   0  0  0  0  0  0  0  0  0  0  0  0
    1.6229    1.1526   -3.2542 H   0  0  0  0  0  0  0  0  0  0  0  0
    1.7309   -0.5944   -1.4460 H   0  0  0  0  0  0  0  0  0  0  0  0
    3.2304    0.3568    0.2962 H   0  0  0  0  0  0  0  0  0  0  0  0
    4.6195    2.3150    0.8790 H   0  0  0  0  0  0  0  0  0  0  0  0
    2.4645    2.8264    4.4727 H   0  0  0  0  0  0  0  0  0  0  0  0
    1.0418    0.8530    3.8834 H   0  0  0  0  0  0  0  0  0  0  0  0
   -0.2100   -3.5331    2.3820 H   0  0  0  0  0  0  0  0  0  0  0  0
   -2.2329   -2.9564    0.7830 H   0  0  0  0  0  0  0  0  0  0  0  0
   -0.3896   -4.3827    0.2016 H   0  0  0  0  0  0  0  0  0  0  0  0
   -1.5955   -4.4163   -1.0791 H   0  0  0  0  0  0  0  0  0  0  0  0
   -0.0528   -3.4999   -2.4133 H   0  0  0  0  0  0  0  0  0  0  0  0
   -1.4510   -1.1920   -1.5956 H   0  0  0  0  0  0  0  0  0  0  0  0
   -2.6448   -0.8214   -0.2229 H   0  0  0  0  0  0  0  0  0  0  0  0
  1  2  3  0
  2  3  1  0
  3  4  2  0
  4  5  1  0
  5  6  2  0
  6  7  1  0
  7  8  2  0
  8  9  1  0
  9 10  1  0
 10 11  2  0
 11 12  1  0
 12 13  2  0
 13 14  1  0
 14 15  2  0
 15 16  1  0
 15 17  1  0
 17 18  2  0
 11 19  1  0
 19 20  2  0
 20 21  1  0
 21 22  1  0
 22 23  1  0
 23 24  1  0
 22 25  1  0
 25 26  1  0
 26 27  1  0
 26 28  1  0
 26 29  1  0
  9 30  2  0
 30 31  1  0
 31  3  1  0
 31  6  1  0
 21 10  1  0
 18 12  1  0
  4 32  1  0
  7 33  1  0
  8 34  1  0
 13 35  1  0
 14 36  1  0
 17 37  1  0
 18 38  1  0
 20 39  1  0
 22 40  1  1
 23 41  1  0
 23 42  1  0
 24 43  1  0
 25 44  1  0
 25 45  1  0
M  END
$$$$
