
     RDKit          3D

 54 57  0  0  0  0  0  0  0  0999 V2000
   -0.2271    0.6354   -1.0458 C   0  0  2  0  0  0  0  0  0  0  0  0
   -0.5224   -0.3260   -2.1743 C   0  0  0  0  0  0  0  0  0  0  0  0
   -0.7901   -1.7049   -1.7055 C   0  0  0  0  0  0  0  0  0  0  0  0
    0.2526   -2.6080   -1.5717 C   0  0  0  0  0  0  0  0  0  0  0  0
   -0.0163   -3.9020   -1.1296 C   0  0  0  0  0  0  0  0  0  0  0  0
   -1.3220   -4.2765   -0.8272 C   0  0  0  0  0  0  0  0  0  0  0  0
   -1.6530   -5.5219   -0.3914 F   0  0  0  0  0  0  0  0  0  0  0  0
   -2.3291   -3.3298   -0.9797 C   0  0  0  0  0  0  0  0  0  0  0  0
   -2.1083   -2.0299   -1.4168 C   0  0  0  0  0  0  0  0  0  0  0  0
    0.9613    0.1673   -0.3166 N   0  0  0  0  0  0  0  0  0  0  0  0
    2.1702    0.9057   -0.3041 C   0  0  0  0  0  0  0  0  0  0  0  0
    2.2223    1.9922   -0.9366 O   0  0  0  0  0  0  0  0  0  0  0  0
    3.3258    0.3882    0.4422 C   0  0  0  0  0  0  0  0  0  0  0  0
    3.4488   -0.7643    1.1808 C   0  0  0  0  0  0  0  0  0  0  0  0
    4.7234   -0.8115    1.6892 C   0  0  0  0  0  0  0  0  0  0  0  0
    5.4013    0.3099    1.2711 C   0  0  0  0  0  0  0  0  0  0  0  0
    4.5180    1.0029    0.5221 N   0  0  0  0  0  0  0  0  0  0  0  0
    6.7169    0.5506    1.6220 C   0  0  0  0  0  0  0  0  0  0  0  0
    7.3568   -0.3813    2.4227 C   0  0  0  0  0  0  0  0  0  0  0  0
    6.6680   -1.5104    2.8413 C   0  0  0  0  0  0  0  0  0  0  0  0
    7.4904   -2.6763    3.8515 Cl  0  0  0  0  0  0  0  0  0  0  0  0
    5.3636   -1.7224    2.4774 C   0  0  0  0  0  0  0  0  0  0  0  0
   -1.3547    0.8289   -0.1188 C   0  0  0  0  0  0  0  0  0  0  0  0
   -0.7487    0.4747    0.9259 O   0  0  0  0  0  0  0  0  0  0  0  0
   -2.6736    1.2745   -0.3870 N   0  0  0  0  0  0  0  0  0  0  0  0
   -3.5158    1.7155   -1.5067 C   0  0  0  0  0  0  0  0  0  0  0  0
   -3.9873    3.1256   -1.1233 C   0  0  0  0  0  0  0  0  0  0  0  0
   -5.1057    2.8897   -0.1090 C   0  0  0  0  0  0  0  0  0  0  0  0
   -6.2888    2.7370   -0.8523 O   0  0  0  0  0  0  0  0  0  0  0  0
   -4.8653    1.5917    0.6182 C   0  0  0  0  0  0  0  0  0  0  0  0
   -3.4162    1.2937    0.8602 C   0  0  0  0  0  0  0  0  0  0  0  0
    0.0620    1.5991   -1.5118 H   0  0  0  0  0  0  0  0  0  0  0  0
   -1.2979    0.0827   -2.8482 H   0  0  0  0  0  0  0  0  0  0  0  0
    0.4133   -0.3281   -2.8077 H   0  0  0  0  0  0  0  0  0  0  0  0
    1.2499   -2.2914   -1.8123 H   0  0  0  0  0  0  0  0  0  0  0  0
    0.7749   -4.6298   -1.0147 H   0  0  0  0  0  0  0  0  0  0  0  0
   -3.3430   -3.6237   -0.7440 H   0  0  0  0  0  0  0  0  0  0  0  0
   -2.9331   -1.3563   -1.5100 H   0  0  0  0  0  0  0  0  0  0  0  0
    0.9069   -0.7398    0.2074 H   0  0  0  0  0  0  0  0  0  0  0  0
    2.6794   -1.4819    1.3220 H   0  0  0  0  0  0  0  0  0  0  0  0
    4.7741    1.9082    0.0748 H   0  0  0  0  0  0  0  0  0  0  0  0
    7.2289    1.4478    1.2760 H   0  0  0  0  0  0  0  0  0  0  0  0
    8.3946   -0.1849    2.6957 H   0  0  0  0  0  0  0  0  0  0  0  0
    4.8567   -2.6145    2.8223 H   0  0  0  0  0  0  0  0  0  0  0  0
   -2.9872    1.7319   -2.4645 H   0  0  0  0  0  0  0  0  0  0  0  0
   -4.4168    1.0860   -1.5642 H   0  0  0  0  0  0  0  0  0  0  0  0
   -4.3416    3.6624   -2.0076 H   0  0  0  0  0  0  0  0  0  0  0  0
   -3.1768    3.6416   -0.5853 H   0  0  0  0  0  0  0  0  0  0  0  0
   -5.2173    3.7584    0.5393 H   0  0  0  0  0  0  0  0  0  0  0  0
   -6.2182    3.3690   -1.6261 H   0  0  0  0  0  0  0  0  0  0  0  0
   -5.4056    0.7322    0.1868 H   0  0  0  0  0  0  0  0  0  0  0  0
   -5.3228    1.7366    1.6386 H   0  0  0  0  0  0  0  0  0  0  0  0
   -3.3897    0.2361    1.2553 H   0  0  0  0  0  0  0  0  0  0  0  0
   -2.9858    1.9401    1.6255 H   0  0  0  0  0  0  0  0  0  0  0  0
  1  2  1  0
  2  3  1  0
  3  4  2  0
  4  5  1  0
  5  6  2  0
  6  7  1  0
  6  8  1  0
  8  9  2  0
  1 10  1  0
 10 11  1  0
 11 12  2  0
 11 13  1  0
 13 14  2  0
 14 15  1  0
 15 16  2  0
 16 17  1  0
 16 18  1  0
 18 19  2  0
 19 20  1  0
 20 21  1  0
 20 22  2  0
  1 23  1  0
 23 24  2  0
 23 25  1  0
 25 26  1  0
 26 27  1  0
 27 28  1  0
 28 29  1  0
 28 30  1  0
 30 31  1  0
  9  3  1  0
 17 13  1  0
 31 25  1  0
 22 15  1  0
  1 32  1  6
  2 33  1  0
  2 34  1  0
  4 35  1  0
  5 36  1  0
  8 37  1  0
  9 38  1  0
 10 39  1  0
 14 40  1  0
 17 41  1  0
 18 42  1  0
 19 43  1  0
 22 44  1  0
 26 45  1  0
 26 46  1  0
 27 47  1  0
 27 48  1  0
 28 49  1  0
 29 50  1  0
 30 51  1  0
 30 52  1  0
 31 53  1  0
 31 54  1  0
M  END
$$$$
