@<TRIPOS>MOLECULE
*****
 35 38 0 0 0
SMALL
GASTEIGER

@<TRIPOS>ATOM
      1 C          -1.0357   -3.4393   -0.6796 C.3     1  UNL1        0.0133
      2 N           0.1983   -2.6660   -0.6881 N.ar    1  UNL1       -0.3327
      3 C           1.3940   -3.2129   -0.9051 C.ar    1  UNL1        0.0968
      4 N           2.2711   -2.2094   -0.8381 N.ar    1  UNL1       -0.2351
      5 C           1.6433   -1.0312   -0.5807 C.ar    1  UNL1        0.0967
      6 C           2.2641    0.2810   -0.4350 C.ar    1  UNL1        0.0040
      7 C           2.1110    1.2951   -1.3513 C.ar    1  UNL1       -0.0497
      8 C           2.7353    2.5312   -1.1386 C.ar    1  UNL1       -0.0244
      9 C           3.5024    2.7454   -0.0222 C.ar    1  UNL1        0.1417
     10 F           4.0881    3.9299    0.1611 F       1  UNL1       -0.2040
     11 C           3.6612    1.7412    0.8966 C.ar    1  UNL1        0.0767
     12 CL          4.6410    1.9807    2.3443 Cl      1  UNL1       -0.0806
     13 C           3.0435    0.5328    0.6768 C.ar    1  UNL1       -0.0313
     14 C           0.3159   -1.3302   -0.4858 C.ar    1  UNL1        0.0776
     15 C          -0.8198   -0.4340   -0.2205 C.ar    1  UNL1        0.0172
     16 C          -1.2320    0.4524   -1.1815 C.ar    1  UNL1       -0.0477
     17 C          -2.3001    1.3082   -0.9402 C.ar    1  UNL1       -0.0182
     18 C          -2.9365    1.2509    0.2779 C.ar    1  UNL1        0.1375
     19 N          -3.9927    1.9673    0.7620 N.ar    1  UNL1       -0.2361
     20 C          -4.2574    1.5502    2.0128 C.ar    1  UNL1        0.0464
     21 C          -3.3360    0.5610    2.2806 C.ar    1  UNL1        0.0293
     22 N          -2.5157    0.3682    1.2163 N.ar    1  UNL1       -0.3060
     23 C          -1.4832   -0.4583    0.9817 C.ar    1  UNL1        0.0204
     24 H          -1.0860   -3.9389   -1.6796 H       1  UNL1        0.0456
     25 H          -0.9847   -4.2604    0.0771 H       1  UNL1        0.0456
     26 H          -1.8889   -2.7697   -0.5375 H       1  UNL1        0.0456
     27 H           1.5994   -4.2545   -1.0950 H       1  UNL1        0.1029
     28 H           1.5152    1.1473   -2.2400 H       1  UNL1        0.0625
     29 H           2.5804    3.2979   -1.8949 H       1  UNL1        0.0647
     30 H           3.1858   -0.2473    1.4219 H       1  UNL1        0.0640
     31 H          -0.7650    0.5233   -2.1452 H       1  UNL1        0.0626
     32 H          -2.6489    2.0165   -1.6737 H       1  UNL1        0.0654
     33 H          -5.0386    1.9131    2.6862 H       1  UNL1        0.0845
     34 H          -3.2660    0.0081    3.2056 H       1  UNL1        0.0829
     35 H          -1.1626   -1.1496    1.7319 H       1  UNL1        0.0820
@<TRIPOS>BOND
     1     1     2    1
     2     2     3   ar
     3     3     4   ar
     4     4     5   ar
     5     5     6    1
     6     6     7   ar
     7     7     8   ar
     8     8     9   ar
     9     9    10    1
    10     9    11   ar
    11    11    12    1
    12    11    13   ar
    13     5    14   ar
    14    14    15    1
    15    15    16   ar
    16    16    17   ar
    17    17    18   ar
    18    18    19   ar
    19    19    20   ar
    20    20    21   ar
    21    21    22   ar
    22    22    23   ar
    23    14     2   ar
    24    23    15   ar
    25    13     6   ar
    26    22    18   ar
    27     1    24    1
    28     1    25    1
    29     1    26    1
    30     3    27    1
    31     7    28    1
    32     8    29    1
    33    13    30    1
    34    16    31    1
    35    17    32    1
    36    20    33    1
    37    21    34    1
    38    23    35    1
