@<TRIPOS>MOLECULE
*****
 83 84 0 0 0
SMALL
GASTEIGER

@<TRIPOS>ATOM
      1 C          -0.1834   -0.8448    2.4767 C.3     1  UNL1       -0.0408
      2 C           0.0563   -1.8844    1.4148 C.3     1  UNL1        0.0655
      3 C           1.1329   -2.8243    1.9324 C.3     1  UNL1       -0.0408
      4 S          -1.4927   -2.8158    1.1787 S.3     1  UNL1       -0.1078
      5 C          -2.7616   -1.7572    0.5002 C.ar    1  UNL1        0.0100
      6 C          -2.9422   -1.5880   -0.8753 C.ar    1  UNL1       -0.0411
      7 C          -3.9497   -0.7538   -1.2805 C.ar    1  UNL1        0.0007
      8 C          -4.7697   -0.0935   -0.3928 C.ar    1  UNL1        0.1242
      9 O          -5.7585    0.7262   -0.8633 O.3     1  UNL1       -0.5062
     10 C          -4.6073   -0.2479    0.9804 C.ar    1  UNL1        0.0007
     11 C          -3.5782   -1.0996    1.3951 C.ar    1  UNL1       -0.0411
     12 C          -5.5139    0.4790    1.9045 C.3     1  UNL1       -0.0092
     13 C          -5.1207    0.1360    3.3377 C.3     1  UNL1       -0.0559
     14 C          -5.3765    1.9915    1.7837 C.3     1  UNL1       -0.0559
     15 C          -6.9453    0.0474    1.6540 C.3     1  UNL1       -0.0559
     16 C          -4.1783   -0.5385   -2.7470 C.3     1  UNL1       -0.0092
     17 C          -5.5437   -0.9462   -3.1919 C.3     1  UNL1       -0.0559
     18 C          -4.0062    0.9507   -2.9645 C.3     1  UNL1       -0.0559
     19 C          -3.1096   -1.2398   -3.5606 C.3     1  UNL1       -0.0559
     20 S           0.5359   -1.2059   -0.1772 S.3     1  UNL1       -0.1078
     21 C           2.1327   -0.4126   -0.1568 C.ar    1  UNL1        0.0100
     22 C           3.2442   -1.1692   -0.4413 C.ar    1  UNL1       -0.0411
     23 C           4.5549   -0.6906   -0.4664 C.ar    1  UNL1        0.0007
     24 C           4.6723    0.6527   -0.1741 C.ar    1  UNL1        0.1242
     25 O           5.9669    1.1648   -0.1902 O.3     1  UNL1       -0.5062
     26 C           3.6051    1.4707    0.1199 C.ar    1  UNL1        0.0007
     27 C           2.3366    0.9340    0.1275 C.ar    1  UNL1       -0.0411
     28 C           3.8418    2.8844    0.4151 C.3     1  UNL1       -0.0092
     29 C           4.7310    3.1332    1.6004 C.3     1  UNL1       -0.0559
     30 C           2.5247    3.5982    0.6960 C.3     1  UNL1       -0.0559
     31 C           4.4290    3.5916   -0.8083 C.3     1  UNL1       -0.0559
     32 C           5.7258   -1.5327   -0.7800 C.3     1  UNL1       -0.0092
     33 C           6.6781   -1.5173    0.4095 C.3     1  UNL1       -0.0559
     34 C           5.2282   -2.9402   -0.9835 C.3     1  UNL1       -0.0559
     35 C           6.4881   -1.0868   -1.9751 C.3     1  UNL1       -0.0559
     36 H          -0.5043    0.1357    2.0455 H       1  UNL1        0.0251
     37 H           0.6538   -0.7273    3.1928 H       1  UNL1        0.0251
     38 H          -1.0566   -1.1705    3.1107 H       1  UNL1        0.0251
     39 H           1.2167   -3.6786    1.2514 H       1  UNL1        0.0251
     40 H           2.0573   -2.2772    2.1284 H       1  UNL1        0.0251
     41 H           0.7675   -3.2265    2.9146 H       1  UNL1        0.0251
     42 H          -2.2847   -2.1181   -1.5438 H       1  UNL1        0.0633
     43 H          -6.7089    0.4285   -1.0324 H       1  UNL1        0.2922
     44 H          -3.4374   -1.2319    2.4608 H       1  UNL1        0.0633
     45 H          -5.7912    0.6904    4.0415 H       1  UNL1        0.0238
     46 H          -5.1426   -0.9358    3.5357 H       1  UNL1        0.0238
     47 H          -4.0853    0.4946    3.5159 H       1  UNL1        0.0238
     48 H          -4.3739    2.2084    1.3382 H       1  UNL1        0.0238
     49 H          -6.1992    2.3741    1.1444 H       1  UNL1        0.0238
     50 H          -5.3702    2.4793    2.7823 H       1  UNL1        0.0238
     51 H          -7.5510    0.8376    1.1784 H       1  UNL1        0.0238
     52 H          -6.9539   -0.8520    0.9835 H       1  UNL1        0.0238
     53 H          -7.3825   -0.3016    2.6095 H       1  UNL1        0.0238
     54 H          -6.2133   -0.0572   -3.3281 H       1  UNL1        0.0238
     55 H          -5.4267   -1.3383   -4.2432 H       1  UNL1        0.0238
     56 H          -6.0089   -1.7576   -2.6031 H       1  UNL1        0.0238
     57 H          -5.0068    1.4143   -3.1978 H       1  UNL1        0.0238
     58 H          -3.3833    1.1385   -3.8575 H       1  UNL1        0.0238
     59 H          -3.5652    1.4739   -2.0972 H       1  UNL1        0.0238
     60 H          -2.1041   -0.9436   -3.2098 H       1  UNL1        0.0238
     61 H          -3.3076   -2.3114   -3.5660 H       1  UNL1        0.0238
     62 H          -3.2030   -0.8539   -4.5940 H       1  UNL1        0.0238
     63 H           3.1134   -2.2250   -0.6670 H       1  UNL1        0.0633
     64 H           6.3803    1.3919   -1.0880 H       1  UNL1        0.2922
     65 H           1.4567    1.5205    0.3507 H       1  UNL1        0.0633
     66 H           5.7744    2.8244    1.4447 H       1  UNL1        0.0238
     67 H           4.7628    4.2554    1.7266 H       1  UNL1        0.0238
     68 H           4.2770    2.7647    2.5292 H       1  UNL1        0.0238
     69 H           1.8526    3.4464   -0.1867 H       1  UNL1        0.0238
     70 H           2.6710    4.6551    0.9308 H       1  UNL1        0.0238
     71 H           2.0475    3.0678    1.5424 H       1  UNL1        0.0238
     72 H           4.0673    4.6500   -0.8735 H       1  UNL1        0.0238
     73 H           4.0283    3.1064   -1.7419 H       1  UNL1        0.0238
     74 H           5.5367    3.6249   -0.7872 H       1  UNL1        0.0238
     75 H           7.7276   -1.2750    0.0932 H       1  UNL1        0.0238
     76 H           6.7259   -2.5213    0.8697 H       1  UNL1        0.0238
     77 H           6.3861   -0.7369    1.1163 H       1  UNL1        0.0238
     78 H           4.7223   -3.3292   -0.0839 H       1  UNL1        0.0238
     79 H           4.5716   -3.0047   -1.8713 H       1  UNL1        0.0238
     80 H           6.0904   -3.6407   -1.1752 H       1  UNL1        0.0238
     81 H           5.9157   -0.4150   -2.6649 H       1  UNL1        0.0238
     82 H           7.4869   -0.6506   -1.7259 H       1  UNL1        0.0238
     83 H           6.7239   -1.9744   -2.5969 H       1  UNL1        0.0238
@<TRIPOS>BOND
     1     1     2    1
     2     2     3    1
     3     2     4    1
     4     4     5    1
     5     5     6   ar
     6     6     7   ar
     7     7     8   ar
     8     8     9    1
     9     8    10   ar
    10    10    11   ar
    11    10    12    1
    12    12    13    1
    13    12    14    1
    14    12    15    1
    15     7    16    1
    16    16    17    1
    17    16    18    1
    18    16    19    1
    19     2    20    1
    20    20    21    1
    21    21    22   ar
    22    22    23   ar
    23    23    24   ar
    24    24    25    1
    25    24    26   ar
    26    26    27   ar
    27    26    28    1
    28    28    29    1
    29    28    30    1
    30    28    31    1
    31    23    32    1
    32    32    33    1
    33    32    34    1
    34    32    35    1
    35    11     5   ar
    36    27    21   ar
    37     1    36    1
    38     1    37    1
    39     1    38    1
    40     3    39    1
    41     3    40    1
    42     3    41    1
    43     6    42    1
    44     9    43    1
    45    11    44    1
    46    13    45    1
    47    13    46    1
    48    13    47    1
    49    14    48    1
    50    14    49    1
    51    14    50    1
    52    15    51    1
    53    15    52    1
    54    15    53    1
    55    17    54    1
    56    17    55    1
    57    17    56    1
    58    18    57    1
    59    18    58    1
    60    18    59    1
    61    19    60    1
    62    19    61    1
    63    19    62    1
    64    22    63    1
    65    25    64    1
    66    27    65    1
    67    29    66    1
    68    29    67    1
    69    29    68    1
    70    30    69    1
    71    30    70    1
    72    30    71    1
    73    31    72    1
    74    31    73    1
    75    31    74    1
    76    33    75    1
    77    33    76    1
    78    33    77    1
    79    34    78    1
    80    34    79    1
    81    34    80    1
    82    35    81    1
    83    35    82    1
    84    35    83    1
