@<TRIPOS>MOLECULE
*****
 41 44 0 0 0
SMALL
GASTEIGER

@<TRIPOS>ATOM
      1 N           3.2579   -4.0779   -1.9527 N.1     1  UNL1       -0.1907
      2 C           2.2642   -3.6285   -1.5501 C.1     1  UNL1        0.1045
      3 C           1.0391   -3.0528   -1.0627 C.ar    1  UNL1        0.1157
      4 C           0.8574   -1.7881   -0.5002 C.ar    1  UNL1        0.1798
      5 N           1.7850   -0.8437   -0.2955 N.ar    1  UNL1       -0.1935
      6 C           1.4534    0.3288    0.2590 C.ar    1  UNL1        0.2244
      7 N           2.3388    1.3861    0.5192 N.pl3   1  UNL1       -0.2835
      8 C           3.7271    1.4509    0.2650 C.ar    1  UNL1        0.0336
      9 C           4.4957    0.4604   -0.3023 C.ar    1  UNL1       -0.0405
     10 C           5.8492    0.5364   -0.5448 C.ar    1  UNL1       -0.0600
     11 C           6.5155    1.6924   -0.1992 C.ar    1  UNL1       -0.0616
     12 C           5.7997    2.7211    0.3733 C.ar    1  UNL1       -0.0600
     13 C           4.4496    2.5785    0.5874 C.ar    1  UNL1       -0.0405
     14 N           0.1573    0.4717    0.5810 N.ar    1  UNL1       -0.1808
     15 C          -0.7733   -0.4700    0.3780 C.ar    1  UNL1        0.2212
     16 N          -2.1350   -0.2330    0.7524 N.pl3   1  UNL1       -0.3129
     17 C          -3.1520   -1.2403    0.5396 C.3     1  UNL1        0.0172
     18 C          -4.4830   -0.7378    1.0181 C.3     1  UNL1        0.0046
     19 C          -4.9468    0.4816    0.3392 C.ar    1  UNL1        0.0368
     20 C          -4.2611    1.1447   -0.6540 C.ar    1  UNL1        0.0484
     21 N          -5.0046    2.2089   -1.0211 N.ar    1  UNL1       -0.2440
     22 C          -6.1027    2.1727   -0.2613 C.ar    1  UNL1        0.0935
     23 N          -6.0946    1.1197    0.5862 N.ar    1  UNL1       -0.3481
     24 N          -0.4395   -1.6458   -0.1784 N.ar    1  UNL1       -0.1821
     25 N          -1.0948   -2.7500   -0.5046 N.ar    1  UNL1       -0.1692
     26 C          -0.2344   -3.6335   -1.0462 C.ar    1  UNL1        0.0695
     27 H           1.9306    2.2610    0.9655 H       1  UNL1        0.1550
     28 H           4.0478   -0.4583   -0.5935 H       1  UNL1        0.0636
     29 H           6.4050   -0.2718   -0.9933 H       1  UNL1        0.0618
     30 H           7.5773    1.7860   -0.3753 H       1  UNL1        0.0618
     31 H           6.3329    3.6230    0.6402 H       1  UNL1        0.0618
     32 H           3.9739    3.4373    1.0407 H       1  UNL1        0.0636
     33 H          -2.3922    0.6877    1.1873 H       1  UNL1        0.1489
     34 H          -2.8967   -2.1312    1.1247 H       1  UNL1        0.0466
     35 H          -3.1934   -1.5338   -0.5448 H       1  UNL1        0.0466
     36 H          -5.2136   -1.5569    0.9004 H       1  UNL1        0.0343
     37 H          -4.3952   -0.5275    2.1007 H       1  UNL1        0.0343
     38 H          -3.2906    0.8988   -1.1005 H       1  UNL1        0.0848
     39 H          -6.8892    2.9111   -0.3359 H       1  UNL1        0.1027
     40 H          -6.8406    0.8671    1.2871 H       1  UNL1        0.1665
     41 H          -0.4239   -4.6450   -1.4282 H       1  UNL1        0.0862
@<TRIPOS>BOND
     1     1     2    3
     2     2     3    1
     3     3     4   ar
     4     4     5   ar
     5     5     6   ar
     6     6     7    1
     7     7     8    1
     8     8     9   ar
     9     9    10   ar
    10    10    11   ar
    11    11    12   ar
    12    12    13   ar
    13     6    14   ar
    14    14    15   ar
    15    15    16    1
    16    16    17    1
    17    17    18    1
    18    18    19    1
    19    19    20   ar
    20    20    21   ar
    21    21    22   ar
    22    22    23   ar
    23    15    24   ar
    24    24    25   ar
    25    25    26   ar
    26    26     3   ar
    27    24     4   ar
    28    13     8   ar
    29    23    19   ar
    30     7    27    1
    31     9    28    1
    32    10    29    1
    33    11    30    1
    34    12    31    1
    35    13    32    1
    36    16    33    1
    37    17    34    1
    38    17    35    1
    39    18    36    1
    40    18    37    1
    41    20    38    1
    42    22    39    1
    43    23    40    1
    44    26    41    1
