
     RDKit          3D

 57 61  0  0  0  0  0  0  0  0999 V2000
   -3.5812   -1.7573    2.0622 C   0  0  0  0  0  0  0  0  0  0  0  0
   -3.4911   -0.9912    0.7023 C   0  0  1  0  0  0  0  0  0  0  0  0
   -2.2791   -0.5283    0.5744 O   0  0  0  0  0  0  0  0  0  0  0  0
   -1.5198    0.5448    0.4334 C   0  0  0  0  0  0  0  0  0  0  0  0
   -0.1014    0.3826    0.3406 C   0  0  0  0  0  0  0  0  0  0  0  0
    0.7249    1.4305    0.1966 C   0  0  0  0  0  0  0  0  0  0  0  0
    2.1868    1.2752    0.1004 C   0  0  0  0  0  0  0  0  0  0  0  0
    3.1281    2.1876    0.5415 C   0  0  0  0  0  0  0  0  0  0  0  0
    4.3370    1.6695    0.2687 N   0  0  0  0  0  0  0  0  0  0  0  0
    4.2350    0.4896   -0.3161 N   0  0  0  0  0  0  0  0  0  0  0  0
    5.3300   -0.3843   -0.7644 C   0  0  0  0  0  0  0  0  0  0  0  0
    5.0266   -1.7664   -0.3304 C   0  0  0  0  0  0  0  0  0  0  0  0
    6.1604   -2.5599    0.1961 C   0  0  0  0  0  0  0  0  0  0  0  0
    7.1850   -1.8175    0.7535 O   0  0  0  0  0  0  0  0  0  0  0  0
    7.6765   -0.8755   -0.1324 C   0  0  0  0  0  0  0  0  0  0  0  0
    6.6013    0.1917   -0.2563 C   0  0  0  0  0  0  0  0  0  0  0  0
    2.9094    0.2352   -0.4254 C   0  0  0  0  0  0  0  0  0  0  0  0
    0.2062    2.6839    0.1363 C   0  0  0  0  0  0  0  0  0  0  0  0
   -1.1545    2.9382    0.2174 C   0  0  0  0  0  0  0  0  0  0  0  0
   -1.8831    4.0657    0.1826 N   0  0  0  0  0  0  0  0  0  0  0  0
   -3.1416    3.7282    0.3026 N   0  0  0  0  0  0  0  0  0  0  0  0
   -4.2561    4.6689    0.3111 C   0  0  0  0  0  0  0  0  0  0  0  0
   -3.2851    2.3868    0.4192 C   0  0  0  0  0  0  0  0  0  0  0  0
   -2.0048    1.8631    0.3655 C   0  0  0  0  0  0  0  0  0  0  0  0
   -3.9030   -2.0384   -0.3649 C   0  0  1  0  0  0  0  0  0  0  0  0
   -5.3018   -2.4552   -0.0047 C   0  0  0  0  0  0  0  0  0  0  0  0
   -6.0626   -2.4505   -1.2384 N   0  0  0  0  0  0  0  0  0  0  0  0
   -5.2424   -1.9973   -2.3013 C   0  0  0  0  0  0  0  0  0  0  0  0
   -5.4941   -2.1447   -3.5199 O   0  0  0  0  0  0  0  0  0  0  0  0
   -4.0471   -1.3254   -1.6794 C   0  0  0  0  0  0  0  0  0  0  0  0
   -3.1658   -2.7649    1.9545 H   0  0  0  0  0  0  0  0  0  0  0  0
   -4.6368   -1.8187    2.3870 H   0  0  0  0  0  0  0  0  0  0  0  0
   -2.9989   -1.2185    2.8301 H   0  0  0  0  0  0  0  0  0  0  0  0
   -4.3771   -0.3238    0.7271 H   0  0  0  0  0  0  0  0  0  0  0  0
    0.2601   -0.6322    0.3938 H   0  0  0  0  0  0  0  0  0  0  0  0
    2.8837    3.1386    1.0169 H   0  0  0  0  0  0  0  0  0  0  0  0
    5.3282   -0.2867   -1.8802 H   0  0  0  0  0  0  0  0  0  0  0  0
    4.6041   -2.3234   -1.2177 H   0  0  0  0  0  0  0  0  0  0  0  0
    4.1893   -1.7836    0.4192 H   0  0  0  0  0  0  0  0  0  0  0  0
    5.7987   -3.2515    1.0126 H   0  0  0  0  0  0  0  0  0  0  0  0
    6.6149   -3.2337   -0.5626 H   0  0  0  0  0  0  0  0  0  0  0  0
    7.8731   -1.2949   -1.1457 H   0  0  0  0  0  0  0  0  0  0  0  0
    8.5890   -0.4216    0.3110 H   0  0  0  0  0  0  0  0  0  0  0  0
    6.9646    1.0175   -0.8973 H   0  0  0  0  0  0  0  0  0  0  0  0
    6.4384    0.5770    0.7879 H   0  0  0  0  0  0  0  0  0  0  0  0
    2.4941   -0.6671   -0.8682 H   0  0  0  0  0  0  0  0  0  0  0  0
    0.8593    3.5559    0.0190 H   0  0  0  0  0  0  0  0  0  0  0  0
   -3.9481    5.5768    0.9002 H   0  0  0  0  0  0  0  0  0  0  0  0
   -5.1110    4.2078    0.8227 H   0  0  0  0  0  0  0  0  0  0  0  0
   -4.4976    5.0336   -0.7037 H   0  0  0  0  0  0  0  0  0  0  0  0
   -4.2011    1.8374    0.5304 H   0  0  0  0  0  0  0  0  0  0  0  0
   -3.2280   -2.8927   -0.3714 H   0  0  0  0  0  0  0  0  0  0  0  0
   -5.3575   -3.4578    0.4643 H   0  0  0  0  0  0  0  0  0  0  0  0
   -5.8018   -1.7585    0.6983 H   0  0  0  0  0  0  0  0  0  0  0  0
   -7.0543   -2.7438   -1.2833 H   0  0  0  0  0  0  0  0  0  0  0  0
   -3.1495   -1.4517   -2.3352 H   0  0  0  0  0  0  0  0  0  0  0  0
   -4.3284   -0.2694   -1.5365 H   0  0  0  0  0  0  0  0  0  0  0  0
  1  2  1  0
  2  3  1  0
  3  4  1  0
  4  5  2  0
  5  6  1  0
  6  7  1  0
  7  8  1  0
  8  9  2  0
  9 10  1  0
 10 11  1  0
 11 12  1  0
 12 13  1  0
 13 14  1  0
 14 15  1  0
 15 16  1  0
 10 17  1  0
  6 18  2  0
 18 19  1  0
 19 20  2  0
 20 21  1  0
 21 22  1  0
 21 23  1  0
 23 24  2  0
  2 25  1  0
 25 26  1  0
 26 27  1  0
 27 28  1  0
 28 29  2  0
 28 30  1  0
 24  4  1  0
 30 25  1  0
 17  7  2  0
 24 19  1  0
 16 11  1  0
  1 31  1  0
  1 32  1  0
  1 33  1  0
  2 34  1  1
  5 35  1  0
  8 36  1  0
 11 37  1  0
 12 38  1  0
 12 39  1  0
 13 40  1  0
 13 41  1  0
 15 42  1  0
 15 43  1  0
 16 44  1  0
 16 45  1  0
 17 46  1  0
 18 47  1  0
 22 48  1  0
 22 49  1  0
 22 50  1  0
 23 51  1  0
 25 52  1  6
 26 53  1  0
 26 54  1  0
 27 55  1  0
 30 56  1  0
 30 57  1  0
M  END
$$$$
