@<TRIPOS>MOLECULE
*****
 57 61 0 0 0
SMALL
GASTEIGER

@<TRIPOS>ATOM
      1 C          -3.5812   -1.7573    2.0622 C.3     1  UNL1       -0.0275
      2 C          -3.4911   -0.9912    0.7023 C.3     1  UNL1        0.1021
      3 O          -2.2791   -0.5283    0.5744 O.3     1  UNL1       -0.4880
      4 C          -1.5198    0.5448    0.4334 C.ar    1  UNL1        0.1321
      5 C          -0.1014    0.3826    0.3406 C.ar    1  UNL1       -0.0113
      6 C           0.7249    1.4305    0.1966 C.ar    1  UNL1       -0.0094
      7 C           2.1868    1.2752    0.1004 C.ar    1  UNL1        0.0198
      8 C           3.1281    2.1876    0.5415 C.ar    1  UNL1        0.0571
      9 N           4.3370    1.6695    0.2687 N.ar    1  UNL1       -0.1788
     10 N           4.2350    0.4896   -0.3161 N.ar    1  UNL1       -0.2677
     11 C           5.3300   -0.3843   -0.7644 C.3     1  UNL1        0.0568
     12 C           5.0266   -1.7664   -0.3304 C.3     1  UNL1       -0.0069
     13 C           6.1604   -2.5599    0.1961 C.3     1  UNL1        0.0496
     14 O           7.1850   -1.8175    0.7535 O.3     1  UNL1       -0.3796
     15 C           7.6765   -0.8755   -0.1324 C.3     1  UNL1        0.0496
     16 C           6.6013    0.1917   -0.2563 C.3     1  UNL1       -0.0069
     17 C           2.9094    0.2352   -0.4254 C.ar    1  UNL1        0.0335
     18 C           0.2062    2.6839    0.1363 C.ar    1  UNL1       -0.0259
     19 C          -1.1545    2.9382    0.2174 C.ar    1  UNL1        0.0968
     20 N          -1.8831    4.0657    0.1826 N.ar    1  UNL1       -0.1713
     21 N          -3.1416    3.7282    0.3026 N.ar    1  UNL1       -0.2732
     22 C          -4.2561    4.6689    0.3111 C.3     1  UNL1        0.0302
     23 C          -3.2851    2.3868    0.4192 C.ar    1  UNL1        0.0364
     24 C          -2.0048    1.8631    0.3655 C.ar    1  UNL1        0.0614
     25 C          -3.9030   -2.0384   -0.3649 C.3     1  UNL1        0.0195
     26 C          -5.3018   -2.4552   -0.0047 C.3     1  UNL1        0.0182
     27 N          -6.0626   -2.4505   -1.2384 N.am    1  UNL1       -0.3149
     28 C          -5.2424   -1.9973   -2.3013 C.2     1  UNL1        0.2135
     29 O          -5.4941   -2.1447   -3.5199 O.2     1  UNL1       -0.2758
     30 C          -4.0471   -1.3254   -1.6794 C.3     1  UNL1        0.0315
     31 H          -3.1658   -2.7649    1.9545 H       1  UNL1        0.0265
     32 H          -4.6368   -1.8187    2.3870 H       1  UNL1        0.0265
     33 H          -2.9989   -1.2185    2.8301 H       1  UNL1        0.0265
     34 H          -4.3771   -0.3238    0.7271 H       1  UNL1        0.0733
     35 H           0.2601   -0.6322    0.3938 H       1  UNL1        0.0660
     36 H           2.8837    3.1386    1.0169 H       1  UNL1        0.0854
     37 H           5.3282   -0.2867   -1.8802 H       1  UNL1        0.0546
     38 H           4.6041   -2.3234   -1.2177 H       1  UNL1        0.0308
     39 H           4.1893   -1.7836    0.4192 H       1  UNL1        0.0308
     40 H           5.7987   -3.2515    1.0126 H       1  UNL1        0.0560
     41 H           6.6149   -3.2337   -0.5626 H       1  UNL1        0.0560
     42 H           7.8731   -1.2949   -1.1457 H       1  UNL1        0.0560
     43 H           8.5890   -0.4216    0.3110 H       1  UNL1        0.0560
     44 H           6.9646    1.0175   -0.8973 H       1  UNL1        0.0308
     45 H           6.4384    0.5770    0.7879 H       1  UNL1        0.0308
     46 H           2.4941   -0.6671   -0.8682 H       1  UNL1        0.0832
     47 H           0.8593    3.5559    0.0190 H       1  UNL1        0.0646
     48 H          -3.9481    5.5768    0.9002 H       1  UNL1        0.0473
     49 H          -5.1110    4.2078    0.8227 H       1  UNL1        0.0473
     50 H          -4.4976    5.0336   -0.7037 H       1  UNL1        0.0473
     51 H          -4.2011    1.8374    0.5304 H       1  UNL1        0.0833
     52 H          -3.2280   -2.8927   -0.3714 H       1  UNL1        0.0356
     53 H          -5.3575   -3.4578    0.4643 H       1  UNL1        0.0466
     54 H          -5.8018   -1.7585    0.6983 H       1  UNL1        0.0466
     55 H          -7.0543   -2.7438   -1.2833 H       1  UNL1        0.1487
     56 H          -3.1495   -1.4517   -2.3352 H       1  UNL1        0.0363
     57 H          -4.3284   -0.2694   -1.5365 H       1  UNL1        0.0363
@<TRIPOS>BOND
     1     1     2    1
     2     2     3    1
     3     3     4    1
     4     4     5   ar
     5     5     6   ar
     6     6     7    1
     7     7     8   ar
     8     8     9   ar
     9     9    10   ar
    10    10    11    1
    11    11    12    1
    12    12    13    1
    13    13    14    1
    14    14    15    1
    15    15    16    1
    16    10    17   ar
    17     6    18   ar
    18    18    19   ar
    19    19    20   ar
    20    20    21   ar
    21    21    22    1
    22    21    23   ar
    23    23    24   ar
    24     2    25    1
    25    25    26    1
    26    26    27    1
    27    27    28   am
    28    28    29    2
    29    28    30    1
    30    24     4   ar
    31    30    25    1
    32    17     7   ar
    33    24    19   ar
    34    16    11    1
    35     1    31    1
    36     1    32    1
    37     1    33    1
    38     2    34    1
    39     5    35    1
    40     8    36    1
    41    11    37    1
    42    12    38    1
    43    12    39    1
    44    13    40    1
    45    13    41    1
    46    15    42    1
    47    15    43    1
    48    16    44    1
    49    16    45    1
    50    17    46    1
    51    18    47    1
    52    22    48    1
    53    22    49    1
    54    22    50    1
    55    23    51    1
    56    25    52    1
    57    26    53    1
    58    26    54    1
    59    27    55    1
    60    30    56    1
    61    30    57    1
