@<TRIPOS>MOLECULE
*****
 43 46 0 0 0
SMALL
GASTEIGER

@<TRIPOS>ATOM
      1 O          -2.7600   -2.9994    0.6635 O.2     1  UNL1       -0.2697
      2 C          -3.3587   -1.9228    0.5234 C.2     1  UNL1        0.2523
      3 N          -4.7007   -1.6985    0.9247 N.am    1  UNL1       -0.2483
      4 C          -5.3393   -0.4444    0.7408 C.2     1  UNL1        0.2511
      5 O          -6.5380   -0.2636    1.1056 O.2     1  UNL1       -0.2698
      6 C          -4.6402    0.6724    0.1287 C.ar    1  UNL1        0.0451
      7 C          -5.2780    1.8651   -0.0355 C.ar    1  UNL1       -0.0481
      8 C          -4.5986    2.9137   -0.6183 C.ar    1  UNL1       -0.0479
      9 C          -3.2977    2.7816   -1.0351 C.ar    1  UNL1        0.0140
     10 I          -2.2684    4.3972   -1.9269 I       1  UNL1       -0.0438
     11 C          -2.6498    1.5526   -0.8627 C.ar    1  UNL1       -0.0400
     12 C          -3.3083    0.4925   -0.2835 C.ar    1  UNL1        0.0014
     13 C          -2.6473   -0.7927   -0.0973 C.2     1  UNL1        0.0584
     14 C          -1.4024   -0.9405   -0.4893 C.2     1  UNL1        0.0025
     15 N          -0.7985   -2.2406   -0.2780 N.pl3   1  UNL1       -0.3449
     16 C           0.1216   -2.4768    0.7959 C.3     1  UNL1        0.0340
     17 C           1.2796   -1.5677    0.6167 C.ar    1  UNL1       -0.0269
     18 C           1.2578   -0.3161    1.1922 C.ar    1  UNL1       -0.0563
     19 C           2.3563    0.5014    1.0019 C.ar    1  UNL1       -0.0501
     20 C           3.4531    0.1109    0.2678 C.ar    1  UNL1        0.0266
     21 C           4.6078    0.9808    0.0726 C.ar    1  UNL1        0.0233
     22 C           5.9525    0.6851    0.1674 C.ar    1  UNL1       -0.0161
     23 C           6.6645    1.8353   -0.1041 C.ar    1  UNL1        0.0923
     24 O           5.7965    2.7736   -0.3493 O.2     1  UNL1       -0.4704
     25 C           4.5655    2.3295   -0.2602 C.ar    1  UNL1        0.0995
     26 C           3.4391   -1.1456   -0.2915 C.ar    1  UNL1        0.1249
     27 O           4.5049   -1.5937   -1.0358 O.3     1  UNL1       -0.5061
     28 C           2.3579   -2.0022   -0.1277 C.ar    1  UNL1       -0.0149
     29 H          -5.2454   -2.4698    1.3693 H       1  UNL1        0.1581
     30 H          -6.3061    1.9559    0.2984 H       1  UNL1        0.0626
     31 H          -5.0976    3.8612   -0.7514 H       1  UNL1        0.0628
     32 H          -1.6279    1.4583   -1.1932 H       1  UNL1        0.0634
     33 H          -0.7615   -0.2355   -0.9462 H       1  UNL1        0.0786
     34 H          -1.0570   -3.0045   -0.9377 H       1  UNL1        0.1459
     35 H           0.4318   -3.5392    0.7811 H       1  UNL1        0.0511
     36 H          -0.3458   -2.3079    1.7906 H       1  UNL1        0.0511
     37 H           0.3979    0.0088    1.7761 H       1  UNL1        0.0621
     38 H           2.3813    1.4968    1.4380 H       1  UNL1        0.0625
     39 H           6.3447   -0.2910    0.4141 H       1  UNL1        0.0655
     40 H           7.7480    1.9596   -0.1170 H       1  UNL1        0.1029
     41 H           3.6403    2.8766   -0.4100 H       1  UNL1        0.1035
     42 H           4.3629   -2.2704   -1.7667 H       1  UNL1        0.2922
     43 H           2.3633   -2.9859   -0.5740 H       1  UNL1        0.0657
@<TRIPOS>BOND
     1     1     2    2
     2     2     3   am
     3     3     4   am
     4     4     5    2
     5     4     6    1
     6     6     7   ar
     7     7     8   ar
     8     8     9   ar
     9     9    10    1
    10     9    11   ar
    11    11    12   ar
    12    12    13    1
    13    13    14    2
    14    14    15    1
    15    15    16    1
    16    16    17    1
    17    17    18   ar
    18    18    19   ar
    19    19    20   ar
    20    20    21    1
    21    21    22   ar
    22    22    23   ar
    23    23    24   ar
    24    24    25   ar
    25    20    26   ar
    26    26    27    1
    27    26    28   ar
    28    13     2    1
    29    28    17   ar
    30    12     6   ar
    31    25    21   ar
    32     3    29    1
    33     7    30    1
    34     8    31    1
    35    11    32    1
    36    14    33    1
    37    15    34    1
    38    16    35    1
    39    16    36    1
    40    18    37    1
    41    19    38    1
    42    22    39    1
    43    23    40    1
    44    25    41    1
    45    27    42    1
    46    28    43    1
