
     RDKit          3D

 43 46  0  0  0  0  0  0  0  0999 V2000
   -2.7600   -2.9994    0.6635 O   0  0  0  0  0  0  0  0  0  0  0  0
   -3.3587   -1.9228    0.5234 C   0  0  0  0  0  0  0  0  0  0  0  0
   -4.7007   -1.6985    0.9247 N   0  0  0  0  0  0  0  0  0  0  0  0
   -5.3393   -0.4444    0.7408 C   0  0  0  0  0  0  0  0  0  0  0  0
   -6.5380   -0.2636    1.1056 O   0  0  0  0  0  0  0  0  0  0  0  0
   -4.6402    0.6724    0.1287 C   0  0  0  0  0  0  0  0  0  0  0  0
   -5.2780    1.8651   -0.0355 C   0  0  0  0  0  0  0  0  0  0  0  0
   -4.5986    2.9137   -0.6183 C   0  0  0  0  0  0  0  0  0  0  0  0
   -3.2977    2.7816   -1.0351 C   0  0  0  0  0  0  0  0  0  0  0  0
   -2.2684    4.3972   -1.9269 I   0  0  0  0  0  0  0  0  0  0  0  0
   -2.6498    1.5526   -0.8627 C   0  0  0  0  0  0  0  0  0  0  0  0
   -3.3083    0.4925   -0.2835 C   0  0  0  0  0  0  0  0  0  0  0  0
   -2.6473   -0.7927   -0.0973 C   0  0  0  0  0  0  0  0  0  0  0  0
   -1.4024   -0.9405   -0.4893 C   0  0  0  0  0  0  0  0  0  0  0  0
   -0.7985   -2.2406   -0.2780 N   0  0  0  0  0  0  0  0  0  0  0  0
    0.1216   -2.4768    0.7959 C   0  0  0  0  0  0  0  0  0  0  0  0
    1.2796   -1.5677    0.6167 C   0  0  0  0  0  0  0  0  0  0  0  0
    1.2578   -0.3161    1.1922 C   0  0  0  0  0  0  0  0  0  0  0  0
    2.3563    0.5014    1.0019 C   0  0  0  0  0  0  0  0  0  0  0  0
    3.4531    0.1109    0.2678 C   0  0  0  0  0  0  0  0  0  0  0  0
    4.6078    0.9808    0.0726 C   0  0  0  0  0  0  0  0  0  0  0  0
    5.9525    0.6851    0.1674 C   0  0  0  0  0  0  0  0  0  0  0  0
    6.6645    1.8353   -0.1041 C   0  0  0  0  0  0  0  0  0  0  0  0
    5.7965    2.7736   -0.3493 O   0  0  0  0  0  0  0  0  0  0  0  0
    4.5655    2.3295   -0.2602 C   0  0  0  0  0  0  0  0  0  0  0  0
    3.4391   -1.1456   -0.2915 C   0  0  0  0  0  0  0  0  0  0  0  0
    4.5049   -1.5937   -1.0358 O   0  0  0  0  0  0  0  0  0  0  0  0
    2.3579   -2.0022   -0.1277 C   0  0  0  0  0  0  0  0  0  0  0  0
   -5.2454   -2.4698    1.3693 H   0  0  0  0  0  0  0  0  0  0  0  0
   -6.3061    1.9559    0.2984 H   0  0  0  0  0  0  0  0  0  0  0  0
   -5.0976    3.8612   -0.7514 H   0  0  0  0  0  0  0  0  0  0  0  0
   -1.6279    1.4583   -1.1932 H   0  0  0  0  0  0  0  0  0  0  0  0
   -0.7615   -0.2355   -0.9462 H   0  0  0  0  0  0  0  0  0  0  0  0
   -1.0570   -3.0045   -0.9377 H   0  0  0  0  0  0  0  0  0  0  0  0
    0.4318   -3.5392    0.7811 H   0  0  0  0  0  0  0  0  0  0  0  0
   -0.3458   -2.3079    1.7906 H   0  0  0  0  0  0  0  0  0  0  0  0
    0.3979    0.0088    1.7761 H   0  0  0  0  0  0  0  0  0  0  0  0
    2.3813    1.4968    1.4380 H   0  0  0  0  0  0  0  0  0  0  0  0
    6.3447   -0.2910    0.4141 H   0  0  0  0  0  0  0  0  0  0  0  0
    7.7480    1.9596   -0.1170 H   0  0  0  0  0  0  0  0  0  0  0  0
    3.6403    2.8766   -0.4100 H   0  0  0  0  0  0  0  0  0  0  0  0
    4.3629   -2.2704   -1.7667 H   0  0  0  0  0  0  0  0  0  0  0  0
    2.3633   -2.9859   -0.5740 H   0  0  0  0  0  0  0  0  0  0  0  0
  1  2  2  0
  2  3  1  0
  3  4  1  0
  4  5  2  0
  4  6  1  0
  6  7  2  0
  7  8  1  0
  8  9  2  0
  9 10  1  0
  9 11  1  0
 11 12  2  0
 12 13  1  0
 13 14  2  3
 14 15  1  0
 15 16  1  0
 16 17  1  0
 17 18  2  0
 18 19  1  0
 19 20  2  0
 20 21  1  0
 21 22  1  0
 22 23  2  0
 23 24  1  0
 24 25  1  0
 20 26  1  0
 26 27  1  0
 26 28  2  0
 13  2  1  0
 28 17  1  0
 12  6  1  0
 25 21  2  0
  3 29  1  0
  7 30  1  0
  8 31  1  0
 11 32  1  0
 14 33  1  0
 15 34  1  0
 16 35  1  0
 16 36  1  0
 18 37  1  0
 19 38  1  0
 22 39  1  0
 23 40  1  0
 25 41  1  0
 27 42  1  0
 28 43  1  0
M  END
$$$$
