
     RDKit          3D

 34 33  0  0  0  0  0  0  0  0999 V2000
   -2.6852    0.0796    0.5141 C   0  0  1  0  0  0  0  0  0  0  0  0
   -3.5223   -0.8983    1.0969 N   0  0  0  0  0  4  0  0  0  0  0  0
   -2.2312   -0.1996   -0.8827 C   0  0  0  0  0  0  0  0  0  0  0  0
   -1.4480   -1.4484   -1.0512 C   0  0  0  0  0  0  0  0  0  0  0  0
   -0.1773   -1.4297   -0.2075 C   0  0  0  0  0  0  0  0  0  0  0  0
    0.6397   -0.3055   -0.6210 N   0  0  0  0  0  0  0  0  0  0  0  0
    1.8950   -0.1116    0.0616 C   0  0  0  0  0  0  0  0  0  0  0  0
    2.3711   -1.0022    0.8654 N   0  0  0  0  0  0  0  0  0  0  0  0
    2.6268    1.1570   -0.1938 C   0  0  0  0  0  0  0  0  0  0  0  0
    3.9214    1.2488    0.5711 C   0  0  0  0  0  0  0  0  0  0  0  0
    4.8814    0.1558    0.2386 C   0  0  0  0  0  0  0  0  0  0  0  0
   -3.4421    1.3603    0.5222 C   0  0  0  0  0  0  0  0  0  0  0  0
   -3.6356    2.7101    0.2791 O   0  0  0  0  0  0  0  0  0  0  0  0
   -4.5881    1.2365    1.0291 O   0  0  0  0  0  0  0  0  0  0  0  0
   -1.7848    0.2402    1.1639 H   0  0  0  0  0  0  0  0  0  0  0  0
   -4.1291   -0.4494    1.8402 H   0  0  0  0  0  0  0  0  0  0  0  0
   -4.2235   -1.2645    0.3936 H   0  0  0  0  0  0  0  0  0  0  0  0
   -3.0782   -1.7028    1.5314 H   0  0  0  0  0  0  0  0  0  0  0  0
   -3.1142   -0.2515   -1.5546 H   0  0  0  0  0  0  0  0  0  0  0  0
   -1.6343    0.6529   -1.2663 H   0  0  0  0  0  0  0  0  0  0  0  0
   -2.0168   -2.3748   -0.9124 H   0  0  0  0  0  0  0  0  0  0  0  0
   -1.0837   -1.4839   -2.1000 H   0  0  0  0  0  0  0  0  0  0  0  0
   -0.3697   -1.3913    0.8670 H   0  0  0  0  0  0  0  0  0  0  0  0
    0.3968   -2.3552   -0.4004 H   0  0  0  0  0  0  0  0  0  0  0  0
    0.3830    0.3629   -1.3690 H   0  0  0  0  0  0  0  0  0  0  0  0
    1.8264   -1.8791    1.0174 H   0  0  0  0  0  0  0  0  0  0  0  0
    2.7550    1.2474   -1.2809 H   0  0  0  0  0  0  0  0  0  0  0  0
    1.9630    1.9726    0.1601 H   0  0  0  0  0  0  0  0  0  0  0  0
    4.3814    2.2141    0.3103 H   0  0  0  0  0  0  0  0  0  0  0  0
    3.6576    1.2945    1.6530 H   0  0  0  0  0  0  0  0  0  0  0  0
    5.3643   -0.1884    1.1988 H   0  0  0  0  0  0  0  0  0  0  0  0
    5.7029    0.4994   -0.4432 H   0  0  0  0  0  0  0  0  0  0  0  0
    4.4454   -0.7206   -0.2670 H   0  0  0  0  0  0  0  0  0  0  0  0
   -4.0469    3.0249   -0.6042 H   0  0  0  0  0  0  0  0  0  0  0  0
  1  2  1  0
  1  3  1  0
  3  4  1  0
  4  5  1  0
  5  6  1  0
  6  7  1  0
  7  8  2  3
  7  9  1  0
  9 10  1  0
 10 11  1  0
  1 12  1  0
 12 13  1  0
 12 14  2  0
  1 15  1  1
  2 16  1  0
  2 17  1  0
  2 18  1  0
  3 19  1  0
  3 20  1  0
  4 21  1  0
  4 22  1  0
  5 23  1  0
  5 24  1  0
  6 25  1  0
  8 26  1  0
  9 27  1  0
  9 28  1  0
 10 29  1  0
 10 30  1  0
 11 31  1  0
 11 32  1  0
 11 33  1  0
 13 34  1  0
M  CHG  1   2   1
M  END
$$$$
