@<TRIPOS>MOLECULE
*****
 42 45 0 0 0
SMALL
GASTEIGER

@<TRIPOS>ATOM
      1 N          -5.0777   -2.3242   -0.9899 N.pl3   1  UNL1       -0.3134
      2 C          -4.5054   -1.0999   -0.4807 C.2     1  UNL1        0.2764
      3 N          -3.2893   -0.8274   -0.7104 N.2     1  UNL1       -0.2194
      4 C          -2.5868    0.3523   -0.2672 C.3     1  UNL1        0.1603
      5 C          -1.4583   -0.1210    0.5784 C.ar    1  UNL1        0.0228
      6 C          -0.1386    0.1280    0.2863 C.ar    1  UNL1       -0.0321
      7 C           0.9121   -0.3156    1.0695 C.ar    1  UNL1        0.0342
      8 N           2.2775   -0.0159    0.7010 N.am    1  UNL1       -0.2802
      9 C           3.0503   -0.8593   -0.1278 C.2     1  UNL1        0.2697
     10 O           2.4980   -1.9054   -0.5451 O.2     1  UNL1       -0.2681
     11 C           4.4208   -0.5807   -0.5114 C.ar    1  UNL1        0.1640
     12 C           5.1842   -1.3925   -1.3170 C.ar    1  UNL1        0.1247
     13 O           6.3512   -0.8127   -1.4339 O.2     1  UNL1       -0.4423
     14 C           6.3983    0.3013   -0.7709 C.ar    1  UNL1        0.2635
     15 C           7.5748    1.2254   -0.6808 C.3     1  UNL1        0.3134
     16 F           8.0031    1.2547    0.6342 F       1  UNL1       -0.1988
     17 F           7.2458    2.5079   -1.0437 F       1  UNL1       -0.1988
     18 N           5.2085    0.4566   -0.1948 N.ar    1  UNL1       -0.2038
     19 C           0.6240   -1.0418    2.1961 C.ar    1  UNL1       -0.0377
     20 C          -0.6751   -1.3162    2.5297 C.ar    1  UNL1       -0.0243
     21 C          -1.6930   -0.8588    1.7274 C.ar    1  UNL1        0.1292
     22 F          -2.9913   -1.1329    2.0607 F       1  UNL1       -0.2051
     23 C          -2.0435    1.0268   -1.5164 C.3     1  UNL1        0.2686
     24 F          -3.0801    1.3606   -2.3693 F       1  UNL1       -0.2062
     25 F          -1.4723    2.2551   -1.1501 F       1  UNL1       -0.2062
     26 C          -3.4033    1.3124    0.5292 C.3     1  UNL1        0.0344
     27 C          -4.5210    2.0888   -0.0310 C.3     1  UNL1       -0.0064
     28 C          -4.7477    0.8967    0.8994 C.3     1  UNL1        0.1091
     29 O          -5.2657   -0.2199    0.2545 O.2     1  UNL1       -0.4622
     30 H          -5.9941   -2.2550   -1.4806 H       1  UNL1        0.1466
     31 H          -4.6276   -3.2431   -0.8904 H       1  UNL1        0.1466
     32 H           0.0857    0.7033   -0.6129 H       1  UNL1        0.0640
     33 H           2.7223    0.8565    1.0553 H       1  UNL1        0.1552
     34 H           4.9439   -2.3328   -1.7956 H       1  UNL1        0.1054
     35 H           8.4131    0.8082   -1.2751 H       1  UNL1        0.1122
     36 H           1.4648   -1.3839    2.8025 H       1  UNL1        0.0637
     37 H          -0.9168   -1.8951    3.4268 H       1  UNL1        0.0647
     38 H          -1.3284    0.3928   -2.0687 H       1  UNL1        0.1047
     39 H          -2.8128    1.8565    1.3242 H       1  UNL1        0.0366
     40 H          -4.7962    3.0578    0.4542 H       1  UNL1        0.0306
     41 H          -4.8460    2.0140   -1.0690 H       1  UNL1        0.0306
     42 H          -5.1073    1.0783    1.9238 H       1  UNL1        0.0737
@<TRIPOS>BOND
     1     1     2    1
     2     2     3    2
     3     3     4    1
     4     4     5    1
     5     5     6   ar
     6     6     7   ar
     7     7     8    1
     8     8     9   am
     9     9    10    2
    10     9    11    1
    11    11    12   ar
    12    12    13   ar
    13    13    14   ar
    14    14    15    1
    15    15    16    1
    16    15    17    1
    17    14    18   ar
    18     7    19   ar
    19    19    20   ar
    20    20    21   ar
    21    21    22    1
    22     4    23    1
    23    23    24    1
    24    23    25    1
    25     4    26    1
    26    26    27    1
    27    27    28    1
    28    28    29    1
    29    29     2    1
    30    21     5   ar
    31    28    26    1
    32    18    11   ar
    33     1    30    1
    34     1    31    1
    35     6    32    1
    36     8    33    1
    37    12    34    1
    38    15    35    1
    39    19    36    1
    40    20    37    1
    41    23    38    1
    42    26    39    1
    43    27    40    1
    44    27    41    1
    45    28    42    1
