
     RDKit          3D

 42 45  0  0  0  0  0  0  0  0999 V2000
   -5.0777   -2.3242   -0.9899 N   0  0  0  0  0  0  0  0  0  0  0  0
   -4.5054   -1.0999   -0.4807 C   0  0  0  0  0  0  0  0  0  0  0  0
   -3.2893   -0.8274   -0.7104 N   0  0  0  0  0  0  0  0  0  0  0  0
   -2.5868    0.3523   -0.2672 C   0  0  1  0  0  0  0  0  0  0  0  0
   -1.4583   -0.1210    0.5784 C   0  0  0  0  0  0  0  0  0  0  0  0
   -0.1386    0.1280    0.2863 C   0  0  0  0  0  0  0  0  0  0  0  0
    0.9121   -0.3156    1.0695 C   0  0  0  0  0  0  0  0  0  0  0  0
    2.2775   -0.0159    0.7010 N   0  0  0  0  0  0  0  0  0  0  0  0
    3.0503   -0.8593   -0.1278 C   0  0  0  0  0  0  0  0  0  0  0  0
    2.4980   -1.9054   -0.5451 O   0  0  0  0  0  0  0  0  0  0  0  0
    4.4208   -0.5807   -0.5114 C   0  0  0  0  0  0  0  0  0  0  0  0
    5.1842   -1.3925   -1.3170 C   0  0  0  0  0  0  0  0  0  0  0  0
    6.3512   -0.8127   -1.4339 O   0  0  0  0  0  0  0  0  0  0  0  0
    6.3983    0.3013   -0.7709 C   0  0  0  0  0  0  0  0  0  0  0  0
    7.5748    1.2254   -0.6808 C   0  0  0  0  0  0  0  0  0  0  0  0
    8.0031    1.2547    0.6342 F   0  0  0  0  0  0  0  0  0  0  0  0
    7.2458    2.5079   -1.0437 F   0  0  0  0  0  0  0  0  0  0  0  0
    5.2085    0.4566   -0.1948 N   0  0  0  0  0  0  0  0  0  0  0  0
    0.6240   -1.0418    2.1961 C   0  0  0  0  0  0  0  0  0  0  0  0
   -0.6751   -1.3162    2.5297 C   0  0  0  0  0  0  0  0  0  0  0  0
   -1.6930   -0.8588    1.7274 C   0  0  0  0  0  0  0  0  0  0  0  0
   -2.9913   -1.1329    2.0607 F   0  0  0  0  0  0  0  0  0  0  0  0
   -2.0435    1.0268   -1.5164 C   0  0  0  0  0  0  0  0  0  0  0  0
   -3.0801    1.3606   -2.3693 F   0  0  0  0  0  0  0  0  0  0  0  0
   -1.4723    2.2551   -1.1501 F   0  0  0  0  0  0  0  0  0  0  0  0
   -3.4033    1.3124    0.5292 C   0  0  1  0  0  0  0  0  0  0  0  0
   -4.5210    2.0888   -0.0310 C   0  0  0  0  0  0  0  0  0  0  0  0
   -4.7477    0.8967    0.8994 C   0  0  1  0  0  0  0  0  0  0  0  0
   -5.2657   -0.2199    0.2545 O   0  0  0  0  0  0  0  0  0  0  0  0
   -5.9941   -2.2550   -1.4806 H   0  0  0  0  0  0  0  0  0  0  0  0
   -4.6276   -3.2431   -0.8904 H   0  0  0  0  0  0  0  0  0  0  0  0
    0.0857    0.7033   -0.6129 H   0  0  0  0  0  0  0  0  0  0  0  0
    2.7223    0.8565    1.0553 H   0  0  0  0  0  0  0  0  0  0  0  0
    4.9439   -2.3328   -1.7956 H   0  0  0  0  0  0  0  0  0  0  0  0
    8.4131    0.8082   -1.2751 H   0  0  0  0  0  0  0  0  0  0  0  0
    1.4648   -1.3839    2.8025 H   0  0  0  0  0  0  0  0  0  0  0  0
   -0.9168   -1.8951    3.4268 H   0  0  0  0  0  0  0  0  0  0  0  0
   -1.3284    0.3928   -2.0687 H   0  0  0  0  0  0  0  0  0  0  0  0
   -2.8128    1.8565    1.3242 H   0  0  0  0  0  0  0  0  0  0  0  0
   -4.7962    3.0578    0.4542 H   0  0  0  0  0  0  0  0  0  0  0  0
   -4.8460    2.0140   -1.0690 H   0  0  0  0  0  0  0  0  0  0  0  0
   -5.1073    1.0783    1.9238 H   0  0  0  0  0  0  0  0  0  0  0  0
  1  2  1  0
  2  3  2  0
  3  4  1  0
  4  5  1  0
  5  6  2  0
  6  7  1  0
  7  8  1  0
  8  9  1  0
  9 10  2  0
  9 11  1  0
 11 12  2  0
 12 13  1  0
 13 14  1  0
 14 15  1  0
 15 16  1  0
 15 17  1  0
 14 18  2  0
  7 19  2  0
 19 20  1  0
 20 21  2  0
 21 22  1  0
  4 23  1  6
 23 24  1  0
 23 25  1  0
  4 26  1  0
 26 27  1  0
 27 28  1  0
 28 29  1  0
 29  2  1  0
 21  5  1  0
 28 26  1  0
 18 11  1  0
  1 30  1  0
  1 31  1  0
  6 32  1  0
  8 33  1  0
 12 34  1  0
 15 35  1  0
 19 36  1  0
 20 37  1  0
 23 38  1  0
 26 39  1  1
 27 40  1  0
 27 41  1  0
 28 42  1  1
M  END
$$$$
