@<TRIPOS>MOLECULE
*****
 42 44 0 0 0
SMALL
GASTEIGER

@<TRIPOS>ATOM
      1 C          -0.7752   -0.2253   -1.4332 C.3     1  UNL1        0.0867
      2 O          -0.9314   -1.5167   -1.9792 O.3     1  UNL1       -0.3890
      3 C           0.6618    0.2222   -1.6255 C.3     1  UNL1        0.0213
      4 C           1.2794   -0.6272   -0.5058 C.3     1  UNL1        0.1422
      5 O           0.4834   -0.2525    0.5470 O.3     1  UNL1       -0.3493
      6 C          -0.8084   -0.3782    0.0748 C.3     1  UNL1        0.0997
      7 C          -1.7560    0.6619    0.5980 C.3     1  UNL1        0.0277
      8 N          -3.0775    0.4367    0.0407 N.3     1  UNL1       -0.2998
      9 C          -3.9906    1.4431    0.5481 C.3     1  UNL1       -0.0010
     10 C          -5.3483    0.7504    0.4442 C.3     1  UNL1       -0.0390
     11 C          -5.0207   -0.6325    0.9270 C.3     1  UNL1       -0.0390
     12 C          -3.6064   -0.8419    0.4647 C.3     1  UNL1       -0.0010
     13 N           2.6739   -0.3499   -0.3418 N.ar    1  UNL1       -0.2737
     14 C           3.2913    0.4065    0.5671 C.ar    1  UNL1        0.0199
     15 C           4.6587    0.5614    0.5735 C.ar    1  UNL1        0.0302
     16 C           5.2975    1.4167    1.6099 C.3     1  UNL1       -0.0332
     17 C           5.4248   -0.0733   -0.3754 C.ar    1  UNL1        0.2568
     18 O           6.6865    0.0474   -0.3990 O.2     1  UNL1       -0.2674
     19 N           4.7900   -0.8227   -1.2727 N.ar    1  UNL1       -0.2747
     20 C           3.4427   -0.9764   -1.2802 C.ar    1  UNL1        0.3313
     21 O           2.9914   -1.7266   -2.2053 O.2     1  UNL1       -0.2464
     22 H          -1.5147    0.4882   -1.8089 H       1  UNL1        0.0621
     23 H          -0.8728   -2.2272   -1.2752 H       1  UNL1        0.2099
     24 H           0.7395    1.2701   -1.3162 H       1  UNL1        0.0335
     25 H           1.0763   -0.0339   -2.6036 H       1  UNL1        0.0335
     26 H           1.0584   -1.6763   -0.7640 H       1  UNL1        0.0840
     27 H          -1.1757   -1.3822    0.3696 H       1  UNL1        0.0635
     28 H          -1.4250    1.6828    0.3631 H       1  UNL1        0.0453
     29 H          -1.8873    0.5005    1.7080 H       1  UNL1        0.0453
     30 H          -3.9527    2.3772   -0.0102 H       1  UNL1        0.0427
     31 H          -3.7815    1.5630    1.6232 H       1  UNL1        0.0427
     32 H          -5.6576    0.6846   -0.6282 H       1  UNL1        0.0278
     33 H          -6.1125    1.2205    1.0918 H       1  UNL1        0.0278
     34 H          -5.7404   -1.3304    0.4192 H       1  UNL1        0.0278
     35 H          -5.0928   -0.7216    2.0293 H       1  UNL1        0.0278
     36 H          -3.6027   -1.6202   -0.3025 H       1  UNL1        0.0427
     37 H          -2.9813   -1.2189    1.3049 H       1  UNL1        0.0427
     38 H           2.6291    0.8702    1.2752 H       1  UNL1        0.0816
     39 H           4.8736    1.2929    2.6085 H       1  UNL1        0.0280
     40 H           5.2806    2.4708    1.2562 H       1  UNL1        0.0280
     41 H           6.3749    1.1136    1.6723 H       1  UNL1        0.0280
     42 H           5.3977   -1.2988   -1.9892 H       1  UNL1        0.1734
@<TRIPOS>BOND
     1     1     2    1
     2     1     3    1
     3     3     4    1
     4     4     5    1
     5     5     6    1
     6     6     7    1
     7     7     8    1
     8     8     9    1
     9     9    10    1
    10    10    11    1
    11    11    12    1
    12     4    13    1
    13    13    14   ar
    14    14    15   ar
    15    15    16    1
    16    15    17   ar
    17    17    18    2
    18    17    19   ar
    19    19    20   ar
    20    20    21    2
    21     6     1    1
    22    12     8    1
    23    20    13   ar
    24     1    22    1
    25     2    23    1
    26     3    24    1
    27     3    25    1
    28     4    26    1
    29     6    27    1
    30     7    28    1
    31     7    29    1
    32     9    30    1
    33     9    31    1
    34    10    32    1
    35    10    33    1
    36    11    34    1
    37    11    35    1
    38    12    36    1
    39    12    37    1
    40    14    38    1
    41    16    39    1
    42    16    40    1
    43    16    41    1
    44    19    42    1
