
     RDKit          3D

 59 62  0  0  0  0  0  0  0  0999 V2000
   -7.1387    1.5508    0.2906 N   0  0  0  0  0  0  0  0  0  0  0  0
   -5.8583    2.1532   -0.0567 C   0  0  0  0  0  0  0  0  0  0  0  0
   -5.7804    2.5142   -1.5050 C   0  0  0  0  0  0  0  0  0  0  0  0
   -5.2007    1.3987   -2.3611 C   0  0  0  0  0  0  0  0  0  0  0  0
   -3.8404    1.0904   -1.9530 N   0  0  0  0  0  0  0  0  0  0  0  0
   -3.6859   -0.3295   -1.9990 C   0  0  0  0  0  0  0  0  0  0  0  0
   -2.3478   -0.8232   -1.5918 C   0  0  0  0  0  0  0  0  0  0  0  0
   -1.3503   -0.9352   -2.5370 C   0  0  0  0  0  0  0  0  0  0  0  0
   -0.0890   -1.3960   -2.2220 C   0  0  0  0  0  0  0  0  0  0  0  0
    0.2481   -1.7756   -0.9242 C   0  0  0  0  0  0  0  0  0  0  0  0
    1.5916   -2.2590   -0.6312 C   0  0  0  0  0  0  0  0  0  0  0  0
    2.4237   -2.3177   -1.6069 O   0  0  0  0  0  0  0  0  0  0  0  0
    1.9950   -2.6563    0.6671 N   0  0  0  0  0  0  0  0  0  0  0  0
    3.3220   -3.1209    0.8881 C   0  0  0  0  0  0  0  0  0  0  0  0
    3.5802   -4.4609    0.7566 C   0  0  0  0  0  0  0  0  0  0  0  0
    4.8381   -4.9374    0.9605 C   0  0  0  0  0  0  0  0  0  0  0  0
    5.8473   -4.0731    1.2980 C   0  0  0  0  0  0  0  0  0  0  0  0
    7.4618   -4.6895    1.5592 Cl  0  0  0  0  0  0  0  0  0  0  0  0
    5.5798   -2.7076    1.4309 C   0  0  0  0  0  0  0  0  0  0  0  0
    4.3083   -2.2203    1.2257 C   0  0  0  0  0  0  0  0  0  0  0  0
    4.0691   -0.8054    1.3721 C   0  0  0  0  0  0  0  0  0  0  0  0
    2.8784   -0.3770    1.1767 O   0  0  0  0  0  0  0  0  0  0  0  0
    5.0302    0.1609    1.7132 N   0  0  0  0  0  0  0  0  0  0  0  0
    4.6468    1.5481    1.8250 C   0  0  0  0  0  0  0  0  0  0  0  0
    5.5529    2.5305    2.1570 C   0  0  0  0  0  0  0  0  0  0  0  0
    5.2015    3.8609    2.2679 C   0  0  0  0  0  0  0  0  0  0  0  0
    3.8851    4.2298    2.0371 C   0  0  0  0  0  0  0  0  0  0  0  0
    3.3742    5.9122    2.1633 Cl  0  0  0  0  0  0  0  0  0  0  0  0
    3.0063    3.2198    1.7071 C   0  0  0  0  0  0  0  0  0  0  0  0
    3.3749    1.9234    1.6046 N   0  0  0  0  0  0  0  0  0  0  0  0
   -0.7448   -1.6650    0.0217 C   0  0  0  0  0  0  0  0  0  0  0  0
   -2.0238   -1.1957   -0.3078 C   0  0  0  0  0  0  0  0  0  0  0  0
   -3.5519    1.5856   -0.6362 C   0  0  0  0  0  0  0  0  0  0  0  0
   -4.7056    1.2544    0.2972 C   0  0  0  0  0  0  0  0  0  0  0  0
   -7.4694    0.9551   -0.5017 H   0  0  0  0  0  0  0  0  0  0  0  0
   -7.8028    2.3017    0.5294 H   0  0  0  0  0  0  0  0  0  0  0  0
   -5.7725    3.0658    0.6017 H   0  0  0  0  0  0  0  0  0  0  0  0
   -5.1282    3.4097   -1.6238 H   0  0  0  0  0  0  0  0  0  0  0  0
   -6.8026    2.7079   -1.8882 H   0  0  0  0  0  0  0  0  0  0  0  0
   -5.8371    0.5122   -2.3108 H   0  0  0  0  0  0  0  0  0  0  0  0
   -5.1636    1.7476   -3.4043 H   0  0  0  0  0  0  0  0  0  0  0  0
   -3.8538   -0.6875   -3.0433 H   0  0  0  0  0  0  0  0  0  0  0  0
   -4.4457   -0.8653   -1.3770 H   0  0  0  0  0  0  0  0  0  0  0  0
   -1.5952   -0.6427   -3.5586 H   0  0  0  0  0  0  0  0  0  0  0  0
    0.6863   -1.4788   -2.9772 H   0  0  0  0  0  0  0  0  0  0  0  0
    1.3215   -2.6047    1.4416 H   0  0  0  0  0  0  0  0  0  0  0  0
    2.7796   -5.1696    0.4854 H   0  0  0  0  0  0  0  0  0  0  0  0
    5.0494   -6.0092    0.8563 H   0  0  0  0  0  0  0  0  0  0  0  0
    6.4360   -2.1050    1.6989 H   0  0  0  0  0  0  0  0  0  0  0  0
    6.0053   -0.1397    1.8801 H   0  0  0  0  0  0  0  0  0  0  0  0
    6.5740    2.2224    2.3327 H   0  0  0  0  0  0  0  0  0  0  0  0
    5.9037    4.6447    2.5282 H   0  0  0  0  0  0  0  0  0  0  0  0
    1.9755    3.5265    1.5287 H   0  0  0  0  0  0  0  0  0  0  0  0
   -0.5209   -1.9520    1.0490 H   0  0  0  0  0  0  0  0  0  0  0  0
   -2.7653   -1.1287    0.4655 H   0  0  0  0  0  0  0  0  0  0  0  0
   -2.6402    1.1621   -0.2113 H   0  0  0  0  0  0  0  0  0  0  0  0
   -3.4613    2.7016   -0.6303 H   0  0  0  0  0  0  0  0  0  0  0  0
   -4.4068    1.4477    1.3674 H   0  0  0  0  0  0  0  0  0  0  0  0
   -4.9635    0.1903    0.2628 H   0  0  0  0  0  0  0  0  0  0  0  0
  1  2  1  0
  2  3  1  0
  3  4  1  0
  4  5  1  0
  5  6  1  0
  6  7  1  0
  7  8  2  0
  8  9  1  0
  9 10  2  0
 10 11  1  0
 11 12  2  0
 11 13  1  0
 13 14  1  0
 14 15  2  0
 15 16  1  0
 16 17  2  0
 17 18  1  0
 17 19  1  0
 19 20  2  0
 20 21  1  0
 21 22  2  0
 21 23  1  0
 23 24  1  0
 24 25  2  0
 25 26  1  0
 26 27  2  0
 27 28  1  0
 27 29  1  0
 29 30  2  0
 10 31  1  0
 31 32  2  0
  5 33  1  0
 33 34  1  0
 34  2  1  0
 32  7  1  0
 20 14  1  0
 30 24  1  0
  1 35  1  0
  1 36  1  0
  2 37  1  0
  3 38  1  0
  3 39  1  0
  4 40  1  0
  4 41  1  0
  6 42  1  0
  6 43  1  0
  8 44  1  0
  9 45  1  0
 13 46  1  0
 15 47  1  0
 16 48  1  0
 19 49  1  0
 23 50  1  0
 25 51  1  0
 26 52  1  0
 29 53  1  0
 31 54  1  0
 32 55  1  0
 33 56  1  0
 33 57  1  0
 34 58  1  0
 34 59  1  0
M  END
$$$$
