@<TRIPOS>MOLECULE
*****
 59 62 0 0 0
SMALL
GASTEIGER

@<TRIPOS>ATOM
      1 N          -7.1387    1.5508    0.2906 N.3     1  UNL1       -0.3272
      2 C          -5.8583    2.1532   -0.0567 C.3     1  UNL1        0.0072
      3 C          -5.7804    2.5142   -1.5050 C.3     1  UNL1       -0.0249
      4 C          -5.2007    1.3987   -2.3611 C.3     1  UNL1        0.0006
      5 N          -3.8404    1.0904   -1.9530 N.3     1  UNL1       -0.2981
      6 C          -3.6859   -0.3295   -1.9990 C.3     1  UNL1        0.0240
      7 C          -2.3478   -0.8232   -1.5918 C.ar    1  UNL1       -0.0333
      8 C          -1.3503   -0.9352   -2.5370 C.ar    1  UNL1       -0.0566
      9 C          -0.0890   -1.3960   -2.2220 C.ar    1  UNL1       -0.0493
     10 C           0.2481   -1.7756   -0.9242 C.ar    1  UNL1        0.0370
     11 C           1.5916   -2.2590   -0.6312 C.2     1  UNL1        0.2483
     12 O           2.4237   -2.3177   -1.6069 O.2     1  UNL1       -0.2699
     13 N           1.9950   -2.6563    0.6671 N.am    1  UNL1       -0.2808
     14 C           3.3220   -3.1209    0.8881 C.ar    1  UNL1        0.0459
     15 C           3.5802   -4.4609    0.7566 C.ar    1  UNL1       -0.0384
     16 C           4.8381   -4.9374    0.9605 C.ar    1  UNL1       -0.0416
     17 C           5.8473   -4.0731    1.2980 C.ar    1  UNL1        0.0418
     18 CL          7.4618   -4.6895    1.5592 Cl      1  UNL1       -0.0835
     19 C           5.5798   -2.7076    1.4309 C.ar    1  UNL1       -0.0295
     20 C           4.3083   -2.2203    1.2257 C.ar    1  UNL1        0.0596
     21 C           4.0691   -0.8054    1.3721 C.2     1  UNL1        0.2511
     22 O           2.8784   -0.3770    1.1767 O.2     1  UNL1       -0.2697
     23 N           5.0302    0.1609    1.7132 N.am    1  UNL1       -0.2663
     24 C           4.6468    1.5481    1.8250 C.ar    1  UNL1        0.1252
     25 C           5.5529    2.5305    2.1570 C.ar    1  UNL1       -0.0201
     26 C           5.2015    3.8609    2.2679 C.ar    1  UNL1       -0.0387
     27 C           3.8851    4.2298    2.0371 C.ar    1  UNL1        0.0592
     28 CL          3.3742    5.9122    2.1633 Cl      1  UNL1       -0.0820
     29 C           3.0063    3.2198    1.7071 C.ar    1  UNL1        0.0480
     30 N           3.3749    1.9234    1.6046 N.ar    1  UNL1       -0.2387
     31 C          -0.7448   -1.6650    0.0217 C.ar    1  UNL1       -0.0493
     32 C          -2.0238   -1.1957   -0.3078 C.ar    1  UNL1       -0.0566
     33 C          -3.5519    1.5856   -0.6362 C.3     1  UNL1        0.0006
     34 C          -4.7056    1.2544    0.2972 C.3     1  UNL1       -0.0249
     35 H          -7.4694    0.9551   -0.5017 H       1  UNL1        0.1185
     36 H          -7.8028    2.3017    0.5294 H       1  UNL1        0.1185
     37 H          -5.7725    3.0658    0.6017 H       1  UNL1        0.0459
     38 H          -5.1282    3.4097   -1.6238 H       1  UNL1        0.0293
     39 H          -6.8026    2.7079   -1.8882 H       1  UNL1        0.0293
     40 H          -5.8371    0.5122   -2.3108 H       1  UNL1        0.0427
     41 H          -5.1636    1.7476   -3.4043 H       1  UNL1        0.0427
     42 H          -3.8538   -0.6875   -3.0433 H       1  UNL1        0.0476
     43 H          -4.4457   -0.8653   -1.3770 H       1  UNL1        0.0476
     44 H          -1.5952   -0.6427   -3.5586 H       1  UNL1        0.0621
     45 H           0.6863   -1.4788   -2.9772 H       1  UNL1        0.0625
     46 H           1.3215   -2.6047    1.4416 H       1  UNL1        0.1552
     47 H           2.7796   -5.1696    0.4854 H       1  UNL1        0.0637
     48 H           5.0494   -6.0092    0.8563 H       1  UNL1        0.0633
     49 H           6.4360   -2.1050    1.6989 H       1  UNL1        0.0640
     50 H           6.0053   -0.1397    1.8801 H       1  UNL1        0.1566
     51 H           6.5740    2.2224    2.3327 H       1  UNL1        0.0652
     52 H           5.9037    4.6447    2.5282 H       1  UNL1        0.0634
     53 H           1.9755    3.5265    1.5287 H       1  UNL1        0.0845
     54 H          -0.5209   -1.9520    1.0490 H       1  UNL1        0.0625
     55 H          -2.7653   -1.1287    0.4655 H       1  UNL1        0.0621
     56 H          -2.6402    1.1621   -0.2113 H       1  UNL1        0.0427
     57 H          -3.4613    2.7016   -0.6303 H       1  UNL1        0.0427
     58 H          -4.4068    1.4477    1.3674 H       1  UNL1        0.0293
     59 H          -4.9635    0.1903    0.2628 H       1  UNL1        0.0293
@<TRIPOS>BOND
     1     1     2    1
     2     2     3    1
     3     3     4    1
     4     4     5    1
     5     5     6    1
     6     6     7    1
     7     7     8   ar
     8     8     9   ar
     9     9    10   ar
    10    10    11    1
    11    11    12    2
    12    11    13   am
    13    13    14    1
    14    14    15   ar
    15    15    16   ar
    16    16    17   ar
    17    17    18    1
    18    17    19   ar
    19    19    20   ar
    20    20    21    1
    21    21    22    2
    22    21    23   am
    23    23    24    1
    24    24    25   ar
    25    25    26   ar
    26    26    27   ar
    27    27    28    1
    28    27    29   ar
    29    29    30   ar
    30    10    31   ar
    31    31    32   ar
    32     5    33    1
    33    33    34    1
    34    34     2    1
    35    32     7   ar
    36    20    14   ar
    37    30    24   ar
    38     1    35    1
    39     1    36    1
    40     2    37    1
    41     3    38    1
    42     3    39    1
    43     4    40    1
    44     4    41    1
    45     6    42    1
    46     6    43    1
    47     8    44    1
    48     9    45    1
    49    13    46    1
    50    15    47    1
    51    16    48    1
    52    19    49    1
    53    23    50    1
    54    25    51    1
    55    26    52    1
    56    29    53    1
    57    31    54    1
    58    32    55    1
    59    33    56    1
    60    33    57    1
    61    34    58    1
    62    34    59    1
