@<TRIPOS>MOLECULE
*****
 51 54 0 0 0
SMALL
GASTEIGER

@<TRIPOS>ATOM
      1 C          -3.2900    3.1415    1.7047 C.3     1  UNL1        0.0789
      2 O          -3.4890    1.9488    0.9582 O.3     1  UNL1       -0.4933
      3 C          -2.4093    1.1303    0.6814 C.ar    1  UNL1        0.1411
      4 C          -1.1482    1.4638    1.1235 C.ar    1  UNL1       -0.0163
      5 C          -0.0434    0.6657    0.8636 C.ar    1  UNL1       -0.0358
      6 C          -0.2377   -0.4837    0.1435 C.ar    1  UNL1        0.0500
      7 N           0.8119   -1.3717   -0.1758 N.pl3   1  UNL1       -0.2157
      8 S           2.0318   -1.8744    0.9070 S.O2    1  UNL1        0.0789
      9 O           1.8193   -1.4308    2.2972 O.2     1  UNL1       -0.1495
     10 O           2.0459   -3.4004    0.8360 O.2     1  UNL1       -0.1495
     11 C           3.5970   -1.3293    0.3742 C.ar    1  UNL1        0.1497
     12 S           4.6188   -2.2443   -0.7230 S.2     1  UNL1       -0.0680
     13 C           5.9644   -1.1115   -0.7781 C.ar    1  UNL1        0.0216
     14 C           7.1824   -1.1145   -1.4395 C.ar    1  UNL1       -0.0460
     15 C           8.0604   -0.0614   -1.2889 C.ar    1  UNL1       -0.0423
     16 C           7.6923    0.9784   -0.4715 C.ar    1  UNL1        0.0416
     17 CL          8.7975    2.3626   -0.2470 Cl      1  UNL1       -0.0835
     18 C           6.4896    0.9601    0.1689 C.ar    1  UNL1       -0.0348
     19 C           5.5464   -0.0901    0.0554 C.ar    1  UNL1       -0.0046
     20 C           4.3257   -0.2321    0.6320 C.ar    1  UNL1       -0.0088
     21 C           3.7747    0.8422    1.5723 C.3     1  UNL1       -0.0367
     22 C          -1.5258   -0.8119   -0.3006 C.ar    1  UNL1       -0.0147
     23 C          -2.6259   -0.0226   -0.0450 C.ar    1  UNL1        0.0738
     24 N          -3.9346   -0.3706   -0.5048 N.pl3   1  UNL1       -0.3246
     25 C          -4.7168    0.4475   -1.3863 C.3     1  UNL1        0.0249
     26 C          -6.1645    0.3384   -0.9412 C.3     1  UNL1        0.0117
     27 N          -6.6771   -1.0000   -1.0351 N.3     1  UNL1       -0.3130
     28 C          -5.6840   -2.0239   -0.9042 C.3     1  UNL1        0.0117
     29 C          -4.5097   -1.6245   -0.0560 C.3     1  UNL1        0.0249
     30 H          -2.8915    2.8258    2.7013 H       1  UNL1        0.0660
     31 H          -2.5628    3.7496    1.1464 H       1  UNL1        0.0660
     32 H          -4.2184    3.7028    1.8541 H       1  UNL1        0.0660
     33 H          -1.0278    2.3824    1.6921 H       1  UNL1        0.0655
     34 H           0.9286    0.9709    1.2359 H       1  UNL1        0.0638
     35 H           0.8710   -1.7736   -1.1599 H       1  UNL1        0.1737
     36 H           7.3907   -1.9716   -2.0617 H       1  UNL1        0.0629
     37 H           9.0081   -0.0546   -1.7981 H       1  UNL1        0.0632
     38 H           6.2727    1.8141    0.7941 H       1  UNL1        0.0638
     39 H           4.6195    1.3898    2.0542 H       1  UNL1        0.0278
     40 H           3.2065    1.5862    1.0256 H       1  UNL1        0.0278
     41 H           3.2129    0.3760    2.3638 H       1  UNL1        0.0278
     42 H          -1.6615   -1.7105   -0.8603 H       1  UNL1        0.0656
     43 H          -4.6034    0.0746   -2.4115 H       1  UNL1        0.0476
     44 H          -4.4430    1.5169   -1.3468 H       1  UNL1        0.0476
     45 H          -6.1974    0.7391    0.0980 H       1  UNL1        0.0439
     46 H          -6.8272    0.9844   -1.5773 H       1  UNL1        0.0439
     47 H          -7.4061   -1.1439   -0.3055 H       1  UNL1        0.1220
     48 H          -5.3038   -2.3076   -1.9194 H       1  UNL1        0.0439
     49 H          -6.1396   -2.9246   -0.4118 H       1  UNL1        0.0439
     50 H          -4.8016   -1.5110    1.0083 H       1  UNL1        0.0476
     51 H          -3.7279   -2.3969   -0.1633 H       1  UNL1        0.0476
@<TRIPOS>BOND
     1     1     2    1
     2     2     3    1
     3     3     4   ar
     4     4     5   ar
     5     5     6   ar
     6     6     7    1
     7     7     8    1
     8     8     9    2
     9     8    10    2
    10     8    11    1
    11    11    12   ar
    12    12    13   ar
    13    13    14   ar
    14    14    15   ar
    15    15    16   ar
    16    16    17    1
    17    16    18   ar
    18    18    19   ar
    19    19    20   ar
    20    20    21    1
    21     6    22   ar
    22    22    23   ar
    23    23    24    1
    24    24    25    1
    25    25    26    1
    26    26    27    1
    27    27    28    1
    28    28    29    1
    29    23     3   ar
    30    29    24    1
    31    20    11   ar
    32    19    13   ar
    33     1    30    1
    34     1    31    1
    35     1    32    1
    36     4    33    1
    37     5    34    1
    38     7    35    1
    39    14    36    1
    40    15    37    1
    41    18    38    1
    42    21    39    1
    43    21    40    1
    44    21    41    1
    45    22    42    1
    46    25    43    1
    47    25    44    1
    48    26    45    1
    49    26    46    1
    50    27    47    1
    51    28    48    1
    52    28    49    1
    53    29    50    1
    54    29    51    1
