
     RDKit          3D

 51 54  0  0  0  0  0  0  0  0999 V2000
   -3.2900    3.1415    1.7047 C   0  0  0  0  0  0  0  0  0  0  0  0
   -3.4890    1.9488    0.9582 O   0  0  0  0  0  0  0  0  0  0  0  0
   -2.4093    1.1303    0.6814 C   0  0  0  0  0  0  0  0  0  0  0  0
   -1.1482    1.4638    1.1235 C   0  0  0  0  0  0  0  0  0  0  0  0
   -0.0434    0.6657    0.8636 C   0  0  0  0  0  0  0  0  0  0  0  0
   -0.2377   -0.4837    0.1435 C   0  0  0  0  0  0  0  0  0  0  0  0
    0.8119   -1.3717   -0.1758 N   0  0  0  0  0  0  0  0  0  0  0  0
    2.0318   -1.8744    0.9070 S   0  0  0  0  0  6  0  0  0  0  0  0
    1.8193   -1.4308    2.2972 O   0  0  0  0  0  0  0  0  0  0  0  0
    2.0459   -3.4004    0.8360 O   0  0  0  0  0  0  0  0  0  0  0  0
    3.5970   -1.3293    0.3742 C   0  0  0  0  0  0  0  0  0  0  0  0
    4.6188   -2.2443   -0.7230 S   0  0  0  0  0  0  0  0  0  0  0  0
    5.9644   -1.1115   -0.7781 C   0  0  0  0  0  0  0  0  0  0  0  0
    7.1824   -1.1145   -1.4395 C   0  0  0  0  0  0  0  0  0  0  0  0
    8.0604   -0.0614   -1.2889 C   0  0  0  0  0  0  0  0  0  0  0  0
    7.6923    0.9784   -0.4715 C   0  0  0  0  0  0  0  0  0  0  0  0
    8.7975    2.3626   -0.2470 Cl  0  0  0  0  0  0  0  0  0  0  0  0
    6.4896    0.9601    0.1689 C   0  0  0  0  0  0  0  0  0  0  0  0
    5.5464   -0.0901    0.0554 C   0  0  0  0  0  0  0  0  0  0  0  0
    4.3257   -0.2321    0.6320 C   0  0  0  0  0  0  0  0  0  0  0  0
    3.7747    0.8422    1.5723 C   0  0  0  0  0  0  0  0  0  0  0  0
   -1.5258   -0.8119   -0.3006 C   0  0  0  0  0  0  0  0  0  0  0  0
   -2.6259   -0.0226   -0.0450 C   0  0  0  0  0  0  0  0  0  0  0  0
   -3.9346   -0.3706   -0.5048 N   0  0  0  0  0  0  0  0  0  0  0  0
   -4.7168    0.4475   -1.3863 C   0  0  0  0  0  0  0  0  0  0  0  0
   -6.1645    0.3384   -0.9412 C   0  0  0  0  0  0  0  0  0  0  0  0
   -6.6771   -1.0000   -1.0351 N   0  0  0  0  0  0  0  0  0  0  0  0
   -5.6840   -2.0239   -0.9042 C   0  0  0  0  0  0  0  0  0  0  0  0
   -4.5097   -1.6245   -0.0560 C   0  0  0  0  0  0  0  0  0  0  0  0
   -2.8915    2.8258    2.7013 H   0  0  0  0  0  0  0  0  0  0  0  0
   -2.5628    3.7496    1.1464 H   0  0  0  0  0  0  0  0  0  0  0  0
   -4.2184    3.7028    1.8541 H   0  0  0  0  0  0  0  0  0  0  0  0
   -1.0278    2.3824    1.6921 H   0  0  0  0  0  0  0  0  0  0  0  0
    0.9286    0.9709    1.2359 H   0  0  0  0  0  0  0  0  0  0  0  0
    0.8710   -1.7736   -1.1599 H   0  0  0  0  0  0  0  0  0  0  0  0
    7.3907   -1.9716   -2.0617 H   0  0  0  0  0  0  0  0  0  0  0  0
    9.0081   -0.0546   -1.7981 H   0  0  0  0  0  0  0  0  0  0  0  0
    6.2727    1.8141    0.7941 H   0  0  0  0  0  0  0  0  0  0  0  0
    4.6195    1.3898    2.0542 H   0  0  0  0  0  0  0  0  0  0  0  0
    3.2065    1.5862    1.0256 H   0  0  0  0  0  0  0  0  0  0  0  0
    3.2129    0.3760    2.3638 H   0  0  0  0  0  0  0  0  0  0  0  0
   -1.6615   -1.7105   -0.8603 H   0  0  0  0  0  0  0  0  0  0  0  0
   -4.6034    0.0746   -2.4115 H   0  0  0  0  0  0  0  0  0  0  0  0
   -4.4430    1.5169   -1.3468 H   0  0  0  0  0  0  0  0  0  0  0  0
   -6.1974    0.7391    0.0980 H   0  0  0  0  0  0  0  0  0  0  0  0
   -6.8272    0.9844   -1.5773 H   0  0  0  0  0  0  0  0  0  0  0  0
   -7.4061   -1.1439   -0.3055 H   0  0  0  0  0  0  0  0  0  0  0  0
   -5.3038   -2.3076   -1.9194 H   0  0  0  0  0  0  0  0  0  0  0  0
   -6.1396   -2.9246   -0.4118 H   0  0  0  0  0  0  0  0  0  0  0  0
   -4.8016   -1.5110    1.0083 H   0  0  0  0  0  0  0  0  0  0  0  0
   -3.7279   -2.3969   -0.1633 H   0  0  0  0  0  0  0  0  0  0  0  0
  1  2  1  0
  2  3  1  0
  3  4  2  0
  4  5  1  0
  5  6  2  0
  6  7  1  0
  7  8  1  0
  8  9  2  0
  8 10  2  0
  8 11  1  0
 11 12  1  0
 12 13  1  0
 13 14  2  0
 14 15  1  0
 15 16  2  0
 16 17  1  0
 16 18  1  0
 18 19  2  0
 19 20  1  0
 20 21  1  0
  6 22  1  0
 22 23  2  0
 23 24  1  0
 24 25  1  0
 25 26  1  0
 26 27  1  0
 27 28  1  0
 28 29  1  0
 23  3  1  0
 29 24  1  0
 20 11  2  0
 19 13  1  0
  1 30  1  0
  1 31  1  0
  1 32  1  0
  4 33  1  0
  5 34  1  0
  7 35  1  0
 14 36  1  0
 15 37  1  0
 18 38  1  0
 21 39  1  0
 21 40  1  0
 21 41  1  0
 22 42  1  0
 25 43  1  0
 25 44  1  0
 26 45  1  0
 26 46  1  0
 27 47  1  0
 28 48  1  0
 28 49  1  0
 29 50  1  0
 29 51  1  0
M  END
$$$$
