@<TRIPOS>MOLECULE
*****
 58 62 0 0 0
SMALL
GASTEIGER

@<TRIPOS>ATOM
      1 C          -5.0196    0.0461   -2.1883 C.3     1  UNL1       -0.0229
      2 C          -4.2096    0.7644   -1.1635 C.3     1  UNL1        0.1321
      3 C          -4.1472    2.2335   -1.3559 C.3     1  UNL1       -0.0229
      4 O          -4.6872    0.5237    0.1545 O.3     1  UNL1       -0.4420
      5 C          -3.5953    0.9685    0.9724 C.2     1  UNL1        0.4043
      6 O          -3.6495    1.5622    2.0427 O.2     1  UNL1       -0.2262
      7 N          -2.4381    0.5766    0.2860 N.am    1  UNL1       -0.2535
      8 C          -1.0546    0.5611    0.7933 C.3     1  UNL1        0.0300
      9 C          -0.4750   -0.7703    0.9811 C.3     1  UNL1       -0.0323
     10 C           0.9618   -0.7950    1.2913 C.3     1  UNL1       -0.0303
     11 C           1.7663    0.0914    0.4088 C.3     1  UNL1        0.0395
     12 N           2.9265    0.6469    1.0908 N.ar    1  UNL1       -0.2891
     13 C           2.7705    1.5177    2.1733 C.ar    1  UNL1        0.3278
     14 O           1.6514    1.8620    2.6000 O.2     1  UNL1       -0.2465
     15 N           3.9729    1.8881    2.6312 N.ar    1  UNL1       -0.3059
     16 C           4.8797    1.2321    1.8128 C.ar    1  UNL1        0.0684
     17 C           6.2529    1.3113    1.8946 C.ar    1  UNL1       -0.0160
     18 C           6.9476    0.5416    0.9267 C.ar    1  UNL1        0.0889
     19 C           8.3661    0.6524    0.9967 C.1     1  UNL1        0.1021
     20 N           9.5519    0.7392    1.0742 N.1     1  UNL1       -0.1908
     21 C           6.2600   -0.1935    0.0220 C.ar    1  UNL1        0.1428
     22 F           6.9718   -0.9330   -0.8789 F       1  UNL1       -0.2041
     23 C           4.8785   -0.2641   -0.0509 C.ar    1  UNL1        0.0005
     24 C           4.2238    0.5153    0.9249 C.ar    1  UNL1        0.0727
     25 C           1.0666    1.0414   -0.4671 C.3     1  UNL1       -0.0303
     26 C          -0.2736    1.5383    0.0213 C.3     1  UNL1       -0.0323
     27 C          -2.7881    0.1929   -1.0612 C.3     1  UNL1        0.0938
     28 C          -2.7981   -1.2782   -1.2027 C.ar    1  UNL1       -0.0231
     29 C          -2.0111   -1.8275   -2.2606 C.ar    1  UNL1       -0.0567
     30 C          -1.9677   -3.2286   -2.3781 C.ar    1  UNL1       -0.0614
     31 C          -2.6637   -4.0288   -1.4976 C.ar    1  UNL1       -0.0617
     32 C          -3.4075   -3.5165   -0.4991 C.ar    1  UNL1       -0.0614
     33 C          -3.4564   -2.1282   -0.3797 C.ar    1  UNL1       -0.0567
     34 H          -5.6072    0.7463   -2.7658 H       1  UNL1        0.0269
     35 H          -5.7036   -0.6931   -1.7244 H       1  UNL1        0.0269
     36 H          -4.2869   -0.4479   -2.8746 H       1  UNL1        0.0269
     37 H          -3.0904    2.5833   -1.1793 H       1  UNL1        0.0269
     38 H          -4.4273    2.5661   -2.3856 H       1  UNL1        0.0269
     39 H          -4.8321    2.7309   -0.6246 H       1  UNL1        0.0269
     40 H          -1.1718    0.9615    1.8530 H       1  UNL1        0.0502
     41 H          -0.9750   -1.3375    1.8499 H       1  UNL1        0.0284
     42 H          -0.6804   -1.4793    0.1485 H       1  UNL1        0.0284
     43 H           1.1293   -0.5141    2.3577 H       1  UNL1        0.0286
     44 H           1.3138   -1.8663    1.1392 H       1  UNL1        0.0286
     45 H           2.2774   -0.6500   -0.3191 H       1  UNL1        0.0529
     46 H           4.1812    2.5195    3.4189 H       1  UNL1        0.1705
     47 H           6.7672    1.9007    2.6220 H       1  UNL1        0.0652
     48 H           4.3025   -0.8280   -0.7369 H       1  UNL1        0.0668
     49 H           0.8517    0.5972   -1.4924 H       1  UNL1        0.0286
     50 H           1.7577    1.8709   -0.7254 H       1  UNL1        0.0286
     51 H          -0.0676    2.4642    0.5818 H       1  UNL1        0.0284
     52 H          -0.8540    1.9015   -0.8806 H       1  UNL1        0.0284
     53 H          -2.1345    0.6706   -1.8299 H       1  UNL1        0.0591
     54 H          -1.4865   -1.1652   -2.9261 H       1  UNL1        0.0621
     55 H          -1.3860   -3.6767   -3.1502 H       1  UNL1        0.0618
     56 H          -2.6217   -5.1267   -1.5954 H       1  UNL1        0.0618
     57 H          -3.9904   -4.0858    0.2306 H       1  UNL1        0.0618
     58 H          -4.0713   -1.6852    0.4211 H       1  UNL1        0.0621
@<TRIPOS>BOND
     1     1     2    1
     2     2     3    1
     3     2     4    1
     4     4     5    1
     5     5     6    2
     6     5     7   am
     7     7     8    1
     8     8     9    1
     9     9    10    1
    10    10    11    1
    11    11    12    1
    12    12    13   ar
    13    13    14    2
    14    13    15   ar
    15    15    16   ar
    16    16    17   ar
    17    17    18   ar
    18    18    19    1
    19    19    20    3
    20    18    21   ar
    21    21    22    1
    22    21    23   ar
    23    23    24   ar
    24    11    25    1
    25    25    26    1
    26     7    27    1
    27    27    28    1
    28    28    29   ar
    29    29    30   ar
    30    30    31   ar
    31    31    32   ar
    32    32    33   ar
    33    27     2    1
    34    33    28   ar
    35    26     8    1
    36    24    12   ar
    37    24    16   ar
    38     1    34    1
    39     1    35    1
    40     1    36    1
    41     3    37    1
    42     3    38    1
    43     3    39    1
    44     8    40    1
    45     9    41    1
    46     9    42    1
    47    10    43    1
    48    10    44    1
    49    11    45    1
    50    15    46    1
    51    17    47    1
    52    23    48    1
    53    25    49    1
    54    25    50    1
    55    26    51    1
    56    26    52    1
    57    27    53    1
    58    29    54    1
    59    30    55    1
    60    31    56    1
    61    32    57    1
    62    33    58    1
