@<TRIPOS>MOLECULE
*****
 52 53 0 0 0
SMALL
GASTEIGER

@<TRIPOS>ATOM
      1 C          -5.1686   -1.8570   -3.1992 C.3     1  UNL1        0.0790
      2 O          -5.5809   -1.4266   -1.9119 O.3     1  UNL1       -0.4912
      3 C          -4.8785   -0.4601   -1.2094 C.ar    1  UNL1        0.1687
      4 C          -3.7447    0.1463   -1.7002 C.ar    1  UNL1        0.0263
      5 C          -3.0637    1.1061   -0.9803 C.ar    1  UNL1        0.1356
      6 O          -1.9486    1.6598   -1.5357 O.3     1  UNL1       -0.4558
      7 C          -0.6590    1.1544   -1.3711 C.ar    1  UNL1        0.1286
      8 C          -0.3841    0.0304   -0.6201 C.ar    1  UNL1       -0.0175
      9 C           0.9031   -0.4532   -0.4705 C.ar    1  UNL1       -0.0334
     10 C           1.9748    0.1768   -1.0735 C.ar    1  UNL1        0.0884
     11 S           3.5937   -0.4556   -0.8683 S.O2    1  UNL1       -0.0024
     12 O           3.4665   -1.9459   -0.6180 O.2     1  UNL1       -0.1693
     13 O           4.4035   -0.2698   -2.0940 O.2     1  UNL1       -0.1693
     14 C           4.3562    0.2771    0.5547 C.3     1  UNL1        0.0817
     15 C           5.7488   -0.2723    0.7241 C.3     1  UNL1        0.0544
     16 C           6.6339   -0.0018   -0.4480 C.3     1  UNL1       -0.0525
     17 C           6.3390    0.2831    1.9697 C.2     1  UNL1        0.2398
     18 O           5.6951    1.0730    2.6890 O.2     1  UNL1       -0.2734
     19 N           7.6514   -0.0780    2.3628 N.am    1  UNL1       -0.1972
     20 O           8.2053    0.4216    3.4995 O.3     1  UNL1       -0.2952
     21 C           1.6995    1.3010   -1.8247 C.ar    1  UNL1       -0.0334
     22 C           0.4110    1.7824   -1.9725 C.ar    1  UNL1       -0.0175
     23 C          -3.5669    1.4377    0.2608 C.ar    1  UNL1        0.0263
     24 C          -4.6981    0.8635    0.8030 C.ar    1  UNL1        0.1687
     25 O          -5.2065    1.1953    2.0514 O.3     1  UNL1       -0.4912
     26 C          -4.5214    2.1759    2.8011 C.3     1  UNL1        0.0790
     27 C          -5.3427   -0.0941    0.0379 C.ar    1  UNL1        0.2037
     28 O          -6.4741   -0.6835    0.5545 O.3     1  UNL1       -0.4885
     29 C          -6.3421   -1.8631    1.3322 C.3     1  UNL1        0.0791
     30 H          -6.0512   -2.3686   -3.6486 H       1  UNL1        0.0660
     31 H          -4.9225   -0.9369   -3.7935 H       1  UNL1        0.0660
     32 H          -4.2920   -2.5151   -3.1636 H       1  UNL1        0.0660
     33 H          -3.3748   -0.1416   -2.6879 H       1  UNL1        0.0692
     34 H          -1.2445   -0.4539   -0.1511 H       1  UNL1        0.0655
     35 H           1.0925   -1.3416    0.1273 H       1  UNL1        0.0638
     36 H           4.3463    1.3811    0.4931 H       1  UNL1        0.0511
     37 H           3.7850   -0.0053    1.4621 H       1  UNL1        0.0511
     38 H           5.6595   -1.3655    0.8783 H       1  UNL1        0.0408
     39 H           6.2146    0.8056   -1.0802 H       1  UNL1        0.0237
     40 H           6.6737   -0.9095   -1.0830 H       1  UNL1        0.0237
     41 H           7.6556    0.3545   -0.1521 H       1  UNL1        0.0237
     42 H           8.2336   -0.7330    1.8005 H       1  UNL1        0.1822
     43 H           8.8583   -0.2333    3.8550 H       1  UNL1        0.2414
     44 H           2.5331    1.8013   -2.3009 H       1  UNL1        0.0638
     45 H           0.2167    2.6723   -2.5706 H       1  UNL1        0.0655
     46 H          -3.0541    2.1827    0.8409 H       1  UNL1        0.0692
     47 H          -5.0813    2.5237    3.6838 H       1  UNL1        0.0660
     48 H          -4.3689    3.0550    2.1339 H       1  UNL1        0.0660
     49 H          -3.5165    1.7774    3.0893 H       1  UNL1        0.0660
     50 H          -7.0391   -1.7771    2.1788 H       1  UNL1        0.0660
     51 H          -5.2816   -2.0073    1.6830 H       1  UNL1        0.0660
     52 H          -6.5446   -2.7172    0.6622 H       1  UNL1        0.0660
@<TRIPOS>BOND
     1     1     2    1
     2     2     3    1
     3     3     4   ar
     4     4     5   ar
     5     5     6    1
     6     6     7    1
     7     7     8   ar
     8     8     9   ar
     9     9    10   ar
    10    10    11    1
    11    11    12    2
    12    11    13    2
    13    11    14    1
    14    14    15    1
    15    15    16    1
    16    15    17    1
    17    17    18    2
    18    17    19   am
    19    19    20    1
    20    10    21   ar
    21    21    22   ar
    22     5    23   ar
    23    23    24   ar
    24    24    25    1
    25    25    26    1
    26    24    27   ar
    27    27    28    1
    28    28    29    1
    29    27     3   ar
    30    22     7   ar
    31     1    30    1
    32     1    31    1
    33     1    32    1
    34     4    33    1
    35     8    34    1
    36     9    35    1
    37    14    36    1
    38    14    37    1
    39    15    38    1
    40    16    39    1
    41    16    40    1
    42    16    41    1
    43    19    42    1
    44    20    43    1
    45    21    44    1
    46    22    45    1
    47    23    46    1
    48    26    47    1
    49    26    48    1
    50    26    49    1
    51    29    50    1
    52    29    51    1
    53    29    52    1
