
     RDKit          3D

 52 53  0  0  0  0  0  0  0  0999 V2000
   -5.1686   -1.8570   -3.1992 C   0  0  0  0  0  0  0  0  0  0  0  0
   -5.5809   -1.4266   -1.9119 O   0  0  0  0  0  0  0  0  0  0  0  0
   -4.8785   -0.4601   -1.2094 C   0  0  0  0  0  0  0  0  0  0  0  0
   -3.7447    0.1463   -1.7002 C   0  0  0  0  0  0  0  0  0  0  0  0
   -3.0637    1.1061   -0.9803 C   0  0  0  0  0  0  0  0  0  0  0  0
   -1.9486    1.6598   -1.5357 O   0  0  0  0  0  0  0  0  0  0  0  0
   -0.6590    1.1544   -1.3711 C   0  0  0  0  0  0  0  0  0  0  0  0
   -0.3841    0.0304   -0.6201 C   0  0  0  0  0  0  0  0  0  0  0  0
    0.9031   -0.4532   -0.4705 C   0  0  0  0  0  0  0  0  0  0  0  0
    1.9748    0.1768   -1.0735 C   0  0  0  0  0  0  0  0  0  0  0  0
    3.5937   -0.4556   -0.8683 S   0  0  0  0  0  6  0  0  0  0  0  0
    3.4665   -1.9459   -0.6180 O   0  0  0  0  0  0  0  0  0  0  0  0
    4.4035   -0.2698   -2.0940 O   0  0  0  0  0  0  0  0  0  0  0  0
    4.3562    0.2771    0.5547 C   0  0  0  0  0  0  0  0  0  0  0  0
    5.7488   -0.2723    0.7241 C   0  0  0  0  0  0  0  0  0  0  0  0
    6.6339   -0.0018   -0.4480 C   0  0  0  0  0  0  0  0  0  0  0  0
    6.3390    0.2831    1.9697 C   0  0  0  0  0  0  0  0  0  0  0  0
    5.6951    1.0730    2.6890 O   0  0  0  0  0  0  0  0  0  0  0  0
    7.6514   -0.0780    2.3628 N   0  0  0  0  0  0  0  0  0  0  0  0
    8.2053    0.4216    3.4995 O   0  0  0  0  0  0  0  0  0  0  0  0
    1.6995    1.3010   -1.8247 C   0  0  0  0  0  0  0  0  0  0  0  0
    0.4110    1.7824   -1.9725 C   0  0  0  0  0  0  0  0  0  0  0  0
   -3.5669    1.4377    0.2608 C   0  0  0  0  0  0  0  0  0  0  0  0
   -4.6981    0.8635    0.8030 C   0  0  0  0  0  0  0  0  0  0  0  0
   -5.2065    1.1953    2.0514 O   0  0  0  0  0  0  0  0  0  0  0  0
   -4.5214    2.1759    2.8011 C   0  0  0  0  0  0  0  0  0  0  0  0
   -5.3427   -0.0941    0.0379 C   0  0  0  0  0  0  0  0  0  0  0  0
   -6.4741   -0.6835    0.5545 O   0  0  0  0  0  0  0  0  0  0  0  0
   -6.3421   -1.8631    1.3322 C   0  0  0  0  0  0  0  0  0  0  0  0
   -6.0512   -2.3686   -3.6486 H   0  0  0  0  0  0  0  0  0  0  0  0
   -4.9225   -0.9369   -3.7935 H   0  0  0  0  0  0  0  0  0  0  0  0
   -4.2920   -2.5151   -3.1636 H   0  0  0  0  0  0  0  0  0  0  0  0
   -3.3748   -0.1416   -2.6879 H   0  0  0  0  0  0  0  0  0  0  0  0
   -1.2445   -0.4539   -0.1511 H   0  0  0  0  0  0  0  0  0  0  0  0
    1.0925   -1.3416    0.1273 H   0  0  0  0  0  0  0  0  0  0  0  0
    4.3463    1.3811    0.4931 H   0  0  0  0  0  0  0  0  0  0  0  0
    3.7850   -0.0053    1.4621 H   0  0  0  0  0  0  0  0  0  0  0  0
    5.6595   -1.3655    0.8783 H   0  0  0  0  0  0  0  0  0  0  0  0
    6.2146    0.8056   -1.0802 H   0  0  0  0  0  0  0  0  0  0  0  0
    6.6737   -0.9095   -1.0830 H   0  0  0  0  0  0  0  0  0  0  0  0
    7.6556    0.3545   -0.1521 H   0  0  0  0  0  0  0  0  0  0  0  0
    8.2336   -0.7330    1.8005 H   0  0  0  0  0  0  0  0  0  0  0  0
    8.8583   -0.2333    3.8550 H   0  0  0  0  0  0  0  0  0  0  0  0
    2.5331    1.8013   -2.3009 H   0  0  0  0  0  0  0  0  0  0  0  0
    0.2167    2.6723   -2.5706 H   0  0  0  0  0  0  0  0  0  0  0  0
   -3.0541    2.1827    0.8409 H   0  0  0  0  0  0  0  0  0  0  0  0
   -5.0813    2.5237    3.6838 H   0  0  0  0  0  0  0  0  0  0  0  0
   -4.3689    3.0550    2.1339 H   0  0  0  0  0  0  0  0  0  0  0  0
   -3.5165    1.7774    3.0893 H   0  0  0  0  0  0  0  0  0  0  0  0
   -7.0391   -1.7771    2.1788 H   0  0  0  0  0  0  0  0  0  0  0  0
   -5.2816   -2.0073    1.6830 H   0  0  0  0  0  0  0  0  0  0  0  0
   -6.5446   -2.7172    0.6622 H   0  0  0  0  0  0  0  0  0  0  0  0
  1  2  1  0
  2  3  1  0
  3  4  2  0
  4  5  1  0
  5  6  1  0
  6  7  1  0
  7  8  2  0
  8  9  1  0
  9 10  2  0
 10 11  1  0
 11 12  2  0
 11 13  2  0
 11 14  1  0
 14 15  1  0
 15 16  1  0
 15 17  1  0
 17 18  2  0
 17 19  1  0
 19 20  1  0
 10 21  1  0
 21 22  2  0
  5 23  2  0
 23 24  1  0
 24 25  1  0
 25 26  1  0
 24 27  2  0
 27 28  1  0
 28 29  1  0
 27  3  1  0
 22  7  1  0
  1 30  1  0
  1 31  1  0
  1 32  1  0
  4 33  1  0
  8 34  1  0
  9 35  1  0
 14 36  1  0
 14 37  1  0
 15 38  1  0
 16 39  1  0
 16 40  1  0
 16 41  1  0
 19 42  1  0
 20 43  1  0
 21 44  1  0
 22 45  1  0
 23 46  1  0
 26 47  1  0
 26 48  1  0
 26 49  1  0
 29 50  1  0
 29 51  1  0
 29 52  1  0
M  END
$$$$
