
     RDKit          3D

 47 48  0  0  0  0  0  0  0  0999 V2000
   -1.2989   -3.4630    1.3780 C   0  0  0  0  0  0  0  0  0  0  0  0
   -1.9961   -2.4574    0.7097 O   0  0  0  0  0  0  0  0  0  0  0  0
   -1.3704   -1.3595    0.1599 C   0  0  0  0  0  0  0  0  0  0  0  0
   -0.0007   -1.1460    0.2159 C   0  0  0  0  0  0  0  0  0  0  0  0
    0.6048   -0.0363   -0.3418 C   0  0  0  0  0  0  0  0  0  0  0  0
    2.0302    0.1504   -0.2664 C   0  0  0  0  0  0  0  0  0  0  0  0
    2.8935   -0.9228   -0.2781 C   0  0  0  0  0  0  0  0  0  0  0  0
    4.2602   -0.7124   -0.1886 C   0  0  0  0  0  0  0  0  0  0  0  0
    5.1438   -1.9006   -0.2110 C   0  0  0  0  0  0  0  0  0  0  0  0
    4.7108    0.5683   -0.0904 C   0  0  0  0  0  0  0  0  0  0  0  0
    5.9533    0.7638   -0.0083 O   0  0  0  0  0  0  0  0  0  0  0  0
    3.8885    1.6496   -0.0759 N   0  0  0  0  0  0  0  0  0  0  0  0
    4.4321    2.9812    0.0337 C   0  0  0  0  0  0  0  0  0  0  0  0
    2.5681    1.4149   -0.1646 C   0  0  0  0  0  0  0  0  0  0  0  0
   -0.1947    0.8904   -0.9783 C   0  0  0  0  0  0  0  0  0  0  0  0
   -1.5630    0.7083   -1.0527 C   0  0  0  0  0  0  0  0  0  0  0  0
   -2.3882    1.6330   -1.6923 O   0  0  0  0  0  0  0  0  0  0  0  0
   -1.9401    2.8127   -2.3117 C   0  0  0  0  0  0  0  0  0  0  0  0
   -2.1313   -0.4079   -0.4859 C   0  0  0  0  0  0  0  0  0  0  0  0
   -3.6272   -0.5838   -0.5643 C   0  0  0  0  0  0  0  0  0  0  0  0
   -4.1741   -0.2293    0.6882 N   0  0  0  0  0  0  0  0  0  0  0  0
   -3.9633    1.0758    1.1726 C   0  0  0  0  0  0  0  0  0  0  0  0
   -4.5939   -1.2386    1.5702 C   0  0  0  0  0  0  0  0  0  0  0  0
   -0.9165   -4.2377    0.6595 H   0  0  0  0  0  0  0  0  0  0  0  0
   -1.9983   -3.9707    2.1041 H   0  0  0  0  0  0  0  0  0  0  0  0
   -0.4811   -3.0696    1.9788 H   0  0  0  0  0  0  0  0  0  0  0  0
    0.5850   -1.8992    0.7234 H   0  0  0  0  0  0  0  0  0  0  0  0
    2.5231   -1.9478   -0.3559 H   0  0  0  0  0  0  0  0  0  0  0  0
    5.1442   -2.2664   -1.2804 H   0  0  0  0  0  0  0  0  0  0  0  0
    6.1917   -1.6695    0.0030 H   0  0  0  0  0  0  0  0  0  0  0  0
    4.7518   -2.6850    0.4457 H   0  0  0  0  0  0  0  0  0  0  0  0
    3.7639    3.6602    0.6054 H   0  0  0  0  0  0  0  0  0  0  0  0
    5.3643    2.9057    0.6502 H   0  0  0  0  0  0  0  0  0  0  0  0
    4.7349    3.4254   -0.9301 H   0  0  0  0  0  0  0  0  0  0  0  0
    1.9294    2.2918   -0.1508 H   0  0  0  0  0  0  0  0  0  0  0  0
    0.2116    1.7781   -1.4376 H   0  0  0  0  0  0  0  0  0  0  0  0
   -1.0965    3.2809   -1.8031 H   0  0  0  0  0  0  0  0  0  0  0  0
   -1.6369    2.5479   -3.3515 H   0  0  0  0  0  0  0  0  0  0  0  0
   -2.8267    3.5108   -2.3347 H   0  0  0  0  0  0  0  0  0  0  0  0
   -3.8056   -1.6524   -0.8131 H   0  0  0  0  0  0  0  0  0  0  0  0
   -3.9605    0.0004   -1.4301 H   0  0  0  0  0  0  0  0  0  0  0  0
   -4.4256    1.8817    0.5537 H   0  0  0  0  0  0  0  0  0  0  0  0
   -4.3289    1.2393    2.2037 H   0  0  0  0  0  0  0  0  0  0  0  0
   -2.8517    1.2501    1.2379 H   0  0  0  0  0  0  0  0  0  0  0  0
   -4.6988   -2.1883    1.0325 H   0  0  0  0  0  0  0  0  0  0  0  0
   -5.5710   -1.0589    2.0679 H   0  0  0  0  0  0  0  0  0  0  0  0
   -3.8452   -1.3176    2.4038 H   0  0  0  0  0  0  0  0  0  0  0  0
  1  2  1  0
  2  3  1  0
  3  4  2  0
  4  5  1  0
  5  6  1  0
  6  7  1  0
  7  8  2  0
  8  9  1  0
  8 10  1  0
 10 11  2  0
 10 12  1  0
 12 13  1  0
 12 14  1  0
  5 15  2  0
 15 16  1  0
 16 17  1  0
 17 18  1  0
 16 19  2  0
 19 20  1  0
 20 21  1  0
 21 22  1  0
 21 23  1  0
 19  3  1  0
 14  6  2  0
  1 24  1  0
  1 25  1  0
  1 26  1  0
  4 27  1  0
  7 28  1  0
  9 29  1  0
  9 30  1  0
  9 31  1  0
 13 32  1  0
 13 33  1  0
 13 34  1  0
 14 35  1  0
 15 36  1  0
 18 37  1  0
 18 38  1  0
 18 39  1  0
 20 40  1  0
 20 41  1  0
 22 42  1  0
 22 43  1  0
 22 44  1  0
 23 45  1  0
 23 46  1  0
 23 47  1  0
M  END
$$$$
