@<TRIPOS>MOLECULE
*****
 47 48 0 0 0
SMALL
GASTEIGER

@<TRIPOS>ATOM
      1 C          -1.2989   -3.4630    1.3780 C.3     1  UNL1        0.0788
      2 O          -1.9961   -2.4574    0.7097 O.3     1  UNL1       -0.4947
      3 C          -1.3704   -1.3595    0.1599 C.ar    1  UNL1        0.1285
      4 C          -0.0007   -1.1460    0.2159 C.ar    1  UNL1       -0.0116
      5 C           0.6048   -0.0363   -0.3418 C.ar    1  UNL1       -0.0096
      6 C           2.0302    0.1504   -0.2664 C.ar    1  UNL1       -0.0010
      7 C           2.8935   -0.9228   -0.2781 C.ar    1  UNL1       -0.0446
      8 C           4.2602   -0.7124   -0.1886 C.ar    1  UNL1        0.0146
      9 C           5.1438   -1.9006   -0.2110 C.3     1  UNL1       -0.0346
     10 C           4.7108    0.5683   -0.0904 C.ar    1  UNL1        0.2540
     11 O           5.9533    0.7638   -0.0083 O.2     1  UNL1       -0.2674
     12 N           3.8885    1.6496   -0.0759 N.ar    1  UNL1       -0.3175
     13 C           4.4321    2.9812    0.0337 C.3     1  UNL1        0.0147
     14 C           2.5681    1.4149   -0.1646 C.ar    1  UNL1        0.0153
     15 C          -0.1947    0.8904   -0.9783 C.ar    1  UNL1       -0.0116
     16 C          -1.5630    0.7083   -1.0527 C.ar    1  UNL1        0.1285
     17 O          -2.3882    1.6330   -1.6923 O.3     1  UNL1       -0.4947
     18 C          -1.9401    2.8127   -2.3117 C.3     1  UNL1        0.0788
     19 C          -2.1313   -0.4079   -0.4859 C.ar    1  UNL1        0.0497
     20 C          -3.6272   -0.5838   -0.5643 C.3     1  UNL1        0.0304
     21 N          -4.1741   -0.2293    0.6882 N.3     1  UNL1       -0.3039
     22 C          -3.9633    1.0758    1.1726 C.3     1  UNL1       -0.0127
     23 C          -4.5939   -1.2386    1.5702 C.3     1  UNL1       -0.0127
     24 H          -0.9165   -4.2377    0.6595 H       1  UNL1        0.0660
     25 H          -1.9983   -3.9707    2.1041 H       1  UNL1        0.0660
     26 H          -0.4811   -3.0696    1.9788 H       1  UNL1        0.0660
     27 H           0.5850   -1.8992    0.7234 H       1  UNL1        0.0660
     28 H           2.5231   -1.9478   -0.3559 H       1  UNL1        0.0628
     29 H           5.1442   -2.2664   -1.2804 H       1  UNL1        0.0279
     30 H           6.1917   -1.6695    0.0030 H       1  UNL1        0.0279
     31 H           4.7518   -2.6850    0.4457 H       1  UNL1        0.0279
     32 H           3.7639    3.6602    0.6054 H       1  UNL1        0.0457
     33 H           5.3643    2.9057    0.6502 H       1  UNL1        0.0457
     34 H           4.7349    3.4254   -0.9301 H       1  UNL1        0.0457
     35 H           1.9294    2.2918   -0.1508 H       1  UNL1        0.0816
     36 H           0.2116    1.7781   -1.4376 H       1  UNL1        0.0660
     37 H          -1.0965    3.2809   -1.8031 H       1  UNL1        0.0660
     38 H          -1.6369    2.5479   -3.3515 H       1  UNL1        0.0660
     39 H          -2.8267    3.5108   -2.3347 H       1  UNL1        0.0660
     40 H          -3.8056   -1.6524   -0.8131 H       1  UNL1        0.0478
     41 H          -3.9605    0.0004   -1.4301 H       1  UNL1        0.0478
     42 H          -4.4256    1.8817    0.5537 H       1  UNL1        0.0391
     43 H          -4.3289    1.2393    2.2037 H       1  UNL1        0.0391
     44 H          -2.8517    1.2501    1.2379 H       1  UNL1        0.0391
     45 H          -4.6988   -2.1883    1.0325 H       1  UNL1        0.0391
     46 H          -5.5710   -1.0589    2.0679 H       1  UNL1        0.0391
     47 H          -3.8452   -1.3176    2.4038 H       1  UNL1        0.0391
@<TRIPOS>BOND
     1     1     2    1
     2     2     3    1
     3     3     4   ar
     4     4     5   ar
     5     5     6    1
     6     6     7   ar
     7     7     8   ar
     8     8     9    1
     9     8    10   ar
    10    10    11    2
    11    10    12   ar
    12    12    13    1
    13    12    14   ar
    14     5    15   ar
    15    15    16   ar
    16    16    17    1
    17    17    18    1
    18    16    19   ar
    19    19    20    1
    20    20    21    1
    21    21    22    1
    22    21    23    1
    23    19     3   ar
    24    14     6   ar
    25     1    24    1
    26     1    25    1
    27     1    26    1
    28     4    27    1
    29     7    28    1
    30     9    29    1
    31     9    30    1
    32     9    31    1
    33    13    32    1
    34    13    33    1
    35    13    34    1
    36    14    35    1
    37    15    36    1
    38    18    37    1
    39    18    38    1
    40    18    39    1
    41    20    40    1
    42    20    41    1
    43    22    42    1
    44    22    43    1
    45    22    44    1
    46    23    45    1
    47    23    46    1
    48    23    47    1
