@<TRIPOS>MOLECULE
*****
 25 26 0 0 0
SMALL
GASTEIGER

@<TRIPOS>ATOM
      1 C          -1.9476    1.1154    0.9775 C.3     1  UNL1        0.0130
      2 N          -1.8171    0.1425   -0.1122 N.ar    1  UNL1       -0.3350
      3 C          -2.8587   -0.3755   -0.8080 C.ar    1  UNL1        0.1202
      4 C          -4.2406   -0.0385   -0.5880 C.1     1  UNL1        0.1173
      5 N          -5.3393    0.2178   -0.3969 N.1     1  UNL1       -0.1893
      6 C          -2.4004   -1.2679   -1.7522 C.ar    1  UNL1       -0.0256
      7 C          -1.0357   -1.2915   -1.6247 C.ar    1  UNL1       -0.0349
      8 C          -0.7148   -0.4093   -0.6044 C.ar    1  UNL1        0.0525
      9 C           0.6720   -0.1619   -0.1515 C.ar    1  UNL1        0.0339
     10 C           1.5091   -1.2262    0.1111 C.ar    1  UNL1       -0.0464
     11 C           2.8144   -1.0150    0.5242 C.ar    1  UNL1       -0.0194
     12 C           3.3281    0.2469    0.6892 C.ar    1  UNL1        0.1196
     13 O           4.6211    0.5112    1.0988 O.3     1  UNL1       -0.5067
     14 C           2.4937    1.3129    0.4272 C.ar    1  UNL1        0.0157
     15 C           1.1700    1.1067    0.0080 C.ar    1  UNL1        0.1359
     16 F           0.3600    2.1580   -0.2601 F       1  UNL1       -0.2047
     17 H          -2.8587    0.7456    1.5443 H       1  UNL1        0.0456
     18 H          -1.1098    1.0520    1.6764 H       1  UNL1        0.0456
     19 H          -2.1748    2.1222    0.5875 H       1  UNL1        0.0456
     20 H          -2.9874   -1.8542   -2.4726 H       1  UNL1        0.0646
     21 H          -0.3115   -1.8572   -2.1741 H       1  UNL1        0.0639
     22 H           1.1003   -2.2184   -0.0202 H       1  UNL1        0.0626
     23 H           3.4585   -1.8622    0.7262 H       1  UNL1        0.0654
     24 H           5.4226    0.5086    0.4576 H       1  UNL1        0.2921
     25 H           2.8467    2.3380    0.5409 H       1  UNL1        0.0683
@<TRIPOS>BOND
     1     1     2    1
     2     2     3   ar
     3     3     4    1
     4     4     5    3
     5     3     6   ar
     6     6     7   ar
     7     7     8   ar
     8     8     9    1
     9     9    10   ar
    10    10    11   ar
    11    11    12   ar
    12    12    13    1
    13    12    14   ar
    14    14    15   ar
    15    15    16    1
    16     8     2   ar
    17    15     9   ar
    18     1    17    1
    19     1    18    1
    20     1    19    1
    21     6    20    1
    22     7    21    1
    23    10    22    1
    24    11    23    1
    25    13    24    1
    26    14    25    1
