
     RDKit          3D

 25 26  0  0  0  0  0  0  0  0999 V2000
   -1.9476    1.1154    0.9775 C   0  0  0  0  0  0  0  0  0  0  0  0
   -1.8171    0.1425   -0.1122 N   0  0  0  0  0  0  0  0  0  0  0  0
   -2.8587   -0.3755   -0.8080 C   0  0  0  0  0  0  0  0  0  0  0  0
   -4.2406   -0.0385   -0.5880 C   0  0  0  0  0  0  0  0  0  0  0  0
   -5.3393    0.2178   -0.3969 N   0  0  0  0  0  0  0  0  0  0  0  0
   -2.4004   -1.2679   -1.7522 C   0  0  0  0  0  0  0  0  0  0  0  0
   -1.0357   -1.2915   -1.6247 C   0  0  0  0  0  0  0  0  0  0  0  0
   -0.7148   -0.4093   -0.6044 C   0  0  0  0  0  0  0  0  0  0  0  0
    0.6720   -0.1619   -0.1515 C   0  0  0  0  0  0  0  0  0  0  0  0
    1.5091   -1.2262    0.1111 C   0  0  0  0  0  0  0  0  0  0  0  0
    2.8144   -1.0150    0.5242 C   0  0  0  0  0  0  0  0  0  0  0  0
    3.3281    0.2469    0.6892 C   0  0  0  0  0  0  0  0  0  0  0  0
    4.6211    0.5112    1.0988 O   0  0  0  0  0  0  0  0  0  0  0  0
    2.4937    1.3129    0.4272 C   0  0  0  0  0  0  0  0  0  0  0  0
    1.1700    1.1067    0.0080 C   0  0  0  0  0  0  0  0  0  0  0  0
    0.3600    2.1580   -0.2601 F   0  0  0  0  0  0  0  0  0  0  0  0
   -2.8587    0.7456    1.5443 H   0  0  0  0  0  0  0  0  0  0  0  0
   -1.1098    1.0520    1.6764 H   0  0  0  0  0  0  0  0  0  0  0  0
   -2.1748    2.1222    0.5875 H   0  0  0  0  0  0  0  0  0  0  0  0
   -2.9874   -1.8542   -2.4726 H   0  0  0  0  0  0  0  0  0  0  0  0
   -0.3115   -1.8572   -2.1741 H   0  0  0  0  0  0  0  0  0  0  0  0
    1.1003   -2.2184   -0.0202 H   0  0  0  0  0  0  0  0  0  0  0  0
    3.4585   -1.8622    0.7262 H   0  0  0  0  0  0  0  0  0  0  0  0
    5.4226    0.5086    0.4576 H   0  0  0  0  0  0  0  0  0  0  0  0
    2.8467    2.3380    0.5409 H   0  0  0  0  0  0  0  0  0  0  0  0
  1  2  1  0
  2  3  1  0
  3  4  1  0
  4  5  3  0
  3  6  2  0
  6  7  1  0
  7  8  2  0
  8  9  1  0
  9 10  2  0
 10 11  1  0
 11 12  2  0
 12 13  1  0
 12 14  1  0
 14 15  2  0
 15 16  1  0
  8  2  1  0
 15  9  1  0
  1 17  1  0
  1 18  1  0
  1 19  1  0
  6 20  1  0
  7 21  1  0
 10 22  1  0
 11 23  1  0
 13 24  1  0
 14 25  1  0
M  END
$$$$
