@<TRIPOS>MOLECULE
*****
 48 51 0 0 0
SMALL
GASTEIGER

@<TRIPOS>ATOM
      1 C           7.0002   -0.0464    2.8238 C.3     1  UNL1       -0.0455
      2 C           6.7412   -0.6080    1.4413 C.3     1  UNL1        0.0387
      3 N           5.2908   -0.8066    1.3291 N.ar    1  UNL1       -0.2711
      4 C           4.3949    0.0887    0.8831 C.ar    1  UNL1        0.0347
      5 C           3.1360   -0.4511    0.9192 C.ar    1  UNL1        0.0379
      6 C           1.8666    0.2028    0.5156 C.ar    1  UNL1        0.0798
      7 C           1.8777    1.4928    0.0481 C.ar    1  UNL1       -0.0076
      8 C           0.6759    2.0729   -0.3167 C.ar    1  UNL1        0.0999
      9 N           0.3853    3.3099   -0.8039 N.ar    1  UNL1       -0.1712
     10 N          -0.9040    3.4249   -1.0114 N.ar    1  UNL1       -0.2732
     11 C          -1.6164    4.6113   -1.5356 C.3     1  UNL1        0.0302
     12 C          -1.4986    2.2716   -0.6682 C.ar    1  UNL1        0.0380
     13 C          -0.5187    1.4044   -0.2269 C.ar    1  UNL1        0.0812
     14 C          -0.5150    0.1017    0.2470 C.ar    1  UNL1        0.2265
     15 O          -1.6109   -0.6126    0.3662 O.3     1  UNL1       -0.4725
     16 C          -2.9051   -0.8258    0.2777 C.3     1  UNL1        0.1037
     17 C          -3.6212   -1.1774    1.5805 C.3     1  UNL1       -0.0274
     18 C          -3.3248   -1.9189   -0.7216 C.3     1  UNL1        0.0196
     19 C          -4.8117   -2.0577   -0.7174 C.3     1  UNL1        0.0182
     20 N          -5.2180   -2.2997   -2.1031 N.am    1  UNL1       -0.3149
     21 C          -4.2100   -1.7733   -2.9235 C.2     1  UNL1        0.2135
     22 O          -4.2385   -1.6512   -4.1599 O.2     1  UNL1       -0.2758
     23 C          -3.0421   -1.3571   -2.0911 C.3     1  UNL1        0.0315
     24 N           0.7118   -0.4178    0.5932 N.ar    1  UNL1       -0.2121
     25 C           3.2910   -1.7278    1.4100 C.ar    1  UNL1        0.0586
     26 N           4.6053   -1.8956    1.6420 N.ar    1  UNL1       -0.1790
     27 H           6.9089    1.0575    2.7645 H       1  UNL1        0.0247
     28 H           6.1953   -0.3875    3.5013 H       1  UNL1        0.0247
     29 H           8.0133   -0.3722    3.1357 H       1  UNL1        0.0247
     30 H           7.0891    0.1478    0.7105 H       1  UNL1        0.0506
     31 H           7.2986   -1.5502    1.2618 H       1  UNL1        0.0506
     32 H           4.6187    1.0893    0.5430 H       1  UNL1        0.0833
     33 H           2.7947    2.0443   -0.0348 H       1  UNL1        0.0661
     34 H          -1.8533    4.3842   -2.5970 H       1  UNL1        0.0473
     35 H          -1.0186    5.5168   -1.4498 H       1  UNL1        0.0473
     36 H          -2.5995    4.7069   -1.0145 H       1  UNL1        0.0473
     37 H          -2.5600    2.0409   -0.7204 H       1  UNL1        0.0834
     38 H          -3.4757    0.0726   -0.0965 H       1  UNL1        0.0734
     39 H          -3.9409   -2.2369    1.5596 H       1  UNL1        0.0265
     40 H          -4.5352   -0.5756    1.7465 H       1  UNL1        0.0265
     41 H          -2.8890   -1.0833    2.4365 H       1  UNL1        0.0265
     42 H          -2.8196   -2.8584   -0.5010 H       1  UNL1        0.0356
     43 H          -5.3565   -1.1760   -0.3749 H       1  UNL1        0.0466
     44 H          -5.1615   -2.9339   -0.1116 H       1  UNL1        0.0466
     45 H          -6.0857   -2.7698   -2.4128 H       1  UNL1        0.1487
     46 H          -2.0902   -1.7650   -2.4386 H       1  UNL1        0.0363
     47 H          -2.9562   -0.2538   -2.0671 H       1  UNL1        0.0363
     48 H           2.4815   -2.4515    1.5723 H       1  UNL1        0.0854
@<TRIPOS>BOND
     1     1     2    1
     2     2     3    1
     3     3     4   ar
     4     4     5   ar
     5     5     6    1
     6     6     7   ar
     7     7     8   ar
     8     8     9   ar
     9     9    10   ar
    10    10    11    1
    11    10    12   ar
    12    12    13   ar
    13    13    14   ar
    14    14    15    1
    15    15    16    1
    16    16    17    1
    17    16    18    1
    18    18    19    1
    19    19    20    1
    20    20    21   am
    21    21    22    2
    22    21    23    1
    23    14    24   ar
    24     5    25   ar
    25    25    26   ar
    26    26     3   ar
    27    24     6   ar
    28    13     8   ar
    29    23    18    1
    30     1    27    1
    31     1    28    1
    32     1    29    1
    33     2    30    1
    34     2    31    1
    35     4    32    1
    36     7    33    1
    37    11    34    1
    38    11    35    1
    39    11    36    1
    40    12    37    1
    41    16    38    1
    42    17    39    1
    43    17    40    1
    44    17    41    1
    45    18    42    1
    46    19    43    1
    47    19    44    1
    48    20    45    1
    49    23    46    1
    50    23    47    1
    51    25    48    1
