@<TRIPOS>MOLECULE
*****
 35 36 0 0 0
SMALL
GASTEIGER

@<TRIPOS>ATOM
      1 CA          4.1648   -0.2213   -0.4371 C.3     1  UNL1        0.1072
      2 N           3.8250   -0.7644    0.8424 N.3     1  UNL1       -0.3181
      3 C           3.2337    0.9095   -0.8311 C.3     1  UNL1       -0.0020
      4 C           1.8208    0.4625   -0.8918 C.ar    1  UNL1       -0.0453
      5 C           1.1347    0.5806    0.3247 C.ar    1  UNL1       -0.0578
      6 C          -0.1830    0.2011    0.3505 C.ar    1  UNL1       -0.0507
      7 C          -0.9436   -0.2953   -0.6855 C.ar    1  UNL1        0.0223
      8 C          -0.2031   -0.3871   -1.8498 C.ar    1  UNL1       -0.0507
      9 C           1.1173   -0.0296   -1.9694 C.ar    1  UNL1       -0.0578
     10 C          -2.3282   -0.6678   -0.7013 C.2     1  UNL1        0.1931
     11 O          -2.6641   -1.4307   -1.6700 O.2     1  UNL1       -0.2867
     12 C          -3.4639   -0.3769    0.1298 C.ar    1  UNL1        0.0223
     13 C          -3.5185   -0.1031    1.4779 C.ar    1  UNL1       -0.0509
     14 C          -4.6172    0.2397    2.2128 C.ar    1  UNL1       -0.0611
     15 C          -5.8267    0.3330    1.5739 C.ar    1  UNL1       -0.0617
     16 C          -5.8911    0.0802    0.2334 C.ar    1  UNL1       -0.0611
     17 C          -4.7368   -0.2641   -0.4591 C.ar    1  UNL1       -0.0509
     18 C           5.5517    0.3782   -0.2911 C.2     1  UNL1        0.3220
     19 O           6.1744    0.4236    0.9506 O.3     1  UNL1       -0.4795
     20 OXT         6.1878    0.8569   -1.2624 O.2     1  UNL1       -0.2492
     21 HA          4.1568   -0.9798   -1.2213 H       1  UNL1        0.0577
     22 H1          3.7326   -0.0653    1.5974 H       1  UNL1        0.1190
     23 H2          3.1108   -1.5119    0.8234 H       1  UNL1        0.1190
     24 H           3.3182    1.7292   -0.0883 H       1  UNL1        0.0334
     25 H           3.5034    1.3242   -1.8233 H       1  UNL1        0.0334
     26 H           1.6255    0.9554    1.2077 H       1  UNL1        0.0620
     27 H          -0.6362    0.3208    1.3171 H       1  UNL1        0.0625
     28 H          -0.6570   -0.7609   -2.7726 H       1  UNL1        0.0625
     29 H           1.6955   -0.1016   -2.8777 H       1  UNL1        0.0620
     30 H          -2.6277   -0.1705    2.0665 H       1  UNL1        0.0625
     31 H          -4.5845    0.4425    3.2734 H       1  UNL1        0.0618
     32 H          -6.7019    0.6021    2.1467 H       1  UNL1        0.0618
     33 H          -6.8522    0.1566   -0.2631 H       1  UNL1        0.0618
     34 H          -4.8992   -0.4415   -1.5041 H       1  UNL1        0.0625
     35 H           6.9818    1.0185    1.0708 H       1  UNL1        0.2951
@<TRIPOS>BOND
     1     1     2    1
     2     1     3    1
     3     3     4    1
     4     4     5   ar
     5     5     6   ar
     6     6     7   ar
     7     7     8   ar
     8     8     9   ar
     9     7    10    1
    10    10    11    2
    11    10    12    1
    12    12    13   ar
    13    13    14   ar
    14    14    15   ar
    15    15    16   ar
    16    16    17   ar
    17     1    18    1
    18    18    19    1
    19    18    20    2
    20     9     4   ar
    21    17    12   ar
    22     1    21    1
    23     2    22    1
    24     2    23    1
    25     3    24    1
    26     3    25    1
    27     5    26    1
    28     6    27    1
    29     8    28    1
    30     9    29    1
    31    13    30    1
    32    14    31    1
    33    15    32    1
    34    16    33    1
    35    17    34    1
    36    19    35    1
