
     RDKit          3D

 35 36  0  0  0  0  0  0  0  0999 V2000
    4.1648   -0.2213   -0.4371 C   0  0  1  0  0  0  0  0  0  0  0  0
    3.8250   -0.7644    0.8424 N   0  0  0  0  0  0  0  0  0  0  0  0
    3.2337    0.9095   -0.8311 C   0  0  0  0  0  0  0  0  0  0  0  0
    1.8208    0.4625   -0.8918 C   0  0  0  0  0  0  0  0  0  0  0  0
    1.1347    0.5806    0.3247 C   0  0  0  0  0  0  0  0  0  0  0  0
   -0.1830    0.2011    0.3505 C   0  0  0  0  0  0  0  0  0  0  0  0
   -0.9436   -0.2953   -0.6855 C   0  0  0  0  0  0  0  0  0  0  0  0
   -0.2031   -0.3871   -1.8498 C   0  0  0  0  0  0  0  0  0  0  0  0
    1.1173   -0.0296   -1.9694 C   0  0  0  0  0  0  0  0  0  0  0  0
   -2.3282   -0.6678   -0.7013 C   0  0  0  0  0  0  0  0  0  0  0  0
   -2.6641   -1.4307   -1.6700 O   0  0  0  0  0  0  0  0  0  0  0  0
   -3.4639   -0.3769    0.1298 C   0  0  0  0  0  0  0  0  0  0  0  0
   -3.5185   -0.1031    1.4779 C   0  0  0  0  0  0  0  0  0  0  0  0
   -4.6172    0.2397    2.2128 C   0  0  0  0  0  0  0  0  0  0  0  0
   -5.8267    0.3330    1.5739 C   0  0  0  0  0  0  0  0  0  0  0  0
   -5.8911    0.0802    0.2334 C   0  0  0  0  0  0  0  0  0  0  0  0
   -4.7368   -0.2641   -0.4591 C   0  0  0  0  0  0  0  0  0  0  0  0
    5.5517    0.3782   -0.2911 C   0  0  0  0  0  0  0  0  0  0  0  0
    6.1744    0.4236    0.9506 O   0  0  0  0  0  0  0  0  0  0  0  0
    6.1878    0.8569   -1.2624 O   0  0  0  0  0  0  0  0  0  0  0  0
    4.1568   -0.9798   -1.2213 H   0  0  0  0  0  0  0  0  0  0  0  0
    3.7326   -0.0653    1.5974 H   0  0  0  0  0  0  0  0  0  0  0  0
    3.1108   -1.5119    0.8234 H   0  0  0  0  0  0  0  0  0  0  0  0
    3.3182    1.7292   -0.0883 H   0  0  0  0  0  0  0  0  0  0  0  0
    3.5034    1.3242   -1.8233 H   0  0  0  0  0  0  0  0  0  0  0  0
    1.6255    0.9554    1.2077 H   0  0  0  0  0  0  0  0  0  0  0  0
   -0.6362    0.3208    1.3171 H   0  0  0  0  0  0  0  0  0  0  0  0
   -0.6570   -0.7609   -2.7726 H   0  0  0  0  0  0  0  0  0  0  0  0
    1.6955   -0.1016   -2.8777 H   0  0  0  0  0  0  0  0  0  0  0  0
   -2.6277   -0.1705    2.0665 H   0  0  0  0  0  0  0  0  0  0  0  0
   -4.5845    0.4425    3.2734 H   0  0  0  0  0  0  0  0  0  0  0  0
   -6.7019    0.6021    2.1467 H   0  0  0  0  0  0  0  0  0  0  0  0
   -6.8522    0.1566   -0.2631 H   0  0  0  0  0  0  0  0  0  0  0  0
   -4.8992   -0.4415   -1.5041 H   0  0  0  0  0  0  0  0  0  0  0  0
    6.9818    1.0185    1.0708 H   0  0  0  0  0  0  0  0  0  0  0  0
  1  2  1  0
  1  3  1  0
  3  4  1  0
  4  5  2  0
  5  6  1  0
  6  7  2  0
  7  8  1  0
  8  9  2  0
  7 10  1  0
 10 11  2  0
 10 12  1  0
 12 13  2  0
 13 14  1  0
 14 15  2  0
 15 16  1  0
 16 17  2  0
  1 18  1  0
 18 19  1  0
 18 20  2  0
  9  4  1  0
 17 12  1  0
  1 21  1  6
  2 22  1  0
  2 23  1  0
  3 24  1  0
  3 25  1  0
  5 26  1  0
  6 27  1  0
  8 28  1  0
  9 29  1  0
 13 30  1  0
 14 31  1  0
 15 32  1  0
 16 33  1  0
 17 34  1  0
 19 35  1  0
M  END
$$$$
