@<TRIPOS>MOLECULE
*****
 41 43 0 0 0
SMALL
GASTEIGER

@<TRIPOS>ATOM
      1 O           1.8130   -0.6034    0.3498 O.2     1  UNL1       -0.2750
      2 C           1.9751    0.0386   -0.6993 C.2     1  UNL1        0.2245
      3 C           0.9275   -0.0324   -1.7881 C.3     1  UNL1        0.0824
      4 C          -0.1749   -0.9267   -1.3524 C.ar    1  UNL1        0.1206
      5 N          -1.1968   -0.4027   -0.6962 N.ar    1  UNL1       -0.2186
      6 C          -2.2626   -1.1165   -0.2469 C.ar    1  UNL1        0.1285
      7 N          -3.2917   -0.4589    0.4377 N.pl3   1  UNL1       -0.3106
      8 C          -4.4675   -1.0801    0.9739 C.3     1  UNL1        0.0370
      9 C          -5.6513   -0.5435    0.1636 C.3     1  UNL1        0.0634
     10 O          -5.3402    0.7092   -0.3613 O.3     1  UNL1       -0.3767
     11 C          -4.6313    1.5080    0.5086 C.3     1  UNL1        0.0634
     12 C          -3.1963    0.9939    0.6446 C.3     1  UNL1        0.0370
     13 C          -2.2325   -2.4589   -0.5138 C.ar    1  UNL1        0.0427
     14 C          -1.1606   -2.9898   -1.1986 C.ar    1  UNL1        0.2533
     15 O          -1.1020   -4.2270   -1.4613 O.2     1  UNL1       -0.2677
     16 N          -0.1214   -2.2401   -1.6267 N.ar    1  UNL1       -0.3104
     17 N           3.1082    0.8470   -0.9337 N.am    1  UNL1       -0.2851
     18 C           4.1617    1.0132   -0.0218 C.ar    1  UNL1        0.0344
     19 C           4.2784    0.4486    1.2049 C.ar    1  UNL1       -0.0404
     20 C           5.3505    0.6568    2.0576 C.ar    1  UNL1       -0.0590
     21 C           6.3717    1.4768    1.6694 C.ar    1  UNL1       -0.0476
     22 C           6.2992    2.0751    0.4295 C.ar    1  UNL1        0.0196
     23 BR          7.7360    3.2097   -0.0797 Br      1  UNL1       -0.0502
     24 C           5.2217    1.8508   -0.3983 C.ar    1  UNL1       -0.0265
     25 H           1.4512   -0.4414   -2.6845 H       1  UNL1        0.0438
     26 H           0.5680    0.9895   -2.0194 H       1  UNL1        0.0438
     27 H          -4.6110   -0.7220    2.0351 H       1  UNL1        0.0487
     28 H          -4.4441   -2.1662    0.9623 H       1  UNL1        0.0487
     29 H          -6.5535   -0.5058    0.7790 H       1  UNL1        0.0575
     30 H          -5.7938   -1.2331   -0.6789 H       1  UNL1        0.0575
     31 H          -4.5579    2.5118    0.0639 H       1  UNL1        0.0575
     32 H          -5.1199    1.5521    1.5245 H       1  UNL1        0.0575
     33 H          -2.8874    1.2239    1.6737 H       1  UNL1        0.0487
     34 H          -2.5788    1.4362   -0.1370 H       1  UNL1        0.0487
     35 H          -3.0463   -3.0832   -0.1857 H       1  UNL1        0.0706
     36 H           0.6789   -2.6575   -2.1418 H       1  UNL1        0.1700
     37 H           3.1469    1.3656   -1.8892 H       1  UNL1        0.1548
     38 H           3.5216   -0.1982    1.5682 H       1  UNL1        0.0636
     39 H           5.3774    0.1815    3.0067 H       1  UNL1        0.0618
     40 H           7.2431    1.6664    2.3231 H       1  UNL1        0.0629
     41 H           5.1916    2.3327   -1.3640 H       1  UNL1        0.0647
@<TRIPOS>BOND
     1     1     2    2
     2     2     3    1
     3     3     4    1
     4     4     5   ar
     5     5     6   ar
     6     6     7    1
     7     7     8    1
     8     8     9    1
     9     9    10    1
    10    10    11    1
    11    11    12    1
    12     6    13   ar
    13    13    14   ar
    14    14    15    2
    15    14    16   ar
    16     2    17   am
    17    17    18    1
    18    18    19   ar
    19    19    20   ar
    20    20    21   ar
    21    21    22   ar
    22    22    23    1
    23    22    24   ar
    24    16     4   ar
    25    24    18   ar
    26    12     7    1
    27     3    25    1
    28     3    26    1
    29     8    27    1
    30     8    28    1
    31     9    29    1
    32     9    30    1
    33    11    31    1
    34    11    32    1
    35    12    33    1
    36    12    34    1
    37    13    35    1
    38    16    36    1
    39    17    37    1
    40    19    38    1
    41    20    39    1
    42    21    40    1
    43    24    41    1
