@<TRIPOS>MOLECULE
*****
 44 46 0 0 0
SMALL
GASTEIGER

@<TRIPOS>ATOM
      1 C           2.4554   -1.5508    0.5337 C.3     1  UNL1       -0.0352
      2 C           2.6956   -0.0276    0.4571 C.3     1  UNL1        0.0966
      3 C           1.3244    0.5843    0.4400 C.ar    1  UNL1        0.0359
      4 C           0.1576   -0.1220    0.4872 C.ar    1  UNL1       -0.0292
      5 C          -1.1234    0.5214    0.2820 C.ar    1  UNL1        0.0525
      6 N          -2.2707   -0.2714    0.2063 N.am    1  UNL1       -0.2789
      7 C          -3.5772   -0.2753    0.1086 C.2     1  UNL1        0.2666
      8 O          -3.6105    1.4139    0.0727 O.2     1  UNL1       -0.2682
      9 C          -4.9430   -0.2716    0.0063 C.ar    1  UNL1        0.1257
     10 C          -5.4012   -0.5510   -1.2861 C.ar    1  UNL1       -0.0300
     11 C          -6.6040   -1.0538   -1.5528 C.ar    1  UNL1       -0.0407
     12 C          -7.4936   -1.3434   -0.5146 C.ar    1  UNL1        0.0699
     13 C          -8.6241   -1.9670   -0.7419 C.1     1  UNL1        0.1007
     14 N          -9.8611   -2.6362   -0.9878 N.1     1  UNL1       -0.1908
     15 C          -7.0649   -1.0357    0.7532 C.ar    1  UNL1        0.0458
     16 N          -5.8181   -0.4864    1.0833 N.ar    1  UNL1       -0.2491
     17 C          -1.0190    1.8384    0.0754 C.ar    1  UNL1        0.0519
     18 N           0.0975    2.5803    0.0173 N.ar    1  UNL1       -0.2255
     19 C           1.2604    1.9892    0.1867 C.ar    1  UNL1        0.2188
     20 F           2.4543    2.6677    0.0933 F       1  UNL1       -0.1835
     21 C           3.6138    0.4759    1.4725 C.3     1  UNL1        0.0224
     22 C           4.9372    1.0008    1.1430 C.3     1  UNL1        0.1997
     23 C           6.0788    0.1478    1.7282 C.3     1  UNL1        0.4266
     24 F           7.3104    0.6787    1.4372 F       1  UNL1       -0.1669
     25 F           5.8943   -0.0917    3.0350 F       1  UNL1       -0.1669
     26 F           6.0598   -1.0850    1.0175 F       1  UNL1       -0.1669
     27 O           5.3036    1.1285   -0.2413 O.2     1  UNL1       -0.4534
     28 C           4.3134    0.6637   -1.1121 C.2     1  UNL1        0.2765
     29 N           4.7135    0.8726   -2.5446 N.pl3   1  UNL1       -0.3134
     30 N           3.2397    0.1772   -0.9273 N.2     1  UNL1       -0.2256
     31 H           1.8659   -1.7963    1.4199 H       1  UNL1        0.0256
     32 H           1.9279   -1.8928   -0.3647 H       1  UNL1        0.0256
     33 H           3.4030   -2.0994    0.5636 H       1  UNL1        0.0256
     34 H           0.1232   -1.1558    0.7305 H       1  UNL1        0.0641
     35 H          -1.9736   -1.4228    0.1601 H       1  UNL1        0.1552
     36 H          -4.6914   -0.3715   -2.1386 H       1  UNL1        0.0641
     37 H          -6.9609   -1.3447   -2.5431 H       1  UNL1        0.0631
     38 H          -7.7387   -1.1441    1.5885 H       1  UNL1        0.0843
     39 H          -1.9505    2.4215   -0.0909 H       1  UNL1        0.0849
     40 H           3.0425    1.1131    2.2470 H       1  UNL1        0.0330
     41 H           3.8298   -0.4260    2.1454 H       1  UNL1        0.0330
     42 H           5.0678    2.0420    1.5826 H       1  UNL1        0.0826
     43 H           4.5309    1.9074   -2.7702 H       1  UNL1        0.1466
     44 H           5.0255    0.1980   -3.1630 H       1  UNL1        0.1466
@<TRIPOS>BOND
     1     2     1    1
     2     2     3    1
     3     3     4   ar
     4     4     5   ar
     5     5     6    1
     6     6     7   am
     7     7     8    2
     8     7     9    1
     9     9    10   ar
    10    10    11   ar
    11    11    12   ar
    12    12    13    1
    13    13    14    3
    14    12    15   ar
    15    15    16   ar
    16     5    17   ar
    17    17    18   ar
    18    18    19   ar
    19    19    20    1
    20     2    21    1
    21    21    22    1
    22    22    23    1
    23    23    24    1
    24    23    25    1
    25    23    26    1
    26    22    27    1
    27    27    28    1
    28    28    29    1
    29    28    30    2
    30    30     2    1
    31    19     3   ar
    32    16     9   ar
    33     1    31    1
    34     1    32    1
    35     1    33    1
    36     4    34    1
    37     6    35    1
    38    10    36    1
    39    11    37    1
    40    15    38    1
    41    17    39    1
    42    21    40    1
    43    21    41    1
    44    22    42    1
    45    29    43    1
    46    29    44    1
