@<TRIPOS>MOLECULE
*****
 37 39 0 0 0
SMALL
GASTEIGER

@<TRIPOS>ATOM
      1 C          -0.9348    0.0897   -0.7879 C.3     1  UNL1        0.1355
      2 N           0.3269   -0.5099   -1.1090 N.3     1  UNL1       -0.2817
      3 C           1.0299    0.1301   -2.1696 C.3     1  UNL1        0.0048
      4 C           2.4787   -0.2968   -2.2634 C.3     1  UNL1       -0.0083
      5 C           3.0490    0.0703   -0.9222 C.ar    1  UNL1       -0.0046
      6 C           2.3203   -0.3301    0.2012 C.ar    1  UNL1       -0.0231
      7 C           1.0662   -1.0823   -0.0596 C.3     1  UNL1        0.0259
      8 C           2.8290   -0.0001    1.4120 C.ar    1  UNL1       -0.0501
      9 C           4.0778    0.7351    1.4152 C.ar    1  UNL1       -0.0238
     10 S           4.4422    0.9026   -0.4332 S.2     1  UNL1       -0.1012
     11 C          -0.6680    1.3733   -0.1196 C.2     1  UNL1        0.3289
     12 O           0.4874    1.7879    0.1370 O.2     1  UNL1       -0.2487
     13 O          -1.0135    2.5628    0.4770 O.3     1  UNL1       -0.4666
     14 C          -0.0735    3.4560    0.9704 C.3     1  UNL1        0.0817
     15 C          -1.9117   -0.7653   -0.1294 C.ar    1  UNL1       -0.0012
     16 C          -1.8037   -2.1241    0.0780 C.ar    1  UNL1       -0.0552
     17 C          -2.7297   -2.9368    0.6965 C.ar    1  UNL1       -0.0614
     18 C          -3.8898   -2.3613    1.1643 C.ar    1  UNL1       -0.0604
     19 C          -4.0532   -0.9991    0.9830 C.ar    1  UNL1       -0.0431
     20 C          -3.0882   -0.2410    0.3555 C.ar    1  UNL1        0.0462
     21 CL         -3.5432    1.4436    0.2329 Cl      1  UNL1       -0.0832
     22 H          -1.4060    0.3400   -1.8036 H       1  UNL1        0.0630
     23 H           0.4886   -0.0535   -3.1261 H       1  UNL1        0.0430
     24 H           1.0107    1.2213   -2.0126 H       1  UNL1        0.0430
     25 H           2.9660    0.2948   -3.0635 H       1  UNL1        0.0331
     26 H           2.5000   -1.3718   -2.4554 H       1  UNL1        0.0331
     27 H           0.3919   -1.0742    0.8507 H       1  UNL1        0.0476
     28 H           1.3686   -2.1422   -0.2112 H       1  UNL1        0.0476
     29 H           2.4066   -0.2245    2.3810 H       1  UNL1        0.0626
     30 H           4.5971    1.0656    2.3887 H       1  UNL1        0.0693
     31 H          -0.6692    4.3342    1.3656 H       1  UNL1        0.0661
     32 H           0.5520    3.9016    0.1544 H       1  UNL1        0.0661
     33 H           0.5297    3.0782    1.8118 H       1  UNL1        0.0661
     34 H          -0.9316   -2.6578   -0.2702 H       1  UNL1        0.0621
     35 H          -2.5831   -4.0000    0.8282 H       1  UNL1        0.0618
     36 H          -4.6242   -2.9844    1.6510 H       1  UNL1        0.0618
     37 H          -4.9952   -0.6316    1.3819 H       1  UNL1        0.0632
@<TRIPOS>BOND
     1     1     2    1
     2     2     3    1
     3     3     4    1
     4     4     5    1
     5     5     6   ar
     6     6     7    1
     7     6     8   ar
     8     8     9   ar
     9     9    10   ar
    10     1    11    1
    11    11    12    2
    12    11    13    1
    13    13    14    1
    14     1    15    1
    15    15    16   ar
    16    16    17   ar
    17    17    18   ar
    18    18    19   ar
    19    19    20   ar
    20    20    21    1
    21     7     2    1
    22    20    15   ar
    23    10     5   ar
    24     1    22    1
    25     3    23    1
    26     3    24    1
    27     4    25    1
    28     4    26    1
    29     7    27    1
    30     7    28    1
    31     8    29    1
    32     9    30    1
    33    14    31    1
    34    14    32    1
    35    14    33    1
    36    16    34    1
    37    17    35    1
    38    18    36    1
    39    19    37    1
