@<TRIPOS>MOLECULE
*****
 63 68 0 0 0
SMALL
GASTEIGER

@<TRIPOS>ATOM
      1 C          12.1100    0.2412   -0.1185 C.3     1  UNL1        0.0788
      2 O          11.2752    1.3389   -0.3113 O.3     1  UNL1       -0.4951
      3 C           9.9131    1.3995   -0.1332 C.ar    1  UNL1        0.1201
      4 C           9.2690    2.5927   -0.3822 C.ar    1  UNL1       -0.0192
      5 C           7.8826    2.6611   -0.1988 C.ar    1  UNL1       -0.0460
      6 C           7.1511    1.5781    0.2186 C.ar    1  UNL1        0.0387
      7 C           5.7031    1.6030    0.4181 C.ar    1  UNL1        0.2489
      8 N           4.8630    2.6017    0.1868 N.ar    1  UNL1       -0.1068
      9 N           3.6309    2.1840    0.5141 N.ar    1  UNL1       -0.1021
     10 C           3.7184    0.9138    0.9497 C.ar    1  UNL1        0.3042
     11 C           2.7459   -0.0229    1.4283 C.2     1  UNL1        0.3035
     12 O           2.2637    0.2106    2.5912 O.2     1  UNL1       -0.2647
     13 N           2.2882   -1.1489    0.7429 N.am    1  UNL1       -0.2865
     14 C           1.3233   -2.2258    1.0554 C.3     1  UNL1        0.0538
     15 C           0.9744   -2.1305   -0.4609 C.3     1  UNL1        0.1314
     16 O           0.1692   -1.0060   -0.6370 O.3     1  UNL1       -0.4857
     17 C          -1.2062   -1.0727   -0.6630 C.ar    1  UNL1        0.1211
     18 C          -1.9493    0.0992   -0.8898 C.ar    1  UNL1       -0.0196
     19 C          -3.3231    0.0698   -0.9151 C.ar    1  UNL1       -0.0539
     20 C          -4.0561   -1.0794   -0.7245 C.ar    1  UNL1       -0.0331
     21 C          -5.5465   -1.1190   -0.7513 C.3     1  UNL1        0.0242
     22 N          -6.0910   -0.8304    0.5411 N.3     1  UNL1       -0.2926
     23 C          -7.5368   -1.0050    0.5735 C.3     1  UNL1        0.0297
     24 C          -7.7119    0.4524    0.2958 C.3     1  UNL1        0.0948
     25 C          -7.9404    0.8508   -1.1277 C.3     1  UNL1       -0.0192
     26 C          -9.2522    1.6373   -1.0476 C.3     1  UNL1       -0.0267
     27 C          -9.8262    1.0701    0.2346 C.3     1  UNL1        0.0486
     28 O          -8.7005    1.0758    1.0571 O.3     1  UNL1       -0.3708
     29 C          -6.3147    0.5727    0.8417 C.3     1  UNL1        0.0297
     30 C          -3.3071   -2.2353   -0.5017 C.ar    1  UNL1       -0.0539
     31 C          -1.9318   -2.2256   -0.4730 C.ar    1  UNL1       -0.0196
     32 C           2.4451   -1.8530   -0.5443 C.3     1  UNL1        0.0538
     33 O           5.0006    0.6151    0.8673 O.2     1  UNL1       -0.4123
     34 C           7.8439    0.3893    0.4571 C.ar    1  UNL1       -0.0460
     35 C           9.2074    0.3105    0.2803 C.ar    1  UNL1       -0.0192
     36 H          12.3242   -0.1814   -1.1455 H       1  UNL1        0.0660
     37 H          11.6892   -0.5705    0.4929 H       1  UNL1        0.0660
     38 H          13.0909    0.6060    0.3075 H       1  UNL1        0.0660
     39 H           9.8488    3.4409   -0.7098 H       1  UNL1        0.0654
     40 H           7.3713    3.5920   -0.3944 H       1  UNL1        0.0626
     41 H           1.8403   -3.1368    1.3175 H       1  UNL1        0.0502
     42 H           0.5370   -1.8195    1.6939 H       1  UNL1        0.0502
     43 H           0.6212   -3.1024   -0.7868 H       1  UNL1        0.0765
     44 H          -1.4145    1.0225   -1.0396 H       1  UNL1        0.0654
     45 H          -3.8750    1.0036   -1.1011 H       1  UNL1        0.0622
     46 H          -5.8891   -2.1597   -1.0238 H       1  UNL1        0.0476
     47 H          -5.8574   -0.4303   -1.5564 H       1  UNL1        0.0476
     48 H          -7.9342   -1.7278   -0.1381 H       1  UNL1        0.0455
     49 H          -7.8731   -1.2166    1.6265 H       1  UNL1        0.0455
     50 H          -8.1612    0.0018   -1.8072 H       1  UNL1        0.0294
     51 H          -7.1853    1.5523   -1.5046 H       1  UNL1        0.0294
     52 H          -9.8862    1.4270   -1.9312 H       1  UNL1        0.0288
     53 H          -9.0877    2.7141   -0.9030 H       1  UNL1        0.0288
     54 H         -10.6201    1.7147    0.6129 H       1  UNL1        0.0560
     55 H         -10.1438    0.0162    0.0769 H       1  UNL1        0.0560
     56 H          -5.7076    1.3136    0.3372 H       1  UNL1        0.0455
     57 H          -6.3855    0.7476    1.9514 H       1  UNL1        0.0455
     58 H          -3.8419   -3.1505   -0.3488 H       1  UNL1        0.0622
     59 H          -1.3590   -3.1399   -0.2988 H       1  UNL1        0.0654
     60 H           3.0724   -2.7552   -0.4501 H       1  UNL1        0.0502
     61 H           2.7868   -1.1777   -1.3459 H       1  UNL1        0.0502
     62 H           7.2677   -0.4701    0.7826 H       1  UNL1        0.0626
     63 H           9.6880   -0.6271    0.4789 H       1  UNL1        0.0654
@<TRIPOS>BOND
     1     1     2    1
     2     2     3    1
     3     3     4   ar
     4     4     5   ar
     5     5     6   ar
     6     6     7    1
     7     7     8   ar
     8     8     9   ar
     9     9    10   ar
    10    10    11    1
    11    11    12    2
    12    11    13   am
    13    13    14    1
    14    14    15    1
    15    15    16    1
    16    16    17    1
    17    17    18   ar
    18    18    19   ar
    19    19    20   ar
    20    20    21    1
    21    21    22    1
    22    22    23    1
    23    23    24    1
    24    24    25    1
    25    25    26    1
    26    26    27    1
    27    27    28    1
    28    24    29    1
    29    20    30   ar
    30    30    31   ar
    31    15    32    1
    32    10    33   ar
    33     6    34   ar
    34    34    35   ar
    35    35     3   ar
    36    33     7   ar
    37    32    13    1
    38    31    17   ar
    39    29    22    1
    40    28    24    1
    41     1    36    1
    42     1    37    1
    43     1    38    1
    44     4    39    1
    45     5    40    1
    46    14    41    1
    47    14    42    1
    48    15    43    1
    49    18    44    1
    50    19    45    1
    51    21    46    1
    52    21    47    1
    53    23    48    1
    54    23    49    1
    55    25    50    1
    56    25    51    1
    57    26    52    1
    58    26    53    1
    59    27    54    1
    60    27    55    1
    61    29    56    1
    62    29    57    1
    63    30    58    1
    64    31    59    1
    65    32    60    1
    66    32    61    1
    67    34    62    1
    68    35    63    1
