
     RDKit          3D

 63 68  0  0  0  0  0  0  0  0999 V2000
   12.1100    0.2412   -0.1185 C   0  0  0  0  0  0  0  0  0  0  0  0
   11.2752    1.3389   -0.3113 O   0  0  0  0  0  0  0  0  0  0  0  0
    9.9131    1.3995   -0.1332 C   0  0  0  0  0  0  0  0  0  0  0  0
    9.2690    2.5927   -0.3822 C   0  0  0  0  0  0  0  0  0  0  0  0
    7.8826    2.6611   -0.1988 C   0  0  0  0  0  0  0  0  0  0  0  0
    7.1511    1.5781    0.2186 C   0  0  0  0  0  0  0  0  0  0  0  0
    5.7031    1.6030    0.4181 C   0  0  0  0  0  0  0  0  0  0  0  0
    4.8630    2.6017    0.1868 N   0  0  0  0  0  0  0  0  0  0  0  0
    3.6309    2.1840    0.5141 N   0  0  0  0  0  0  0  0  0  0  0  0
    3.7184    0.9138    0.9497 C   0  0  0  0  0  0  0  0  0  0  0  0
    2.7459   -0.0229    1.4283 C   0  0  0  0  0  0  0  0  0  0  0  0
    2.2637    0.2106    2.5912 O   0  0  0  0  0  0  0  0  0  0  0  0
    2.2882   -1.1489    0.7429 N   0  0  0  0  0  0  0  0  0  0  0  0
    1.3233   -2.2258    1.0554 C   0  0  0  0  0  0  0  0  0  0  0  0
    0.9744   -2.1305   -0.4609 C   0  0  0  0  0  0  0  0  0  0  0  0
    0.1692   -1.0060   -0.6370 O   0  0  0  0  0  0  0  0  0  0  0  0
   -1.2062   -1.0727   -0.6630 C   0  0  0  0  0  0  0  0  0  0  0  0
   -1.9493    0.0992   -0.8898 C   0  0  0  0  0  0  0  0  0  0  0  0
   -3.3231    0.0698   -0.9151 C   0  0  0  0  0  0  0  0  0  0  0  0
   -4.0561   -1.0794   -0.7245 C   0  0  0  0  0  0  0  0  0  0  0  0
   -5.5465   -1.1190   -0.7513 C   0  0  0  0  0  0  0  0  0  0  0  0
   -6.0910   -0.8304    0.5411 N   0  0  0  0  0  0  0  0  0  0  0  0
   -7.5368   -1.0050    0.5735 C   0  0  0  0  0  0  0  0  0  0  0  0
   -7.7119    0.4524    0.2958 C   0  0  0  0  0  0  0  0  0  0  0  0
   -7.9404    0.8508   -1.1277 C   0  0  0  0  0  0  0  0  0  0  0  0
   -9.2522    1.6373   -1.0476 C   0  0  0  0  0  0  0  0  0  0  0  0
   -9.8262    1.0701    0.2346 C   0  0  0  0  0  0  0  0  0  0  0  0
   -8.7005    1.0758    1.0571 O   0  0  0  0  0  0  0  0  0  0  0  0
   -6.3147    0.5727    0.8417 C   0  0  0  0  0  0  0  0  0  0  0  0
   -3.3071   -2.2353   -0.5017 C   0  0  0  0  0  0  0  0  0  0  0  0
   -1.9318   -2.2256   -0.4730 C   0  0  0  0  0  0  0  0  0  0  0  0
    2.4451   -1.8530   -0.5443 C   0  0  0  0  0  0  0  0  0  0  0  0
    5.0006    0.6151    0.8673 O   0  0  0  0  0  0  0  0  0  0  0  0
    7.8439    0.3893    0.4571 C   0  0  0  0  0  0  0  0  0  0  0  0
    9.2074    0.3105    0.2803 C   0  0  0  0  0  0  0  0  0  0  0  0
   12.3242   -0.1814   -1.1455 H   0  0  0  0  0  0  0  0  0  0  0  0
   11.6892   -0.5705    0.4929 H   0  0  0  0  0  0  0  0  0  0  0  0
   13.0909    0.6060    0.3075 H   0  0  0  0  0  0  0  0  0  0  0  0
    9.8488    3.4409   -0.7098 H   0  0  0  0  0  0  0  0  0  0  0  0
    7.3713    3.5920   -0.3944 H   0  0  0  0  0  0  0  0  0  0  0  0
    1.8403   -3.1368    1.3175 H   0  0  0  0  0  0  0  0  0  0  0  0
    0.5370   -1.8195    1.6939 H   0  0  0  0  0  0  0  0  0  0  0  0
    0.6212   -3.1024   -0.7868 H   0  0  0  0  0  0  0  0  0  0  0  0
   -1.4145    1.0225   -1.0396 H   0  0  0  0  0  0  0  0  0  0  0  0
   -3.8750    1.0036   -1.1011 H   0  0  0  0  0  0  0  0  0  0  0  0
   -5.8891   -2.1597   -1.0238 H   0  0  0  0  0  0  0  0  0  0  0  0
   -5.8574   -0.4303   -1.5564 H   0  0  0  0  0  0  0  0  0  0  0  0
   -7.9342   -1.7278   -0.1381 H   0  0  0  0  0  0  0  0  0  0  0  0
   -7.8731   -1.2166    1.6265 H   0  0  0  0  0  0  0  0  0  0  0  0
   -8.1612    0.0018   -1.8072 H   0  0  0  0  0  0  0  0  0  0  0  0
   -7.1853    1.5523   -1.5046 H   0  0  0  0  0  0  0  0  0  0  0  0
   -9.8862    1.4270   -1.9312 H   0  0  0  0  0  0  0  0  0  0  0  0
   -9.0877    2.7141   -0.9030 H   0  0  0  0  0  0  0  0  0  0  0  0
  -10.6201    1.7147    0.6129 H   0  0  0  0  0  0  0  0  0  0  0  0
  -10.1438    0.0162    0.0769 H   0  0  0  0  0  0  0  0  0  0  0  0
   -5.7076    1.3136    0.3372 H   0  0  0  0  0  0  0  0  0  0  0  0
   -6.3855    0.7476    1.9514 H   0  0  0  0  0  0  0  0  0  0  0  0
   -3.8419   -3.1505   -0.3488 H   0  0  0  0  0  0  0  0  0  0  0  0
   -1.3590   -3.1399   -0.2988 H   0  0  0  0  0  0  0  0  0  0  0  0
    3.0724   -2.7552   -0.4501 H   0  0  0  0  0  0  0  0  0  0  0  0
    2.7868   -1.1777   -1.3459 H   0  0  0  0  0  0  0  0  0  0  0  0
    7.2677   -0.4701    0.7826 H   0  0  0  0  0  0  0  0  0  0  0  0
    9.6880   -0.6271    0.4789 H   0  0  0  0  0  0  0  0  0  0  0  0
  1  2  1  0
  2  3  1  0
  3  4  2  0
  4  5  1  0
  5  6  2  0
  6  7  1  0
  7  8  2  0
  8  9  1  0
  9 10  2  0
 10 11  1  0
 11 12  2  0
 11 13  1  0
 13 14  1  0
 14 15  1  0
 15 16  1  0
 16 17  1  0
 17 18  2  0
 18 19  1  0
 19 20  2  0
 20 21  1  0
 21 22  1  0
 22 23  1  0
 23 24  1  0
 24 25  1  0
 25 26  1  0
 26 27  1  0
 27 28  1  0
 24 29  1  0
 20 30  1  0
 30 31  2  0
 15 32  1  0
 10 33  1  0
  6 34  1  0
 34 35  2  0
 35  3  1  0
 33  7  1  0
 32 13  1  0
 31 17  1  0
 29 22  1  0
 28 24  1  0
  1 36  1  0
  1 37  1  0
  1 38  1  0
  4 39  1  0
  5 40  1  0
 14 41  1  0
 14 42  1  0
 15 43  1  0
 18 44  1  0
 19 45  1  0
 21 46  1  0
 21 47  1  0
 23 48  1  0
 23 49  1  0
 25 50  1  0
 25 51  1  0
 26 52  1  0
 26 53  1  0
 27 54  1  0
 27 55  1  0
 29 56  1  0
 29 57  1  0
 30 58  1  0
 31 59  1  0
 32 60  1  0
 32 61  1  0
 34 62  1  0
 35 63  1  0
M  END
$$$$
