
     RDKit          3D

 61 65  0  0  0  0  0  0  0  0999 V2000
   -9.0989    0.5733    0.1842 C   0  0  0  0  0  0  0  0  0  0  0  0
   -7.7324    1.1945    0.4035 C   0  0  0  0  0  0  0  0  0  0  0  0
   -6.9341    0.9537   -0.7559 N   0  0  0  0  0  0  0  0  0  0  0  0
   -6.6326   -0.4362   -0.8693 C   0  0  0  0  0  0  0  0  0  0  0  0
   -5.8224   -0.9836    0.2736 C   0  0  0  0  0  0  0  0  0  0  0  0
   -4.7676   -0.1351    0.7050 N   0  0  0  0  0  0  0  0  0  0  0  0
   -3.4458   -0.6904    0.5447 C   0  0  0  0  0  0  0  0  0  0  0  0
   -3.1625   -0.7880   -0.9174 C   0  0  0  0  0  0  0  0  0  0  0  0
   -1.7879   -1.3625   -1.1531 C   0  0  0  0  0  0  0  0  0  0  0  0
   -0.8402   -0.5051   -0.5461 O   0  0  0  0  0  0  0  0  0  0  0  0
    0.4930   -0.8137   -0.6320 C   0  0  0  0  0  0  0  0  0  0  0  0
    0.9017   -1.9383   -1.2983 C   0  0  0  0  0  0  0  0  0  0  0  0
    2.2456   -2.2483   -1.3852 C   0  0  0  0  0  0  0  0  0  0  0  0
    3.2233   -1.4358   -0.8038 C   0  0  0  0  0  0  0  0  0  0  0  0
    4.5507   -1.4944   -0.7390 N   0  0  0  0  0  0  0  0  0  0  0  0
    5.0565   -0.4199   -0.0347 C   0  0  0  0  0  0  0  0  0  0  0  0
    6.4684   -0.2687    0.2596 C   0  0  0  0  0  0  0  0  0  0  0  0
    7.2202   -1.4527    0.2723 C   0  0  0  0  0  0  0  0  0  0  0  0
    8.5734   -1.4371    0.5059 C   0  0  0  0  0  0  0  0  0  0  0  0
    9.2223   -0.2484    0.7339 C   0  0  0  0  0  0  0  0  0  0  0  0
    8.5084    0.9418    0.7264 C   0  0  0  0  0  0  0  0  0  0  0  0
    7.1546    0.8854    0.4867 C   0  0  0  0  0  0  0  0  0  0  0  0
    6.7211    2.2731    0.4540 C   0  0  0  0  0  0  0  0  0  0  0  0
    5.5786    2.7451    0.2604 O   0  0  0  0  0  0  0  0  0  0  0  0
    7.8287    3.1387    0.6805 N   0  0  0  0  0  0  0  0  0  0  0  0
    8.9748    2.3265    0.9454 C   0  0  0  0  0  0  0  0  0  0  0  0
    3.9463    0.2850    0.3201 C   0  0  0  0  0  0  0  0  0  0  0  0
    2.7672   -0.3223   -0.1479 C   0  0  0  0  0  0  0  0  0  0  0  0
    1.4321   -0.0104   -0.0592 C   0  0  0  0  0  0  0  0  0  0  0  0
   -4.9062    1.2425    0.4765 C   0  0  0  0  0  0  0  0  0  0  0  0
   -5.6882    1.6853   -0.7050 C   0  0  0  0  0  0  0  0  0  0  0  0
   -9.2901    0.5714   -0.9133 H   0  0  0  0  0  0  0  0  0  0  0  0
   -9.8586    1.1881    0.7114 H   0  0  0  0  0  0  0  0  0  0  0  0
   -9.0801   -0.4596    0.5657 H   0  0  0  0  0  0  0  0  0  0  0  0
   -7.9081    2.2999    0.5316 H   0  0  0  0  0  0  0  0  0  0  0  0
   -7.3072    0.7946    1.3358 H   0  0  0  0  0  0  0  0  0  0  0  0
   -6.1392   -0.6961   -1.8335 H   0  0  0  0  0  0  0  0  0  0  0  0
   -7.5997   -1.0119   -0.8747 H   0  0  0  0  0  0  0  0  0  0  0  0
   -5.3800   -1.9465   -0.0746 H   0  0  0  0  0  0  0  0  0  0  0  0
   -6.4823   -1.2461    1.1256 H   0  0  0  0  0  0  0  0  0  0  0  0
   -3.4776   -1.7026    1.0355 H   0  0  0  0  0  0  0  0  0  0  0  0
   -2.7322   -0.0376    1.0818 H   0  0  0  0  0  0  0  0  0  0  0  0
   -3.8806   -1.4660   -1.4244 H   0  0  0  0  0  0  0  0  0  0  0  0
   -3.2881    0.2060   -1.3622 H   0  0  0  0  0  0  0  0  0  0  0  0
   -1.7017   -2.3999   -0.7675 H   0  0  0  0  0  0  0  0  0  0  0  0
   -1.5737   -1.4537   -2.2562 H   0  0  0  0  0  0  0  0  0  0  0  0
    0.1994   -2.6280   -1.7813 H   0  0  0  0  0  0  0  0  0  0  0  0
    2.5724   -3.1343   -1.9106 H   0  0  0  0  0  0  0  0  0  0  0  0
    5.1403   -2.2459   -1.1612 H   0  0  0  0  0  0  0  0  0  0  0  0
    6.7316   -2.4184    0.0953 H   0  0  0  0  0  0  0  0  0  0  0  0
    9.1288   -2.3887    0.5075 H   0  0  0  0  0  0  0  0  0  0  0  0
   10.2784   -0.2216    0.9194 H   0  0  0  0  0  0  0  0  0  0  0  0
    7.8007    4.2010    0.6554 H   0  0  0  0  0  0  0  0  0  0  0  0
    9.8268    2.5377    0.2669 H   0  0  0  0  0  0  0  0  0  0  0  0
    9.2614    2.4892    2.0187 H   0  0  0  0  0  0  0  0  0  0  0  0
    3.9028    1.1772    0.9173 H   0  0  0  0  0  0  0  0  0  0  0  0
    1.1355    0.8722    0.4656 H   0  0  0  0  0  0  0  0  0  0  0  0
   -5.3244    1.7724    1.3835 H   0  0  0  0  0  0  0  0  0  0  0  0
   -3.8707    1.6857    0.3796 H   0  0  0  0  0  0  0  0  0  0  0  0
   -5.1617    1.6511   -1.6754 H   0  0  0  0  0  0  0  0  0  0  0  0
   -5.9702    2.7565   -0.5356 H   0  0  0  0  0  0  0  0  0  0  0  0
  1  2  1  0
  2  3  1  0
  3  4  1  0
  4  5  1  0
  5  6  1  0
  6  7  1  0
  7  8  1  0
  8  9  1  0
  9 10  1  0
 10 11  1  0
 11 12  2  0
 12 13  1  0
 13 14  2  0
 14 15  1  0
 15 16  1  0
 16 17  1  0
 17 18  2  0
 18 19  1  0
 19 20  2  0
 20 21  1  0
 21 22  2  0
 22 23  1  0
 23 24  2  0
 23 25  1  0
 25 26  1  0
 16 27  2  0
 27 28  1  0
 28 29  2  0
  6 30  1  0
 30 31  1  0
 31  3  1  0
 29 11  1  0
 28 14  1  0
 22 17  1  0
 26 21  1  0
  1 32  1  0
  1 33  1  0
  1 34  1  0
  2 35  1  0
  2 36  1  0
  4 37  1  0
  4 38  1  0
  5 39  1  0
  5 40  1  0
  7 41  1  0
  7 42  1  0
  8 43  1  0
  8 44  1  0
  9 45  1  0
  9 46  1  0
 12 47  1  0
 13 48  1  0
 15 49  1  0
 18 50  1  0
 19 51  1  0
 20 52  1  0
 25 53  1  0
 26 54  1  0
 26 55  1  0
 27 56  1  0
 29 57  1  0
 30 58  1  0
 30 59  1  0
 31 60  1  0
 31 61  1  0
M  END
$$$$
