@<TRIPOS>MOLECULE
*****
 61 65 0 0 0
SMALL
GASTEIGER

@<TRIPOS>ATOM
      1 C          -9.0989    0.5733    0.1842 C.3     1  UNL1       -0.0524
      2 C          -7.7324    1.1945    0.4035 C.3     1  UNL1       -0.0039
      3 N          -6.9341    0.9537   -0.7559 N.3     1  UNL1       -0.3002
      4 C          -6.6326   -0.4362   -0.8693 C.3     1  UNL1        0.0117
      5 C          -5.8224   -0.9836    0.2736 C.3     1  UNL1        0.0117
      6 N          -4.7676   -0.1351    0.7050 N.3     1  UNL1       -0.2998
      7 C          -3.4458   -0.6904    0.5447 C.3     1  UNL1        0.0021
      8 C          -3.1625   -0.7880   -0.9174 C.3     1  UNL1       -0.0058
      9 C          -1.7879   -1.3625   -1.1531 C.3     1  UNL1        0.0907
     10 O          -0.8402   -0.5051   -0.5461 O.3     1  UNL1       -0.4919
     11 C           0.4930   -0.8137   -0.6320 C.ar    1  UNL1        0.1212
     12 C           0.9017   -1.9383   -1.2983 C.ar    1  UNL1       -0.0180
     13 C           2.2456   -2.2483   -1.3852 C.ar    1  UNL1       -0.0343
     14 C           3.2233   -1.4358   -0.8038 C.ar    1  UNL1        0.0471
     15 N           4.5507   -1.4944   -0.7390 N.ar    1  UNL1       -0.3541
     16 C           5.0565   -0.4199   -0.0347 C.ar    1  UNL1        0.0482
     17 C           6.4684   -0.2687    0.2596 C.ar    1  UNL1        0.0107
     18 C           7.2202   -1.4527    0.2723 C.ar    1  UNL1       -0.0519
     19 C           8.5734   -1.4371    0.5059 C.ar    1  UNL1       -0.0608
     20 C           9.2223   -0.2484    0.7339 C.ar    1  UNL1       -0.0563
     21 C           8.5084    0.9418    0.7264 C.ar    1  UNL1       -0.0176
     22 C           7.1546    0.8854    0.4867 C.ar    1  UNL1        0.0504
     23 C           6.7211    2.2731    0.4540 C.2     1  UNL1        0.2453
     24 O           5.5786    2.7451    0.2604 O.2     1  UNL1       -0.2702
     25 N           7.8287    3.1387    0.6805 N.am    1  UNL1       -0.3072
     26 C           8.9748    2.3265    0.9454 C.3     1  UNL1        0.0379
     27 C           3.9463    0.2850    0.3201 C.ar    1  UNL1       -0.0285
     28 C           2.7672   -0.3223   -0.1479 C.ar    1  UNL1        0.0037
     29 C           1.4321   -0.0104   -0.0592 C.ar    1  UNL1       -0.0108
     30 C          -4.9062    1.2425    0.4765 C.3     1  UNL1        0.0117
     31 C          -5.6882    1.6853   -0.7050 C.3     1  UNL1        0.0117
     32 H          -9.2901    0.5714   -0.9133 H       1  UNL1        0.0242
     33 H          -9.8586    1.1881    0.7114 H       1  UNL1        0.0242
     34 H          -9.0801   -0.4596    0.5657 H       1  UNL1        0.0242
     35 H          -7.9081    2.2999    0.5316 H       1  UNL1        0.0424
     36 H          -7.3072    0.7946    1.3358 H       1  UNL1        0.0424
     37 H          -6.1392   -0.6961   -1.8335 H       1  UNL1        0.0439
     38 H          -7.5997   -1.0119   -0.8747 H       1  UNL1        0.0439
     39 H          -5.3800   -1.9465   -0.0746 H       1  UNL1        0.0439
     40 H          -6.4823   -1.2461    1.1256 H       1  UNL1        0.0439
     41 H          -3.4776   -1.7026    1.0355 H       1  UNL1        0.0428
     42 H          -2.7322   -0.0376    1.0818 H       1  UNL1        0.0428
     43 H          -3.8806   -1.4660   -1.4244 H       1  UNL1        0.0310
     44 H          -3.2881    0.2060   -1.3622 H       1  UNL1        0.0310
     45 H          -1.7017   -2.3999   -0.7675 H       1  UNL1        0.0697
     46 H          -1.5737   -1.4537   -2.2562 H       1  UNL1        0.0697
     47 H           0.1994   -2.6280   -1.7813 H       1  UNL1        0.0655
     48 H           2.5724   -3.1343   -1.9106 H       1  UNL1        0.0639
     49 H           5.1403   -2.2459   -1.1612 H       1  UNL1        0.1659
     50 H           6.7316   -2.4184    0.0953 H       1  UNL1        0.0624
     51 H           9.1288   -2.3887    0.5075 H       1  UNL1        0.0618
     52 H          10.2784   -0.2216    0.9194 H       1  UNL1        0.0621
     53 H           7.8007    4.2010    0.6554 H       1  UNL1        0.1493
     54 H           9.8268    2.5377    0.2669 H       1  UNL1        0.0512
     55 H           9.2614    2.4892    2.0187 H       1  UNL1        0.0512
     56 H           3.9028    1.1772    0.9173 H       1  UNL1        0.0645
     57 H           1.1355    0.8722    0.4656 H       1  UNL1        0.0661
     58 H          -5.3244    1.7724    1.3835 H       1  UNL1        0.0439
     59 H          -3.8707    1.6857    0.3796 H       1  UNL1        0.0439
     60 H          -5.1617    1.6511   -1.6754 H       1  UNL1        0.0439
     61 H          -5.9702    2.7565   -0.5356 H       1  UNL1        0.0439
@<TRIPOS>BOND
     1     1     2    1
     2     2     3    1
     3     3     4    1
     4     4     5    1
     5     5     6    1
     6     6     7    1
     7     7     8    1
     8     8     9    1
     9     9    10    1
    10    10    11    1
    11    11    12   ar
    12    12    13   ar
    13    13    14   ar
    14    14    15   ar
    15    15    16   ar
    16    16    17    1
    17    17    18   ar
    18    18    19   ar
    19    19    20   ar
    20    20    21   ar
    21    21    22   ar
    22    22    23    1
    23    23    24    2
    24    23    25   am
    25    25    26    1
    26    16    27   ar
    27    27    28   ar
    28    28    29   ar
    29     6    30    1
    30    30    31    1
    31    31     3    1
    32    29    11   ar
    33    28    14   ar
    34    22    17   ar
    35    26    21    1
    36     1    32    1
    37     1    33    1
    38     1    34    1
    39     2    35    1
    40     2    36    1
    41     4    37    1
    42     4    38    1
    43     5    39    1
    44     5    40    1
    45     7    41    1
    46     7    42    1
    47     8    43    1
    48     8    44    1
    49     9    45    1
    50     9    46    1
    51    12    47    1
    52    13    48    1
    53    15    49    1
    54    18    50    1
    55    19    51    1
    56    20    52    1
    57    25    53    1
    58    26    54    1
    59    26    55    1
    60    27    56    1
    61    29    57    1
    62    30    58    1
    63    30    59    1
    64    31    60    1
    65    31    61    1
