@<TRIPOS>MOLECULE
*****
 55 57 0 0 0
SMALL
GASTEIGER

@<TRIPOS>ATOM
      1 C          -4.3054   -0.0508    2.2259 C.3     1  UNL1       -0.0598
      2 C          -3.2905    1.0579    2.0838 C.3     1  UNL1       -0.0124
      3 C          -3.3772    1.5704    0.6928 C.ar    1  UNL1        0.0556
      4 N          -3.9940    2.7096    0.3323 N.ar    1  UNL1       -0.2190
      5 C          -4.0601    3.1495   -0.9370 C.ar    1  UNL1        0.2145
      6 N          -4.7255    4.3633   -1.2624 N.pl3   1  UNL1       -0.3274
      7 N          -3.4706    2.3994   -1.9040 N.ar    1  UNL1       -0.1995
      8 C          -2.8390    1.2508   -1.6035 C.ar    1  UNL1        0.1293
      9 N          -2.2515    0.5364   -2.6949 N.pl3   1  UNL1       -0.3425
     10 C          -2.7750    0.8005   -0.2792 C.ar    1  UNL1        0.0431
     11 C          -2.0563   -0.4462   -0.1274 C.ar    1  UNL1       -0.0111
     12 C          -2.5215   -1.7483   -0.1896 C.ar    1  UNL1       -0.0527
     13 C          -1.6571   -2.8084   -0.0126 C.ar    1  UNL1       -0.0459
     14 C          -0.3425   -2.5959    0.2241 C.ar    1  UNL1        0.0303
     15 S           0.6404   -4.0744    0.4316 S.3     1  UNL1       -0.1078
     16 C           2.3355   -3.5123    0.0889 C.3     1  UNL1        0.0919
     17 C           2.4860   -3.4667   -1.4063 C.3     1  UNL1       -0.0419
     18 C           3.3185   -4.4971    0.6628 C.3     1  UNL1       -0.0419
     19 C           2.4676   -2.1788    0.7203 C.2     1  UNL1        0.2357
     20 O           3.4654   -2.0018    1.5014 O.2     1  UNL1       -0.2737
     21 N           1.6043   -1.0795    0.5490 N.am    1  UNL1       -0.2677
     22 C           2.1089    0.3010    0.6176 C.3     1  UNL1        0.0354
     23 C           2.5455    0.8280   -0.7103 C.3     1  UNL1        0.0278
     24 N           3.0159    2.1864   -0.5244 N.am    1  UNL1       -0.3140
     25 C           4.0738    2.6254    0.2863 C.2     1  UNL1        0.2100
     26 C           4.4689    4.0539    0.4007 C.3     1  UNL1        0.0121
     27 O           4.7327    1.7923    0.9562 O.2     1  UNL1       -0.2761
     28 C           0.2095   -1.3250    0.3028 C.ar    1  UNL1        0.0503
     29 C          -0.6868   -0.2922    0.1205 C.ar    1  UNL1       -0.0313
     30 H          -5.1774    0.3683    2.8073 H       1  UNL1        0.0233
     31 H          -3.8941   -0.8625    2.8333 H       1  UNL1        0.0233
     32 H          -4.6514   -0.4222    1.2361 H       1  UNL1        0.0233
     33 H          -3.5575    1.8322    2.8297 H       1  UNL1        0.0326
     34 H          -2.3034    0.5947    2.2951 H       1  UNL1        0.0326
     35 H          -4.0587    5.0808   -0.8530 H       1  UNL1        0.1452
     36 H          -5.6323    4.3813   -1.7767 H       1  UNL1        0.1452
     37 H          -2.4998   -0.4417   -2.9931 H       1  UNL1        0.1437
     38 H          -1.5018    0.9808   -3.2825 H       1  UNL1        0.1437
     39 H          -3.5831   -1.8116   -0.3845 H       1  UNL1        0.0624
     40 H          -2.1143   -3.7856   -0.0786 H       1  UNL1        0.0629
     41 H           1.5404   -3.0860   -1.8792 H       1  UNL1        0.0248
     42 H           2.5163   -4.5424   -1.7460 H       1  UNL1        0.0248
     43 H           3.3363   -2.8796   -1.7623 H       1  UNL1        0.0248
     44 H           4.0078   -4.0035    1.4035 H       1  UNL1        0.0248
     45 H           2.7649   -5.3191    1.1502 H       1  UNL1        0.0248
     46 H           3.9698   -4.8959   -0.1541 H       1  UNL1        0.0248
     47 H           1.4805    0.9748    1.1906 H       1  UNL1        0.0484
     48 H           3.0568    0.2060    1.2317 H       1  UNL1        0.0484
     49 H           3.4411    0.2398   -1.0433 H       1  UNL1        0.0477
     50 H           1.7529    0.7973   -1.4567 H       1  UNL1        0.0477
     51 H           2.5277    2.9735   -1.0473 H       1  UNL1        0.1487
     52 H           5.4964    4.2505    0.0354 H       1  UNL1        0.0322
     53 H           3.7837    4.7177   -0.1663 H       1  UNL1        0.0322
     54 H           4.4162    4.3983    1.4536 H       1  UNL1        0.0322
     55 H          -0.2370    0.7068    0.1830 H       1  UNL1        0.0643
@<TRIPOS>BOND
     1     1     2    1
     2     2     3    1
     3     3     4   ar
     4     4     5   ar
     5     5     6    1
     6     5     7   ar
     7     7     8   ar
     8     8     9    1
     9     8    10   ar
    10    10    11    1
    11    11    12   ar
    12    12    13   ar
    13    13    14   ar
    14    14    15    1
    15    15    16    1
    16    16    17    1
    17    16    18    1
    18    16    19    1
    19    19    20    2
    20    19    21   am
    21    21    22    1
    22    22    23    1
    23    23    24    1
    24    24    25   am
    25    25    26    1
    26    25    27    2
    27    21    28    1
    28    28    29   ar
    29    10     3   ar
    30    29    11   ar
    31    28    14   ar
    32     1    30    1
    33     1    31    1
    34     1    32    1
    35     2    33    1
    36     2    34    1
    37     6    35    1
    38     6    36    1
    39     9    37    1
    40     9    38    1
    41    12    39    1
    42    13    40    1
    43    17    41    1
    44    17    42    1
    45    17    43    1
    46    18    44    1
    47    18    45    1
    48    18    46    1
    49    22    47    1
    50    22    48    1
    51    23    49    1
    52    23    50    1
    53    24    51    1
    54    26    52    1
    55    26    53    1
    56    26    54    1
    57    29    55    1
