@<TRIPOS>MOLECULE
*****
 40 43 0 0 0
SMALL
GASTEIGER

@<TRIPOS>ATOM
      1 C          -3.6689    1.3706   -1.1612 C.3     1  UNL1       -0.0126
      2 N          -2.6518    1.3852   -0.1353 N.3     1  UNL1       -0.3018
      3 C          -2.8344    0.3384    0.8088 C.3     1  UNL1        0.0144
      4 C          -2.0762   -0.9544    0.4492 C.3     1  UNL1        0.0256
      5 N          -0.6975   -0.5465    0.2720 N.pl3   1  UNL1       -0.3201
      6 C          -0.4255    0.8461    0.3959 C.3     1  UNL1        0.0617
      7 C          -1.3223    1.5077   -0.6647 C.3     1  UNL1        0.0214
      8 C           0.9544    1.2817    0.2850 C.ar    1  UNL1       -0.0224
      9 C           0.9000    2.6670    0.4915 C.ar    1  UNL1       -0.0565
     10 C           2.0520    3.4623    0.4613 C.ar    1  UNL1       -0.0614
     11 C           3.2774    2.8785    0.2232 C.ar    1  UNL1       -0.0615
     12 C           3.3643    1.5123    0.0155 C.ar    1  UNL1       -0.0579
     13 C           2.2052    0.7631    0.0532 C.ar    1  UNL1       -0.0380
     14 C           2.5441   -0.6296   -0.1896 C.3     1  UNL1       -0.0003
     15 C           1.4622   -1.6023   -0.1768 C.ar    1  UNL1       -0.0220
     16 C           2.1291   -2.8067   -0.4399 C.ar    1  UNL1       -0.0565
     17 C           1.4701   -4.0407   -0.5234 C.ar    1  UNL1       -0.0614
     18 C           0.1024   -4.0694   -0.3379 C.ar    1  UNL1       -0.0600
     19 C          -0.5272   -2.8698   -0.0807 C.ar    1  UNL1       -0.0404
     20 C           0.1181   -1.6555    0.0020 C.ar    1  UNL1        0.0338
     21 H          -3.5664    2.2027   -1.8609 H       1  UNL1        0.0391
     22 H          -3.6400    0.3897   -1.6640 H       1  UNL1        0.0391
     23 H          -4.6430    1.4131   -0.6308 H       1  UNL1        0.0391
     24 H          -3.9220    0.0200    0.7842 H       1  UNL1        0.0442
     25 H          -2.6764    0.6338    1.8573 H       1  UNL1        0.0442
     26 H          -2.2626   -1.5632    1.3539 H       1  UNL1        0.0476
     27 H          -2.5887   -1.2740   -0.4681 H       1  UNL1        0.0476
     28 H          -0.7809    1.1698    1.4185 H       1  UNL1        0.0562
     29 H          -1.0126    2.5145   -0.9264 H       1  UNL1        0.0448
     30 H          -1.2921    0.8501   -1.5779 H       1  UNL1        0.0448
     31 H          -0.0141    3.2499    0.6907 H       1  UNL1        0.0621
     32 H           2.0137    4.5301    0.6200 H       1  UNL1        0.0618
     33 H           4.1674    3.4883    0.1993 H       1  UNL1        0.0618
     34 H           4.3222    1.0457   -0.1721 H       1  UNL1        0.0620
     35 H           2.9951   -0.6764   -1.2265 H       1  UNL1        0.0362
     36 H           3.3915   -0.9963    0.4587 H       1  UNL1        0.0362
     37 H           3.1999   -2.9354   -0.6066 H       1  UNL1        0.0621
     38 H           1.9579   -4.9750   -0.7234 H       1  UNL1        0.0618
     39 H          -0.4358   -5.0062   -0.3961 H       1  UNL1        0.0618
     40 H          -1.5886   -2.9193    0.0588 H       1  UNL1        0.0636
@<TRIPOS>BOND
     1     1     2    1
     2     2     3    1
     3     3     4    1
     4     4     5    1
     5     5     6    1
     6     6     7    1
     7     6     8    1
     8     8     9   ar
     9     9    10   ar
    10    10    11   ar
    11    11    12   ar
    12    12    13   ar
    13    13    14    1
    14    14    15    1
    15    15    16   ar
    16    16    17   ar
    17    17    18   ar
    18    18    19   ar
    19    19    20   ar
    20     7     2    1
    21    13     8   ar
    22    20    15   ar
    23    20     5    1
    24     1    21    1
    25     1    22    1
    26     1    23    1
    27     3    24    1
    28     3    25    1
    29     4    26    1
    30     4    27    1
    31     6    28    1
    32     7    29    1
    33     7    30    1
    34     9    31    1
    35    10    32    1
    36    11    33    1
    37    12    34    1
    38    14    35    1
    39    14    36    1
    40    16    37    1
    41    17    38    1
    42    18    39    1
    43    19    40    1
