@<TRIPOS>MOLECULE
*****
 63 66 0 0 0
SMALL
GASTEIGER

@<TRIPOS>ATOM
      1 C           0.3322    2.3323   -3.3839 C.3     1  UNL1       -0.0421
      2 C          -0.0486    1.0496   -2.6957 C.3     1  UNL1        0.0515
      3 C           1.1417    0.2956   -2.2304 C.ar    1  UNL1       -0.0271
      4 C           2.4330    0.7128   -2.2651 C.ar    1  UNL1       -0.0562
      5 C           3.5405    0.0132   -1.8650 C.ar    1  UNL1       -0.0523
      6 C           3.3509   -1.2749   -1.3594 C.ar    1  UNL1        0.0004
      7 C           4.4752   -2.1048   -0.8982 C.ar    1  UNL1        0.0710
      8 C           5.7814   -1.6889   -0.9243 C.ar    1  UNL1       -0.0345
      9 C           6.8026   -2.4962   -0.5029 C.ar    1  UNL1       -0.0409
     10 C           6.5390   -3.8194   -0.0161 C.ar    1  UNL1        0.0699
     11 C           7.5779   -4.6610    0.3875 C.1     1  UNL1        0.1007
     12 N           8.4635   -5.3864    0.7419 N.1     1  UNL1       -0.1908
     13 C           5.2131   -4.1602   -0.0199 C.ar    1  UNL1        0.0456
     14 N           4.2520   -3.3388   -0.4384 N.ar    1  UNL1       -0.2537
     15 C           2.0669   -1.7166   -1.3141 C.ar    1  UNL1       -0.0523
     16 C           0.9688   -1.0249   -1.7104 C.ar    1  UNL1       -0.0562
     17 N          -1.0296    1.2016   -1.6564 N.am    1  UNL1       -0.2605
     18 C          -0.8258    2.0830   -0.5057 C.3     1  UNL1        0.0224
     19 C          -1.1873    1.3618    0.7675 C.3     1  UNL1        0.0076
     20 C          -2.4821    0.6419    0.7435 C.3     1  UNL1        0.1440
     21 C          -3.4619    1.2441    1.6977 C.3     1  UNL1        0.0199
     22 C          -3.8529    2.6558    1.5010 C.3     1  UNL1        0.0645
     23 C          -4.4743    2.9104    0.1380 C.3     1  UNL1       -0.0362
     24 C          -2.9150    3.7145    1.9577 C.3     1  UNL1       -0.0362
     25 O          -5.0001    2.8216    2.3765 O.3     1  UNL1       -0.3890
     26 C          -2.1923   -0.7426    1.3258 C.ar    1  UNL1       -0.0040
     27 C          -2.8305   -1.8255    0.6886 C.ar    1  UNL1       -0.0548
     28 C          -2.5885   -3.0960    1.2272 C.ar    1  UNL1       -0.0614
     29 C          -1.7686   -3.2773    2.3253 C.ar    1  UNL1       -0.0617
     30 C          -1.1864   -2.1735    2.8851 C.ar    1  UNL1       -0.0614
     31 C          -1.3938   -0.8839    2.3861 C.ar    1  UNL1       -0.0548
     32 O          -3.0124    0.4794   -0.5478 O.3     1  UNL1       -0.4387
     33 C          -2.2757    0.5360   -1.7147 C.2     1  UNL1        0.4042
     34 O          -2.7002    0.0121   -2.8022 O.2     1  UNL1       -0.2262
     35 H           0.8301    2.9830   -2.6305 H       1  UNL1        0.0251
     36 H          -0.5369    2.8310   -3.8622 H       1  UNL1        0.0251
     37 H           1.0897    2.1442   -4.1895 H       1  UNL1        0.0251
     38 H          -0.4834    0.3791   -3.5156 H       1  UNL1        0.0549
     39 H           2.5964    1.7423   -2.6598 H       1  UNL1        0.0621
     40 H           4.5382    0.4015   -1.9161 H       1  UNL1        0.0624
     41 H           5.9976   -0.6753   -1.2912 H       1  UNL1        0.0639
     42 H           7.8274   -2.2066   -0.5126 H       1  UNL1        0.0631
     43 H           4.9814   -5.1736    0.3516 H       1  UNL1        0.0843
     44 H           1.9579   -2.7530   -0.9012 H       1  UNL1        0.0624
     45 H          -0.0166   -1.3999   -1.6599 H       1  UNL1        0.0621
     46 H           0.2321    2.3907   -0.4185 H       1  UNL1        0.0467
     47 H          -1.3970    2.9892   -0.7060 H       1  UNL1        0.0467
     48 H          -1.0803    2.0744    1.6088 H       1  UNL1        0.0322
     49 H          -0.3200    0.6269    0.9217 H       1  UNL1        0.0322
     50 H          -4.4464    0.6542    1.6762 H       1  UNL1        0.0335
     51 H          -3.1323    1.0969    2.7566 H       1  UNL1        0.0335
     52 H          -3.7792    2.8401   -0.6970 H       1  UNL1        0.0257
     53 H          -4.9214    3.9134    0.1586 H       1  UNL1        0.0257
     54 H          -5.2828    2.1373    0.0500 H       1  UNL1        0.0257
     55 H          -2.1809    4.0708    1.2158 H       1  UNL1        0.0257
     56 H          -3.5721    4.6474    2.1029 H       1  UNL1        0.0257
     57 H          -2.4264    3.4850    2.9287 H       1  UNL1        0.0257
     58 H          -4.6556    2.6314    3.2944 H       1  UNL1        0.2101
     59 H          -3.4665   -1.7063   -0.1641 H       1  UNL1        0.0622
     60 H          -3.0482   -3.9773    0.7784 H       1  UNL1        0.0618
     61 H          -1.5936   -4.2782    2.7341 H       1  UNL1        0.0618
     62 H          -0.5260   -2.2318    3.7602 H       1  UNL1        0.0618
     63 H          -0.8976   -0.0315    2.8784 H       1  UNL1        0.0622
@<TRIPOS>BOND
     1     1     2    1
     2     2     3    1
     3     3     4   ar
     4     4     5   ar
     5     5     6   ar
     6     6     7    1
     7     7     8   ar
     8     8     9   ar
     9     9    10   ar
    10    10    11    1
    11    11    12    3
    12    10    13   ar
    13    13    14   ar
    14     6    15   ar
    15    15    16   ar
    16     2    17    1
    17    17    18    1
    18    18    19    1
    19    19    20    1
    20    20    21    1
    21    21    22    1
    22    22    23    1
    23    22    24    1
    24    22    25    1
    25    20    26    1
    26    26    27   ar
    27    27    28   ar
    28    28    29   ar
    29    29    30   ar
    30    30    31   ar
    31    20    32    1
    32    32    33    1
    33    33    34    2
    34    16     3   ar
    35    33    17   am
    36    14     7   ar
    37    31    26   ar
    38     1    35    1
    39     1    36    1
    40     1    37    1
    41     2    38    1
    42     4    39    1
    43     5    40    1
    44     8    41    1
    45     9    42    1
    46    13    43    1
    47    15    44    1
    48    16    45    1
    49    18    46    1
    50    18    47    1
    51    19    48    1
    52    19    49    1
    53    21    50    1
    54    21    51    1
    55    23    52    1
    56    23    53    1
    57    23    54    1
    58    24    55    1
    59    24    56    1
    60    24    57    1
    61    25    58    1
    62    27    59    1
    63    28    60    1
    64    29    61    1
    65    30    62    1
    66    31    63    1
