
     RDKit          3D

 63 66  0  0  0  0  0  0  0  0999 V2000
    0.3322    2.3323   -3.3839 C   0  0  0  0  0  0  0  0  0  0  0  0
   -0.0486    1.0496   -2.6957 C   0  0  1  0  0  0  0  0  0  0  0  0
    1.1417    0.2956   -2.2304 C   0  0  0  0  0  0  0  0  0  0  0  0
    2.4330    0.7128   -2.2651 C   0  0  0  0  0  0  0  0  0  0  0  0
    3.5405    0.0132   -1.8650 C   0  0  0  0  0  0  0  0  0  0  0  0
    3.3509   -1.2749   -1.3594 C   0  0  0  0  0  0  0  0  0  0  0  0
    4.4752   -2.1048   -0.8982 C   0  0  0  0  0  0  0  0  0  0  0  0
    5.7814   -1.6889   -0.9243 C   0  0  0  0  0  0  0  0  0  0  0  0
    6.8026   -2.4962   -0.5029 C   0  0  0  0  0  0  0  0  0  0  0  0
    6.5390   -3.8194   -0.0161 C   0  0  0  0  0  0  0  0  0  0  0  0
    7.5779   -4.6610    0.3875 C   0  0  0  0  0  0  0  0  0  0  0  0
    8.4635   -5.3864    0.7419 N   0  0  0  0  0  0  0  0  0  0  0  0
    5.2131   -4.1602   -0.0199 C   0  0  0  0  0  0  0  0  0  0  0  0
    4.2520   -3.3388   -0.4384 N   0  0  0  0  0  0  0  0  0  0  0  0
    2.0669   -1.7166   -1.3141 C   0  0  0  0  0  0  0  0  0  0  0  0
    0.9688   -1.0249   -1.7104 C   0  0  0  0  0  0  0  0  0  0  0  0
   -1.0296    1.2016   -1.6564 N   0  0  0  0  0  0  0  0  0  0  0  0
   -0.8258    2.0830   -0.5057 C   0  0  0  0  0  0  0  0  0  0  0  0
   -1.1873    1.3618    0.7675 C   0  0  0  0  0  0  0  0  0  0  0  0
   -2.4821    0.6419    0.7435 C   0  0  2  0  0  0  0  0  0  0  0  0
   -3.4619    1.2441    1.6977 C   0  0  0  0  0  0  0  0  0  0  0  0
   -3.8529    2.6558    1.5010 C   0  0  0  0  0  0  0  0  0  0  0  0
   -4.4743    2.9104    0.1380 C   0  0  0  0  0  0  0  0  0  0  0  0
   -2.9150    3.7145    1.9577 C   0  0  0  0  0  0  0  0  0  0  0  0
   -5.0001    2.8216    2.3765 O   0  0  0  0  0  0  0  0  0  0  0  0
   -2.1923   -0.7426    1.3258 C   0  0  0  0  0  0  0  0  0  0  0  0
   -2.8305   -1.8255    0.6886 C   0  0  0  0  0  0  0  0  0  0  0  0
   -2.5885   -3.0960    1.2272 C   0  0  0  0  0  0  0  0  0  0  0  0
   -1.7686   -3.2773    2.3253 C   0  0  0  0  0  0  0  0  0  0  0  0
   -1.1864   -2.1735    2.8851 C   0  0  0  0  0  0  0  0  0  0  0  0
   -1.3938   -0.8839    2.3861 C   0  0  0  0  0  0  0  0  0  0  0  0
   -3.0124    0.4794   -0.5478 O   0  0  0  0  0  0  0  0  0  0  0  0
   -2.2757    0.5360   -1.7147 C   0  0  0  0  0  0  0  0  0  0  0  0
   -2.7002    0.0121   -2.8022 O   0  0  0  0  0  0  0  0  0  0  0  0
    0.8301    2.9830   -2.6305 H   0  0  0  0  0  0  0  0  0  0  0  0
   -0.5369    2.8310   -3.8622 H   0  0  0  0  0  0  0  0  0  0  0  0
    1.0897    2.1442   -4.1895 H   0  0  0  0  0  0  0  0  0  0  0  0
   -0.4834    0.3791   -3.5156 H   0  0  0  0  0  0  0  0  0  0  0  0
    2.5964    1.7423   -2.6598 H   0  0  0  0  0  0  0  0  0  0  0  0
    4.5382    0.4015   -1.9161 H   0  0  0  0  0  0  0  0  0  0  0  0
    5.9976   -0.6753   -1.2912 H   0  0  0  0  0  0  0  0  0  0  0  0
    7.8274   -2.2066   -0.5126 H   0  0  0  0  0  0  0  0  0  0  0  0
    4.9814   -5.1736    0.3516 H   0  0  0  0  0  0  0  0  0  0  0  0
    1.9579   -2.7530   -0.9012 H   0  0  0  0  0  0  0  0  0  0  0  0
   -0.0166   -1.3999   -1.6599 H   0  0  0  0  0  0  0  0  0  0  0  0
    0.2321    2.3907   -0.4185 H   0  0  0  0  0  0  0  0  0  0  0  0
   -1.3970    2.9892   -0.7060 H   0  0  0  0  0  0  0  0  0  0  0  0
   -1.0803    2.0744    1.6088 H   0  0  0  0  0  0  0  0  0  0  0  0
   -0.3200    0.6269    0.9217 H   0  0  0  0  0  0  0  0  0  0  0  0
   -4.4464    0.6542    1.6762 H   0  0  0  0  0  0  0  0  0  0  0  0
   -3.1323    1.0969    2.7566 H   0  0  0  0  0  0  0  0  0  0  0  0
   -3.7792    2.8401   -0.6970 H   0  0  0  0  0  0  0  0  0  0  0  0
   -4.9214    3.9134    0.1586 H   0  0  0  0  0  0  0  0  0  0  0  0
   -5.2828    2.1373    0.0500 H   0  0  0  0  0  0  0  0  0  0  0  0
   -2.1809    4.0708    1.2158 H   0  0  0  0  0  0  0  0  0  0  0  0
   -3.5721    4.6474    2.1029 H   0  0  0  0  0  0  0  0  0  0  0  0
   -2.4264    3.4850    2.9287 H   0  0  0  0  0  0  0  0  0  0  0  0
   -4.6556    2.6314    3.2944 H   0  0  0  0  0  0  0  0  0  0  0  0
   -3.4665   -1.7063   -0.1641 H   0  0  0  0  0  0  0  0  0  0  0  0
   -3.0482   -3.9773    0.7784 H   0  0  0  0  0  0  0  0  0  0  0  0
   -1.5936   -4.2782    2.7341 H   0  0  0  0  0  0  0  0  0  0  0  0
   -0.5260   -2.2318    3.7602 H   0  0  0  0  0  0  0  0  0  0  0  0
   -0.8976   -0.0315    2.8784 H   0  0  0  0  0  0  0  0  0  0  0  0
  1  2  1  0
  2  3  1  0
  3  4  2  0
  4  5  1  0
  5  6  2  0
  6  7  1  0
  7  8  2  0
  8  9  1  0
  9 10  2  0
 10 11  1  0
 11 12  3  0
 10 13  1  0
 13 14  2  0
  6 15  1  0
 15 16  2  0
  2 17  1  0
 17 18  1  0
 18 19  1  0
 19 20  1  0
 20 21  1  1
 21 22  1  0
 22 23  1  0
 22 24  1  0
 22 25  1  0
 20 26  1  0
 26 27  2  0
 27 28  1  0
 28 29  2  0
 29 30  1  0
 30 31  2  0
 20 32  1  0
 32 33  1  0
 33 34  2  0
 16  3  1  0
 33 17  1  0
 14  7  1  0
 31 26  1  0
  1 35  1  0
  1 36  1  0
  1 37  1  0
  2 38  1  6
  4 39  1  0
  5 40  1  0
  8 41  1  0
  9 42  1  0
 13 43  1  0
 15 44  1  0
 16 45  1  0
 18 46  1  0
 18 47  1  0
 19 48  1  0
 19 49  1  0
 21 50  1  0
 21 51  1  0
 23 52  1  0
 23 53  1  0
 23 54  1  0
 24 55  1  0
 24 56  1  0
 24 57  1  0
 25 58  1  0
 27 59  1  0
 28 60  1  0
 29 61  1  0
 30 62  1  0
 31 63  1  0
M  END
$$$$
