@<TRIPOS>MOLECULE
*****
 58 62 0 0 0
SMALL
GASTEIGER

@<TRIPOS>ATOM
      1 C          -2.2978   -2.8030    0.3502 C.3     1  UNL1       -0.0219
      2 C          -3.0415   -1.5362    0.4135 C.ar    1  UNL1        0.0487
      3 C          -2.5433   -0.2704    0.5617 C.ar    1  UNL1        0.0393
      4 C          -1.0699   -0.1203    0.6433 C.3     1  UNL1       -0.0080
      5 C          -0.4922   -0.2014   -0.7664 C.3     1  UNL1        0.0031
      6 N           0.9105   -0.0633   -0.6371 N.3     1  UNL1       -0.3020
      7 C           1.4254    1.1696   -0.2213 C.3     1  UNL1       -0.0005
      8 C           2.8075    1.5543   -0.5805 C.3     1  UNL1       -0.0318
      9 C           3.6423    0.4035   -1.0853 C.3     1  UNL1        0.0075
     10 C           3.1225   -0.8787   -0.4767 C.3     1  UNL1       -0.0318
     11 C           1.7453   -1.0666   -1.1555 C.3     1  UNL1       -0.0005
     12 C           5.0837    0.5976   -1.0019 C.ar    1  UNL1        0.0945
     13 N           5.7790    1.2008   -2.0154 N.ar    1  UNL1       -0.0818
     14 O           7.0144    1.2681   -1.7287 O.2     1  UNL1       -0.3543
     15 C           7.3270    0.7613   -0.5670 C.ar    1  UNL1        0.1702
     16 C           6.1079    0.3447   -0.1224 C.ar    1  UNL1        0.0447
     17 C           5.9803   -0.2715    1.1152 C.ar    1  UNL1       -0.0464
     18 C           7.0638   -0.4859    1.9352 C.ar    1  UNL1       -0.0256
     19 C           8.3042   -0.0522    1.4620 C.ar    1  UNL1        0.1270
     20 F           9.4372   -0.2277    2.2163 F       1  UNL1       -0.2054
     21 C           8.4438    0.5685    0.2198 C.ar    1  UNL1        0.0192
     22 C          -3.3996    0.8098    0.6170 C.ar    1  UNL1        0.2576
     23 O          -2.8158    1.9296    0.7554 O.2     1  UNL1       -0.2673
     24 N          -4.7328    0.6456    0.5270 N.ar    1  UNL1       -0.2944
     25 C          -5.4506    1.8929    0.6047 C.3     1  UNL1        0.0279
     26 C          -6.8969    1.5846    0.9029 C.3     1  UNL1       -0.0321
     27 C          -7.4024    0.4558    0.0480 C.3     1  UNL1       -0.0182
     28 C          -6.6959   -0.8425    0.2753 C.3     1  UNL1        0.1129
     29 O          -6.8589   -1.6868   -0.8430 O.3     1  UNL1       -0.3841
     30 C          -5.2120   -0.6141    0.3801 C.ar    1  UNL1        0.1413
     31 N          -4.3861   -1.6675    0.3259 N.ar    1  UNL1       -0.2357
     32 H          -2.6964   -3.3926   -0.5244 H       1  UNL1        0.0293
     33 H          -2.4873   -3.4376    1.2712 H       1  UNL1        0.0293
     34 H          -1.2151   -2.7180    0.2937 H       1  UNL1        0.0293
     35 H          -0.7738    0.8289    1.1306 H       1  UNL1        0.0328
     36 H          -0.6402   -0.9297    1.2993 H       1  UNL1        0.0328
     37 H          -0.8428   -1.0493   -1.3394 H       1  UNL1        0.0430
     38 H          -0.9139    0.7035   -1.3013 H       1  UNL1        0.0430
     39 H           0.7395    1.9980   -0.5914 H       1  UNL1        0.0427
     40 H           1.2448    1.2279    0.9017 H       1  UNL1        0.0427
     41 H           3.2682    2.0240    0.3308 H       1  UNL1        0.0284
     42 H           2.7789    2.3878   -1.3211 H       1  UNL1        0.0284
     43 H           3.3551    0.3192   -2.1846 H       1  UNL1        0.0366
     44 H           3.7884   -1.7200   -0.6393 H       1  UNL1        0.0284
     45 H           2.9059   -0.7600    0.6217 H       1  UNL1        0.0284
     46 H           1.9482   -0.8968   -2.2529 H       1  UNL1        0.0427
     47 H           1.4095   -2.0997   -0.9897 H       1  UNL1        0.0427
     48 H           5.0375   -0.6133    1.5031 H       1  UNL1        0.0626
     49 H           6.9693   -0.9612    2.8922 H       1  UNL1        0.0646
     50 H           9.3805    0.9091   -0.1676 H       1  UNL1        0.0684
     51 H          -5.3412    2.4052   -0.3748 H       1  UNL1        0.0493
     52 H          -5.0674    2.5232    1.4376 H       1  UNL1        0.0493
     53 H          -7.5292    2.4645    0.6664 H       1  UNL1        0.0283
     54 H          -6.9734    1.3042    1.9820 H       1  UNL1        0.0283
     55 H          -8.4851    0.3093    0.2512 H       1  UNL1        0.0295
     56 H          -7.2570    0.7380   -1.0164 H       1  UNL1        0.0295
     57 H          -7.0210   -1.3876    1.1874 H       1  UNL1        0.0674
     58 H          -6.4812   -2.5755   -0.5826 H       1  UNL1        0.2104
@<TRIPOS>BOND
     1     1     2    1
     2     2     3   ar
     3     3     4    1
     4     4     5    1
     5     5     6    1
     6     6     7    1
     7     7     8    1
     8     8     9    1
     9     9    10    1
    10    10    11    1
    11     9    12    1
    12    12    13   ar
    13    13    14   ar
    14    14    15   ar
    15    15    16   ar
    16    16    17   ar
    17    17    18   ar
    18    18    19   ar
    19    19    20    1
    20    19    21   ar
    21     3    22   ar
    22    22    23    2
    23    22    24   ar
    24    24    25    1
    25    25    26    1
    26    26    27    1
    27    27    28    1
    28    28    29    1
    29    28    30    1
    30    30    31   ar
    31    31     2   ar
    32    11     6    1
    33    16    12   ar
    34    30    24   ar
    35    21    15   ar
    36     1    32    1
    37     1    33    1
    38     1    34    1
    39     4    35    1
    40     4    36    1
    41     5    37    1
    42     5    38    1
    43     7    39    1
    44     7    40    1
    45     8    41    1
    46     8    42    1
    47     9    43    1
    48    10    44    1
    49    10    45    1
    50    11    46    1
    51    11    47    1
    52    17    48    1
    53    18    49    1
    54    21    50    1
    55    25    51    1
    56    25    52    1
    57    26    53    1
    58    26    54    1
    59    27    55    1
    60    27    56    1
    61    28    57    1
    62    29    58    1
