
     RDKit          3D

 30 32  0  0  0  0  0  0  0  0999 V2000
   -1.1262    3.4411    1.0972 O   0  0  0  0  0  0  0  0  0  0  0  0
   -1.9408    2.4964    0.7384 C   0  0  0  0  0  0  0  0  0  0  0  0
   -3.2394    2.8855    0.7934 O   0  0  0  0  0  0  0  0  0  0  0  0
   -1.3346    1.2640    0.3651 C   0  0  0  0  0  0  0  0  0  0  0  0
    0.0577    1.1198    0.3965 C   0  0  0  0  0  0  0  0  0  0  0  0
    0.7123   -0.0287    0.0537 C   0  0  0  0  0  0  0  0  0  0  0  0
    2.1868   -0.1446    0.0991 C   0  0  0  0  0  0  0  0  0  0  0  0
    2.7358   -1.3762   -0.2773 C   0  0  0  0  0  0  0  0  0  0  0  0
    4.0793   -1.6052   -0.2767 C   0  0  0  0  0  0  0  0  0  0  0  0
    4.9186   -0.5763    0.1115 C   0  0  0  0  0  0  0  0  0  0  0  0
    6.8077   -0.8345    0.1336 Br  0  0  0  0  0  0  0  0  0  0  0  0
    4.3923    0.6428    0.4851 C   0  0  0  0  0  0  0  0  0  0  0  0
    3.0103    0.8584    0.4778 C   0  0  0  0  0  0  0  0  0  0  0  0
   -0.0490   -1.0606   -0.3309 N   0  0  0  0  0  0  0  0  0  0  0  0
   -1.3853   -1.0197   -0.3933 C   0  0  0  0  0  0  0  0  0  0  0  0
   -2.1415   -2.0966   -0.7925 C   0  0  0  0  0  0  0  0  0  0  0  0
   -3.5118   -2.0701   -0.8616 C   0  0  0  0  0  0  0  0  0  0  0  0
   -4.1765   -0.9161   -0.5175 C   0  0  0  0  0  0  0  0  0  0  0  0
   -6.2804   -0.7537   -0.5833 I   0  0  0  0  0  0  0  0  0  0  0  0
   -3.4187    0.1932   -0.1075 C   0  0  0  0  0  0  0  0  0  0  0  0
   -2.0529    0.1647   -0.0394 C   0  0  0  0  0  0  0  0  0  0  0  0
   -3.4931    3.7938    0.3963 H   0  0  0  0  0  0  0  0  0  0  0  0
    0.6340    1.9658    0.7091 H   0  0  0  0  0  0  0  0  0  0  0  0
    2.0809   -2.1865   -0.5826 H   0  0  0  0  0  0  0  0  0  0  0  0
    4.5355   -2.5482   -0.5628 H   0  0  0  0  0  0  0  0  0  0  0  0
    5.0722    1.4317    0.7848 H   0  0  0  0  0  0  0  0  0  0  0  0
    2.6239    1.8149    0.7724 H   0  0  0  0  0  0  0  0  0  0  0  0
   -1.6436   -3.0155   -1.0682 H   0  0  0  0  0  0  0  0  0  0  0  0
   -4.1061   -2.9118   -1.1738 H   0  0  0  0  0  0  0  0  0  0  0  0
   -3.9475    1.0724    0.1533 H   0  0  0  0  0  0  0  0  0  0  0  0
  1  2  2  0
  2  3  1  0
  2  4  1  0
  4  5  2  0
  5  6  1  0
  6  7  1  0
  7  8  2  0
  8  9  1  0
  9 10  2  0
 10 11  1  0
 10 12  1  0
 12 13  2  0
  6 14  2  0
 14 15  1  0
 15 16  2  0
 16 17  1  0
 17 18  2  0
 18 19  1  0
 18 20  1  0
 20 21  2  0
 21  4  1  0
 13  7  1  0
 21 15  1  0
  3 22  1  0
  5 23  1  0
  8 24  1  0
  9 25  1  0
 12 26  1  0
 13 27  1  0
 16 28  1  0
 17 29  1  0
 20 30  1  0
M  END
$$$$
