@<TRIPOS>MOLECULE
*****
 30 32 0 0 0
SMALL
GASTEIGER

@<TRIPOS>ATOM
      1 O          -1.1262    3.4411    1.0972 O.2     1  UNL1       -0.2451
      2 C          -1.9408    2.4964    0.7384 C.2     1  UNL1        0.3375
      3 O          -3.2394    2.8855    0.7934 O.3     1  UNL1       -0.4771
      4 C          -1.3346    1.2640    0.3651 C.ar    1  UNL1        0.0700
      5 C           0.0577    1.1198    0.3965 C.ar    1  UNL1       -0.0211
      6 C           0.7123   -0.0287    0.0537 C.ar    1  UNL1        0.0725
      7 C           2.1868   -0.1446    0.0991 C.ar    1  UNL1        0.0004
      8 C           2.7358   -1.3762   -0.2773 C.ar    1  UNL1       -0.0515
      9 C           4.0793   -1.6052   -0.2767 C.ar    1  UNL1       -0.0471
     10 C           4.9186   -0.5763    0.1115 C.ar    1  UNL1        0.0179
     11 BR          6.8077   -0.8345    0.1336 Br      1  UNL1       -0.0503
     12 C           4.3923    0.6428    0.4851 C.ar    1  UNL1       -0.0471
     13 C           3.0103    0.8584    0.4778 C.ar    1  UNL1       -0.0515
     14 N          -0.0490   -1.0606   -0.3309 N.ar    1  UNL1       -0.2467
     15 C          -1.3853   -1.0197   -0.3933 C.ar    1  UNL1        0.0725
     16 C          -2.1415   -2.0966   -0.7925 C.ar    1  UNL1       -0.0347
     17 C          -3.5118   -2.0701   -0.8616 C.ar    1  UNL1       -0.0466
     18 C          -4.1765   -0.9161   -0.5175 C.ar    1  UNL1        0.0141
     19 I          -6.2804   -0.7537   -0.5833 I       1  UNL1       -0.0438
     20 C          -3.4187    0.1932   -0.1075 C.ar    1  UNL1       -0.0386
     21 C          -2.0529    0.1647   -0.0394 C.ar    1  UNL1        0.0154
     22 H          -3.4931    3.7938    0.3963 H       1  UNL1        0.2954
     23 H           0.6340    1.9658    0.7091 H       1  UNL1        0.0647
     24 H           2.0809   -2.1865   -0.5826 H       1  UNL1        0.0624
     25 H           4.5355   -2.5482   -0.5628 H       1  UNL1        0.0629
     26 H           5.0722    1.4317    0.7848 H       1  UNL1        0.0629
     27 H           2.6239    1.8149    0.7724 H       1  UNL1        0.0624
     28 H          -1.6436   -3.0155   -1.0682 H       1  UNL1        0.0639
     29 H          -4.1061   -2.9118   -1.1738 H       1  UNL1        0.0629
     30 H          -3.9475    1.0724    0.1533 H       1  UNL1        0.0635
@<TRIPOS>BOND
     1     1     2    2
     2     2     3    1
     3     2     4    1
     4     4     5   ar
     5     5     6   ar
     6     6     7    1
     7     7     8   ar
     8     8     9   ar
     9     9    10   ar
    10    10    11    1
    11    10    12   ar
    12    12    13   ar
    13     6    14   ar
    14    14    15   ar
    15    15    16   ar
    16    16    17   ar
    17    17    18   ar
    18    18    19    1
    19    18    20   ar
    20    20    21   ar
    21    21     4   ar
    22    13     7   ar
    23    21    15   ar
    24     3    22    1
    25     5    23    1
    26     8    24    1
    27     9    25    1
    28    12    26    1
    29    13    27    1
    30    16    28    1
    31    17    29    1
    32    20    30    1
