@<TRIPOS>MOLECULE
*****
 64 68 0 0 0
SMALL
GASTEIGER

@<TRIPOS>ATOM
      1 C          -4.3238   -0.8506   -2.2024 C.3     1  UNL1       -0.0108
      2 C          -2.9193   -0.8404   -1.5830 C.3     1  UNL1        0.1663
      3 C          -2.2810   -2.1444   -2.0051 C.3     1  UNL1       -0.0108
      4 O          -2.2994    0.2801   -2.0918 O.3     1  UNL1       -0.3426
      5 C          -2.4683    1.3276   -1.2015 C.3     1  UNL1        0.0987
      6 C          -1.0904    2.0021   -1.0826 C.3     1  UNL1       -0.0196
      7 C          -0.4005    0.8906   -0.4244 C.3     1  UNL1       -0.0267
      8 C           1.0031    0.9694   -0.0393 C.3     1  UNL1       -0.0286
      9 C           1.9015    1.6896   -1.0064 C.3     1  UNL1       -0.0143
     10 C           3.2206    1.7877   -0.2268 C.3     1  UNL1        0.1232
     11 F           4.0529    2.6847   -0.8337 F       1  UNL1       -0.2407
     12 C           3.7475    0.4299   -0.1578 C.2     1  UNL1       -0.0266
     13 C           4.9980    0.2525   -0.5527 C.2     1  UNL1       -0.0167
     14 C           5.6013   -1.0824   -0.5141 C.2     1  UNL1        0.1562
     15 O           6.8173   -1.2506   -0.3877 O.2     1  UNL1       -0.2927
     16 C           4.6627   -2.2277   -0.6361 C.3     1  UNL1        0.0107
     17 C           3.2373   -1.8465   -0.6064 C.3     1  UNL1       -0.0365
     18 C           2.8963   -0.6782    0.3357 C.3     1  UNL1       -0.0022
     19 C           3.4878   -1.0829    1.6592 C.3     1  UNL1       -0.0554
     20 C           1.4562   -0.4416    0.2766 C.3     1  UNL1       -0.0026
     21 C           0.6651   -0.8494    1.4961 C.3     1  UNL1        0.0597
     22 O           1.0357   -0.2270    2.6602 O.3     1  UNL1       -0.3915
     23 C          -0.8038   -0.6880    1.3332 C.3     1  UNL1       -0.0178
     24 C          -1.2615    0.6366    0.8014 C.3     1  UNL1        0.0121
     25 C          -1.1987    1.7085    1.8315 C.3     1  UNL1       -0.0561
     26 C          -2.6023    0.5706    0.1235 C.3     1  UNL1        0.1640
     27 O          -2.9780   -0.7262   -0.2154 O.3     1  UNL1       -0.3320
     28 C          -3.6680    1.2752    0.8891 C.2     1  UNL1        0.1931
     29 O          -4.3997    2.0471    1.5274 O.2     1  UNL1       -0.2918
     30 C          -4.9341    0.5339    1.1815 C.3     1  UNL1        0.1053
     31 O          -5.8182    1.3288    1.9002 O.3     1  UNL1       -0.3874
     32 H          -4.2602   -0.9597   -3.3030 H       1  UNL1        0.0281
     33 H          -4.9373   -1.6944   -1.8278 H       1  UNL1        0.0281
     34 H          -4.8415    0.1188   -2.0206 H       1  UNL1        0.0281
     35 H          -2.2343   -2.1324   -3.1174 H       1  UNL1        0.0281
     36 H          -2.9884   -2.9569   -1.7137 H       1  UNL1        0.0281
     37 H          -1.2785   -2.3085   -1.5631 H       1  UNL1        0.0281
     38 H          -3.2769    2.0128   -1.4070 H       1  UNL1        0.0631
     39 H          -1.2056    2.9343   -0.5313 H       1  UNL1        0.0294
     40 H          -0.7634    2.1642   -2.1383 H       1  UNL1        0.0294
     41 H          -0.5438   -0.0248   -1.0632 H       1  UNL1        0.0311
     42 H           1.0729    1.5517    0.9218 H       1  UNL1        0.0308
     43 H           2.0113    1.2149   -1.9799 H       1  UNL1        0.0299
     44 H           1.5298    2.7214   -1.0630 H       1  UNL1        0.0299
     45 H           2.9558    2.1204    0.7974 H       1  UNL1        0.0699
     46 H           5.6070    1.0965   -0.9156 H       1  UNL1        0.0653
     47 H           4.8581   -2.6581   -1.6629 H       1  UNL1        0.0345
     48 H           4.9113   -3.0678    0.0446 H       1  UNL1        0.0345
     49 H           2.8289   -1.6125   -1.6267 H       1  UNL1        0.0278
     50 H           2.6275   -2.7042   -0.2474 H       1  UNL1        0.0278
     51 H           2.8517   -1.6450    2.3311 H       1  UNL1        0.0238
     52 H           4.3848   -1.7589    1.5175 H       1  UNL1        0.0238
     53 H           3.9057   -0.2213    2.2288 H       1  UNL1        0.0238
     54 H           0.9790   -1.0650   -0.5429 H       1  UNL1        0.0337
     55 H           0.7899   -1.9728    1.5502 H       1  UNL1        0.0596
     56 H           1.6606    0.5281    2.5724 H       1  UNL1        0.2098
     57 H          -1.2681   -0.8043    2.3436 H       1  UNL1        0.0297
     58 H          -1.2786   -1.4899    0.7034 H       1  UNL1        0.0297
     59 H          -0.5293    1.5014    2.6945 H       1  UNL1        0.0236
     60 H          -0.9111    2.7091    1.4720 H       1  UNL1        0.0236
     61 H          -2.2168    1.7920    2.3147 H       1  UNL1        0.0236
     62 H          -4.7429   -0.3806    1.8086 H       1  UNL1        0.0637
     63 H          -5.4575    0.1700    0.2965 H       1  UNL1        0.0637
     64 H          -5.5761    1.3426    2.8778 H       1  UNL1        0.2100
@<TRIPOS>BOND
     1     1     2    1
     2     2     3    1
     3     2     4    1
     4     4     5    1
     5     5     6    1
     6     6     7    1
     7     7     8    1
     8     8     9    1
     9     9    10    1
    10    10    11    1
    11    10    12    1
    12    12    13    2
    13    13    14    1
    14    14    15    2
    15    14    16    1
    16    16    17    1
    17    17    18    1
    18    18    19    1
    19    18    20    1
    20    20    21    1
    21    21    22    1
    22    21    23    1
    23    23    24    1
    24    24    25    1
    25    24    26    1
    26    26    27    1
    27    26    28    1
    28    28    29    2
    29    28    30    1
    30    30    31    1
    31    27     2    1
    32    26     5    1
    33    24     7    1
    34    20     8    1
    35    18    12    1
    36     1    32    1
    37     1    33    1
    38     1    34    1
    39     3    35    1
    40     3    36    1
    41     3    37    1
    42     5    38    1
    43     6    39    1
    44     6    40    1
    45     7    41    1
    46     8    42    1
    47     9    43    1
    48     9    44    1
    49    10    45    1
    50    13    46    1
    51    16    47    1
    52    16    48    1
    53    17    49    1
    54    17    50    1
    55    19    51    1
    56    19    52    1
    57    19    53    1
    58    20    54    1
    59    21    55    1
    60    22    56    1
    61    23    57    1
    62    23    58    1
    63    25    59    1
    64    25    60    1
    65    25    61    1
    66    30    62    1
    67    30    63    1
    68    31    64    1
