
     RDKit          3D

 64 68  0  0  0  0  0  0  0  0999 V2000
   -4.3238   -0.8506   -2.2024 C   0  0  0  0  0  0  0  0  0  0  0  0
   -2.9193   -0.8404   -1.5830 C   0  0  0  0  0  0  0  0  0  0  0  0
   -2.2810   -2.1444   -2.0051 C   0  0  0  0  0  0  0  0  0  0  0  0
   -2.2994    0.2801   -2.0918 O   0  0  0  0  0  0  0  0  0  0  0  0
   -2.4683    1.3276   -1.2015 C   0  0  2  0  0  0  0  0  0  0  0  0
   -1.0904    2.0021   -1.0826 C   0  0  0  0  0  0  0  0  0  0  0  0
   -0.4005    0.8906   -0.4244 C   0  0  1  0  0  0  0  0  0  0  0  0
    1.0031    0.9694   -0.0393 C   0  0  2  0  0  0  0  0  0  0  0  0
    1.9015    1.6896   -1.0064 C   0  0  0  0  0  0  0  0  0  0  0  0
    3.2206    1.7877   -0.2268 C   0  0  2  0  0  0  0  0  0  0  0  0
    4.0529    2.6847   -0.8337 F   0  0  0  0  0  0  0  0  0  0  0  0
    3.7475    0.4299   -0.1578 C   0  0  0  0  0  0  0  0  0  0  0  0
    4.9980    0.2525   -0.5527 C   0  0  0  0  0  0  0  0  0  0  0  0
    5.6013   -1.0824   -0.5141 C   0  0  0  0  0  0  0  0  0  0  0  0
    6.8173   -1.2506   -0.3877 O   0  0  0  0  0  0  0  0  0  0  0  0
    4.6627   -2.2277   -0.6361 C   0  0  0  0  0  0  0  0  0  0  0  0
    3.2373   -1.8465   -0.6064 C   0  0  0  0  0  0  0  0  0  0  0  0
    2.8963   -0.6782    0.3357 C   0  0  1  0  0  0  0  0  0  0  0  0
    3.4878   -1.0829    1.6592 C   0  0  0  0  0  0  0  0  0  0  0  0
    1.4562   -0.4416    0.2766 C   0  0  1  0  0  0  0  0  0  0  0  0
    0.6651   -0.8494    1.4961 C   0  0  1  0  0  0  0  0  0  0  0  0
    1.0357   -0.2270    2.6602 O   0  0  0  0  0  0  0  0  0  0  0  0
   -0.8038   -0.6880    1.3332 C   0  0  0  0  0  0  0  0  0  0  0  0
   -1.2615    0.6366    0.8014 C   0  0  1  0  0  0  0  0  0  0  0  0
   -1.1987    1.7085    1.8315 C   0  0  0  0  0  0  0  0  0  0  0  0
   -2.6023    0.5706    0.1235 C   0  0  2  0  0  0  0  0  0  0  0  0
   -2.9780   -0.7262   -0.2154 O   0  0  0  0  0  0  0  0  0  0  0  0
   -3.6680    1.2752    0.8891 C   0  0  0  0  0  0  0  0  0  0  0  0
   -4.3997    2.0471    1.5274 O   0  0  0  0  0  0  0  0  0  0  0  0
   -4.9341    0.5339    1.1815 C   0  0  0  0  0  0  0  0  0  0  0  0
   -5.8182    1.3288    1.9002 O   0  0  0  0  0  0  0  0  0  0  0  0
   -4.2602   -0.9597   -3.3030 H   0  0  0  0  0  0  0  0  0  0  0  0
   -4.9373   -1.6944   -1.8278 H   0  0  0  0  0  0  0  0  0  0  0  0
   -4.8415    0.1188   -2.0206 H   0  0  0  0  0  0  0  0  0  0  0  0
   -2.2343   -2.1324   -3.1174 H   0  0  0  0  0  0  0  0  0  0  0  0
   -2.9884   -2.9569   -1.7137 H   0  0  0  0  0  0  0  0  0  0  0  0
   -1.2785   -2.3085   -1.5631 H   0  0  0  0  0  0  0  0  0  0  0  0
   -3.2769    2.0128   -1.4070 H   0  0  0  0  0  0  0  0  0  0  0  0
   -1.2056    2.9343   -0.5313 H   0  0  0  0  0  0  0  0  0  0  0  0
   -0.7634    2.1642   -2.1383 H   0  0  0  0  0  0  0  0  0  0  0  0
   -0.5438   -0.0248   -1.0632 H   0  0  0  0  0  0  0  0  0  0  0  0
    1.0729    1.5517    0.9218 H   0  0  0  0  0  0  0  0  0  0  0  0
    2.0113    1.2149   -1.9799 H   0  0  0  0  0  0  0  0  0  0  0  0
    1.5298    2.7214   -1.0630 H   0  0  0  0  0  0  0  0  0  0  0  0
    2.9558    2.1204    0.7974 H   0  0  0  0  0  0  0  0  0  0  0  0
    5.6070    1.0965   -0.9156 H   0  0  0  0  0  0  0  0  0  0  0  0
    4.8581   -2.6581   -1.6629 H   0  0  0  0  0  0  0  0  0  0  0  0
    4.9113   -3.0678    0.0446 H   0  0  0  0  0  0  0  0  0  0  0  0
    2.8289   -1.6125   -1.6267 H   0  0  0  0  0  0  0  0  0  0  0  0
    2.6275   -2.7042   -0.2474 H   0  0  0  0  0  0  0  0  0  0  0  0
    2.8517   -1.6450    2.3311 H   0  0  0  0  0  0  0  0  0  0  0  0
    4.3848   -1.7589    1.5175 H   0  0  0  0  0  0  0  0  0  0  0  0
    3.9057   -0.2213    2.2288 H   0  0  0  0  0  0  0  0  0  0  0  0
    0.9790   -1.0650   -0.5429 H   0  0  0  0  0  0  0  0  0  0  0  0
    0.7899   -1.9728    1.5502 H   0  0  0  0  0  0  0  0  0  0  0  0
    1.6606    0.5281    2.5724 H   0  0  0  0  0  0  0  0  0  0  0  0
   -1.2681   -0.8043    2.3436 H   0  0  0  0  0  0  0  0  0  0  0  0
   -1.2786   -1.4899    0.7034 H   0  0  0  0  0  0  0  0  0  0  0  0
   -0.5293    1.5014    2.6945 H   0  0  0  0  0  0  0  0  0  0  0  0
   -0.9111    2.7091    1.4720 H   0  0  0  0  0  0  0  0  0  0  0  0
   -2.2168    1.7920    2.3147 H   0  0  0  0  0  0  0  0  0  0  0  0
   -4.7429   -0.3806    1.8086 H   0  0  0  0  0  0  0  0  0  0  0  0
   -5.4575    0.1700    0.2965 H   0  0  0  0  0  0  0  0  0  0  0  0
   -5.5761    1.3426    2.8778 H   0  0  0  0  0  0  0  0  0  0  0  0
  1  2  1  0
  2  3  1  0
  2  4  1  0
  4  5  1  0
  5  6  1  0
  6  7  1  0
  7  8  1  0
  8  9  1  0
  9 10  1  0
 10 11  1  0
 10 12  1  0
 12 13  2  0
 13 14  1  0
 14 15  2  0
 14 16  1  0
 16 17  1  0
 17 18  1  0
 18 19  1  1
 18 20  1  0
 20 21  1  0
 21 22  1  0
 21 23  1  0
 23 24  1  0
 24 25  1  1
 24 26  1  0
 26 27  1  0
 26 28  1  1
 28 29  2  0
 28 30  1  0
 30 31  1  0
 27  2  1  0
 26  5  1  0
 24  7  1  0
 20  8  1  0
 18 12  1  0
  1 32  1  0
  1 33  1  0
  1 34  1  0
  3 35  1  0
  3 36  1  0
  3 37  1  0
  5 38  1  6
  6 39  1  0
  6 40  1  0
  7 41  1  6
  8 42  1  1
  9 43  1  0
  9 44  1  0
 10 45  1  1
 13 46  1  0
 16 47  1  0
 16 48  1  0
 17 49  1  0
 17 50  1  0
 19 51  1  0
 19 52  1  0
 19 53  1  0
 20 54  1  6
 21 55  1  1
 22 56  1  0
 23 57  1  0
 23 58  1  0
 25 59  1  0
 25 60  1  0
 25 61  1  0
 30 62  1  0
 30 63  1  0
 31 64  1  0
M  END
$$$$
