
     RDKit          3D

 51 55  0  0  0  0  0  0  0  0999 V2000
    1.0704   -3.0175    0.3072 N   0  0  0  0  0  0  0  0  0  0  0  0
   -0.3280   -2.9949    0.1343 C   0  0  0  0  0  0  0  0  0  0  0  0
   -0.9802   -4.1503   -0.1201 N   0  0  0  0  0  0  0  0  0  0  0  0
   -2.3136   -4.1912   -0.2806 C   0  0  0  0  0  0  0  0  0  0  0  0
   -3.0402   -3.0664   -0.1902 N   0  0  0  0  0  0  0  0  0  0  0  0
   -2.4370   -1.8789    0.0635 C   0  0  0  0  0  0  0  0  0  0  0  0
   -1.0725   -1.8377    0.2271 C   0  0  0  0  0  0  0  0  0  0  0  0
   -0.6966   -0.5354    0.4775 C   0  0  0  0  0  0  0  0  0  0  0  0
    0.6325    0.0197    0.6926 C   0  0  0  0  0  0  0  0  0  0  0  0
    1.6846   -0.1687   -0.1773 C   0  0  0  0  0  0  0  0  0  0  0  0
    2.9454    0.3776    0.0912 C   0  0  0  0  0  0  0  0  0  0  0  0
    3.1704    1.1192    1.2320 C   0  0  0  0  0  0  0  0  0  0  0  0
    4.4281    1.6671    1.5048 O   0  0  0  0  0  0  0  0  0  0  0  0
    5.4545    1.4528    0.6053 C   0  0  0  0  0  0  0  0  0  0  0  0
    6.2710    0.3664    0.7307 C   0  0  0  0  0  0  0  0  0  0  0  0
    7.2906    0.1769   -0.1844 C   0  0  0  0  0  0  0  0  0  0  0  0
    7.5182    1.0564   -1.2349 C   0  0  0  0  0  0  0  0  0  0  0  0
    6.6621    2.1382   -1.3136 C   0  0  0  0  0  0  0  0  0  0  0  0
    5.6367    2.3556   -0.4181 C   0  0  0  0  0  0  0  0  0  0  0  0
    2.1115    1.3022    2.0952 C   0  0  0  0  0  0  0  0  0  0  0  0
    0.8789    0.7650    1.8278 C   0  0  0  0  0  0  0  0  0  0  0  0
   -1.8986    0.1867    0.4555 C   0  0  0  0  0  0  0  0  0  0  0  0
   -2.9309   -0.6288    0.2068 N   0  0  0  0  0  0  0  0  0  0  0  0
   -4.3207   -0.2956    0.1007 C   0  0  0  0  0  0  0  0  0  0  0  0
   -4.7304    0.8610    0.9769 C   0  0  0  0  0  0  0  0  0  0  0  0
   -6.0513    1.2678    0.3568 C   0  0  0  0  0  0  0  0  0  0  0  0
   -5.8054    1.1083   -1.1063 C   0  0  0  0  0  0  0  0  0  0  0  0
   -6.8901    0.5015   -1.7588 O   0  0  0  0  0  0  0  0  0  0  0  0
   -4.5727    0.2719   -1.2888 C   0  0  0  0  0  0  0  0  0  0  0  0
    1.4801   -2.8313    1.2329 H   0  0  0  0  0  0  0  0  0  0  0  0
    1.6771   -3.2216   -0.4991 H   0  0  0  0  0  0  0  0  0  0  0  0
   -2.8259   -5.1315   -0.4857 H   0  0  0  0  0  0  0  0  0  0  0  0
    1.5773   -0.7266   -1.0930 H   0  0  0  0  0  0  0  0  0  0  0  0
    3.7835    0.2416   -0.5769 H   0  0  0  0  0  0  0  0  0  0  0  0
    6.1686   -0.3792    1.5245 H   0  0  0  0  0  0  0  0  0  0  0  0
    7.9407   -0.6741   -0.0974 H   0  0  0  0  0  0  0  0  0  0  0  0
    8.3157    0.9091   -1.9514 H   0  0  0  0  0  0  0  0  0  0  0  0
    6.8270    2.8440   -2.1378 H   0  0  0  0  0  0  0  0  0  0  0  0
    4.9754    3.2232   -0.5083 H   0  0  0  0  0  0  0  0  0  0  0  0
    2.2982    1.8934    3.0001 H   0  0  0  0  0  0  0  0  0  0  0  0
    0.0874    0.9466    2.5491 H   0  0  0  0  0  0  0  0  0  0  0  0
   -1.9172    1.2532    0.6242 H   0  0  0  0  0  0  0  0  0  0  0  0
   -4.9657   -1.1422    0.3328 H   0  0  0  0  0  0  0  0  0  0  0  0
   -4.0395    1.7365    0.8477 H   0  0  0  0  0  0  0  0  0  0  0  0
   -4.8272    0.5694    2.0389 H   0  0  0  0  0  0  0  0  0  0  0  0
   -6.3335    2.2899    0.6521 H   0  0  0  0  0  0  0  0  0  0  0  0
   -6.8023    0.5092    0.7184 H   0  0  0  0  0  0  0  0  0  0  0  0
   -5.6498    2.1000   -1.5863 H   0  0  0  0  0  0  0  0  0  0  0  0
   -7.0833    0.9580   -2.6110 H   0  0  0  0  0  0  0  0  0  0  0  0
   -4.6763   -0.5140   -2.0357 H   0  0  0  0  0  0  0  0  0  0  0  0
   -3.6969    0.9173   -1.5412 H   0  0  0  0  0  0  0  0  0  0  0  0
  1  2  1  0
  2  3  2  0
  3  4  1  0
  4  5  2  0
  5  6  1  0
  6  7  2  0
  7  8  1  0
  8  9  1  0
  9 10  2  0
 10 11  1  0
 11 12  2  0
 12 13  1  0
 13 14  1  0
 14 15  2  0
 15 16  1  0
 16 17  2  0
 17 18  1  0
 18 19  2  0
 12 20  1  0
 20 21  2  0
  8 22  2  0
 22 23  1  0
 23 24  1  0
 24 25  1  0
 25 26  1  0
 26 27  1  0
 27 28  1  0
 27 29  1  0
  7  2  1  0
 21  9  1  0
 29 24  1  0
 23  6  1  0
 19 14  1  0
  1 30  1  0
  1 31  1  0
  4 32  1  0
 10 33  1  0
 11 34  1  0
 15 35  1  0
 16 36  1  0
 17 37  1  0
 18 38  1  0
 19 39  1  0
 20 40  1  0
 21 41  1  0
 22 42  1  0
 24 43  1  0
 25 44  1  0
 25 45  1  0
 26 46  1  0
 26 47  1  0
 27 48  1  0
 28 49  1  0
 29 50  1  0
 29 51  1  0
M  END
$$$$
