@<TRIPOS>MOLECULE
*****
 51 55 0 0 0
SMALL
GASTEIGER

@<TRIPOS>ATOM
      1 N           1.0704   -3.0175    0.3072 N.pl3   1  UNL1       -0.3425
      2 C          -0.3280   -2.9949    0.1343 C.ar    1  UNL1        0.1292
      3 N          -0.9802   -4.1503   -0.1201 N.ar    1  UNL1       -0.2204
      4 C          -2.3136   -4.1912   -0.2806 C.ar    1  UNL1        0.1204
      5 N          -3.0402   -3.0664   -0.1902 N.ar    1  UNL1       -0.2176
      6 C          -2.4370   -1.8789    0.0635 C.ar    1  UNL1        0.1466
      7 C          -1.0725   -1.8377    0.2271 C.ar    1  UNL1        0.0660
      8 C          -0.6966   -0.5354    0.4775 C.ar    1  UNL1        0.0122
      9 C           0.6325    0.0197    0.6926 C.ar    1  UNL1       -0.0155
     10 C           1.6846   -0.1687   -0.1773 C.ar    1  UNL1       -0.0505
     11 C           2.9454    0.3776    0.0912 C.ar    1  UNL1       -0.0188
     12 C           3.1704    1.1192    1.2320 C.ar    1  UNL1        0.1285
     13 O           4.4281    1.6671    1.5048 O.3     1  UNL1       -0.4560
     14 C           5.4545    1.4528    0.6053 C.ar    1  UNL1        0.1284
     15 C           6.2710    0.3664    0.7307 C.ar    1  UNL1       -0.0193
     16 C           7.2906    0.1769   -0.1844 C.ar    1  UNL1       -0.0583
     17 C           7.5182    1.0564   -1.2349 C.ar    1  UNL1       -0.0615
     18 C           6.6621    2.1382   -1.3136 C.ar    1  UNL1       -0.0583
     19 C           5.6367    2.3556   -0.4181 C.ar    1  UNL1       -0.0193
     20 C           2.1115    1.3022    2.0952 C.ar    1  UNL1       -0.0188
     21 C           0.8789    0.7650    1.8278 C.ar    1  UNL1       -0.0505
     22 C          -1.8986    0.1867    0.4555 C.ar    1  UNL1        0.0152
     23 N          -2.9309   -0.6288    0.2068 N.ar    1  UNL1       -0.3280
     24 C          -4.3207   -0.2956    0.1007 C.3     1  UNL1        0.0383
     25 C          -4.7304    0.8610    0.9769 C.3     1  UNL1       -0.0296
     26 C          -6.0513    1.2678    0.3568 C.3     1  UNL1       -0.0249
     27 C          -5.8054    1.1083   -1.1063 C.3     1  UNL1        0.0572
     28 O          -6.8901    0.5015   -1.7588 O.3     1  UNL1       -0.3917
     29 C          -4.5727    0.2719   -1.2888 C.3     1  UNL1       -0.0059
     30 H           1.4801   -2.8313    1.2329 H       1  UNL1        0.1437
     31 H           1.6771   -3.2216   -0.4991 H       1  UNL1        0.1437
     32 H          -2.8259   -5.1315   -0.4857 H       1  UNL1        0.1048
     33 H           1.5773   -0.7266   -1.0930 H       1  UNL1        0.0625
     34 H           3.7835    0.2416   -0.5769 H       1  UNL1        0.0654
     35 H           6.1686   -0.3792    1.5245 H       1  UNL1        0.0654
     36 H           7.9407   -0.6741   -0.0974 H       1  UNL1        0.0619
     37 H           8.3157    0.9091   -1.9514 H       1  UNL1        0.0618
     38 H           6.8270    2.8440   -2.1378 H       1  UNL1        0.0619
     39 H           4.9754    3.2232   -0.5083 H       1  UNL1        0.0654
     40 H           2.2982    1.8934    3.0001 H       1  UNL1        0.0654
     41 H           0.0874    0.9466    2.5491 H       1  UNL1        0.0625
     42 H          -1.9172    1.2532    0.6242 H       1  UNL1        0.0816
     43 H          -4.9657   -1.1422    0.3328 H       1  UNL1        0.0529
     44 H          -4.0395    1.7365    0.8477 H       1  UNL1        0.0286
     45 H          -4.8272    0.5694    2.0389 H       1  UNL1        0.0286
     46 H          -6.3335    2.2899    0.6521 H       1  UNL1        0.0291
     47 H          -6.8023    0.5092    0.7184 H       1  UNL1        0.0291
     48 H          -5.6498    2.1000   -1.5863 H       1  UNL1        0.0594
     49 H          -7.0833    0.9580   -2.6110 H       1  UNL1        0.2098
     50 H          -4.6763   -0.5140   -2.0357 H       1  UNL1        0.0310
     51 H          -3.6969    0.9173   -1.5412 H       1  UNL1        0.0310
@<TRIPOS>BOND
     1     1     2    1
     2     2     3   ar
     3     3     4   ar
     4     4     5   ar
     5     5     6   ar
     6     6     7   ar
     7     7     8   ar
     8     8     9    1
     9     9    10   ar
    10    10    11   ar
    11    11    12   ar
    12    12    13    1
    13    13    14    1
    14    14    15   ar
    15    15    16   ar
    16    16    17   ar
    17    17    18   ar
    18    18    19   ar
    19    12    20   ar
    20    20    21   ar
    21     8    22   ar
    22    22    23   ar
    23    23    24    1
    24    24    25    1
    25    25    26    1
    26    26    27    1
    27    27    28    1
    28    27    29    1
    29     7     2   ar
    30    21     9   ar
    31    29    24    1
    32    23     6   ar
    33    19    14   ar
    34     1    30    1
    35     1    31    1
    36     4    32    1
    37    10    33    1
    38    11    34    1
    39    15    35    1
    40    16    36    1
    41    17    37    1
    42    18    38    1
    43    19    39    1
    44    20    40    1
    45    21    41    1
    46    22    42    1
    47    24    43    1
    48    25    44    1
    49    25    45    1
    50    26    46    1
    51    26    47    1
    52    27    48    1
    53    28    49    1
    54    29    50    1
    55    29    51    1
