@<TRIPOS>MOLECULE
*****
 39 41 0 0 0
SMALL
GASTEIGER

@<TRIPOS>ATOM
      1 N          -4.9747    1.2764   -0.0519 N.3     1  UNL1       -0.3272
      2 C          -3.5935    0.8805   -0.3140 C.3     1  UNL1        0.0049
      3 C          -3.5122   -0.1618   -1.3850 C.3     1  UNL1       -0.0363
      4 C          -2.0227   -0.4473   -1.6063 C.3     1  UNL1       -0.0361
      5 C          -1.6082   -1.2994   -0.4283 C.3     1  UNL1        0.0080
      6 N          -0.2310   -1.4996   -0.2935 N.3     1  UNL1       -0.3099
      7 C           0.6704   -0.4202   -0.2452 C.3     1  UNL1        0.0153
      8 C           0.7678    0.6120    0.8057 C.3     1  UNL1       -0.0287
      9 C           1.7766   -0.5278    0.7556 C.3     1  UNL1        0.0011
     10 C           3.1394   -0.1055    0.4386 C.ar    1  UNL1       -0.0399
     11 C           4.2061   -0.6254    1.1420 C.ar    1  UNL1       -0.0554
     12 C           5.5131   -0.2653    0.8866 C.ar    1  UNL1       -0.0233
     13 C           5.7995    0.6461   -0.1029 C.ar    1  UNL1        0.1584
     14 F           7.0874    1.0242   -0.3807 F       1  UNL1       -0.2025
     15 C           4.7394    1.1758   -0.8167 C.ar    1  UNL1        0.1587
     16 F           5.0097    2.0731   -1.7918 F       1  UNL1       -0.2025
     17 C           3.4362    0.8179   -0.5630 C.ar    1  UNL1       -0.0201
     18 C          -2.3006   -0.9571    0.8520 C.3     1  UNL1       -0.0361
     19 C          -2.9007    0.4037    0.9208 C.3     1  UNL1       -0.0363
     20 H          -5.1398    2.2737   -0.2701 H       1  UNL1        0.1185
     21 H          -5.6675    0.6203   -0.4649 H       1  UNL1        0.1185
     22 H          -3.0845    1.7917   -0.7293 H       1  UNL1        0.0458
     23 H          -4.0337   -1.0829   -1.0558 H       1  UNL1        0.0281
     24 H          -3.9508    0.2171   -2.3241 H       1  UNL1        0.0281
     25 H          -1.4952    0.4999   -1.6830 H       1  UNL1        0.0281
     26 H          -1.9531   -0.9939   -2.5622 H       1  UNL1        0.0281
     27 H          -2.0380   -2.3339   -0.7050 H       1  UNL1        0.0460
     28 H           0.0187   -2.3436    0.2446 H       1  UNL1        0.1225
     29 H           1.0795   -0.1718   -1.2863 H       1  UNL1        0.0466
     30 H           1.1150    1.6303    0.4582 H       1  UNL1        0.0287
     31 H           0.0608    0.5985    1.6309 H       1  UNL1        0.0287
     32 H           1.6884   -1.2787    1.5678 H       1  UNL1        0.0364
     33 H           4.0155   -1.3543    1.9381 H       1  UNL1        0.0621
     34 H           6.3498   -0.6827    1.4495 H       1  UNL1        0.0647
     35 H           2.5891    1.2094   -1.0970 H       1  UNL1        0.0650
     36 H          -3.1162   -1.7079    1.0996 H       1  UNL1        0.0281
     37 H          -1.5819   -1.0643    1.7146 H       1  UNL1        0.0281
     38 H          -3.6733    0.3707    1.7355 H       1  UNL1        0.0281
     39 H          -2.1851    1.2023    1.2516 H       1  UNL1        0.0281
@<TRIPOS>BOND
     1     1     2    1
     2     2     3    1
     3     3     4    1
     4     4     5    1
     5     5     6    1
     6     6     7    1
     7     7     8    1
     8     8     9    1
     9     9    10    1
    10    10    11   ar
    11    11    12   ar
    12    12    13   ar
    13    13    14    1
    14    13    15   ar
    15    15    16    1
    16    15    17   ar
    17     5    18    1
    18    18    19    1
    19    19     2    1
    20     9     7    1
    21    17    10   ar
    22     1    20    1
    23     1    21    1
    24     2    22    1
    25     3    23    1
    26     3    24    1
    27     4    25    1
    28     4    26    1
    29     5    27    1
    30     6    28    1
    31     7    29    1
    32     8    30    1
    33     8    31    1
    34     9    32    1
    35    11    33    1
    36    12    34    1
    37    17    35    1
    38    18    36    1
    39    18    37    1
    40    19    38    1
    41    19    39    1
