
     RDKit          3D

 39 41  0  0  0  0  0  0  0  0999 V2000
   -4.9747    1.2764   -0.0519 N   0  0  0  0  0  0  0  0  0  0  0  0
   -3.5935    0.8805   -0.3140 C   0  0  0  0  0  0  0  0  0  0  0  0
   -3.5122   -0.1618   -1.3850 C   0  0  0  0  0  0  0  0  0  0  0  0
   -2.0227   -0.4473   -1.6063 C   0  0  0  0  0  0  0  0  0  0  0  0
   -1.6082   -1.2994   -0.4283 C   0  0  0  0  0  0  0  0  0  0  0  0
   -0.2310   -1.4996   -0.2935 N   0  0  0  0  0  0  0  0  0  0  0  0
    0.6704   -0.4202   -0.2452 C   0  0  0  0  0  0  0  0  0  0  0  0
    0.7678    0.6120    0.8057 C   0  0  0  0  0  0  0  0  0  0  0  0
    1.7766   -0.5278    0.7556 C   0  0  0  0  0  0  0  0  0  0  0  0
    3.1394   -0.1055    0.4386 C   0  0  0  0  0  0  0  0  0  0  0  0
    4.2061   -0.6254    1.1420 C   0  0  0  0  0  0  0  0  0  0  0  0
    5.5131   -0.2653    0.8866 C   0  0  0  0  0  0  0  0  0  0  0  0
    5.7995    0.6461   -0.1029 C   0  0  0  0  0  0  0  0  0  0  0  0
    7.0874    1.0242   -0.3807 F   0  0  0  0  0  0  0  0  0  0  0  0
    4.7394    1.1758   -0.8167 C   0  0  0  0  0  0  0  0  0  0  0  0
    5.0097    2.0731   -1.7918 F   0  0  0  0  0  0  0  0  0  0  0  0
    3.4362    0.8179   -0.5630 C   0  0  0  0  0  0  0  0  0  0  0  0
   -2.3006   -0.9571    0.8520 C   0  0  0  0  0  0  0  0  0  0  0  0
   -2.9007    0.4037    0.9208 C   0  0  0  0  0  0  0  0  0  0  0  0
   -5.1398    2.2737   -0.2701 H   0  0  0  0  0  0  0  0  0  0  0  0
   -5.6675    0.6203   -0.4649 H   0  0  0  0  0  0  0  0  0  0  0  0
   -3.0845    1.7917   -0.7293 H   0  0  0  0  0  0  0  0  0  0  0  0
   -4.0337   -1.0829   -1.0558 H   0  0  0  0  0  0  0  0  0  0  0  0
   -3.9508    0.2171   -2.3241 H   0  0  0  0  0  0  0  0  0  0  0  0
   -1.4952    0.4999   -1.6830 H   0  0  0  0  0  0  0  0  0  0  0  0
   -1.9531   -0.9939   -2.5622 H   0  0  0  0  0  0  0  0  0  0  0  0
   -2.0380   -2.3339   -0.7050 H   0  0  0  0  0  0  0  0  0  0  0  0
    0.0187   -2.3436    0.2446 H   0  0  0  0  0  0  0  0  0  0  0  0
    1.0795   -0.1718   -1.2863 H   0  0  0  0  0  0  0  0  0  0  0  0
    1.1150    1.6303    0.4582 H   0  0  0  0  0  0  0  0  0  0  0  0
    0.0608    0.5985    1.6309 H   0  0  0  0  0  0  0  0  0  0  0  0
    1.6884   -1.2787    1.5678 H   0  0  0  0  0  0  0  0  0  0  0  0
    4.0155   -1.3543    1.9381 H   0  0  0  0  0  0  0  0  0  0  0  0
    6.3498   -0.6827    1.4495 H   0  0  0  0  0  0  0  0  0  0  0  0
    2.5891    1.2094   -1.0970 H   0  0  0  0  0  0  0  0  0  0  0  0
   -3.1162   -1.7079    1.0996 H   0  0  0  0  0  0  0  0  0  0  0  0
   -1.5819   -1.0643    1.7146 H   0  0  0  0  0  0  0  0  0  0  0  0
   -3.6733    0.3707    1.7355 H   0  0  0  0  0  0  0  0  0  0  0  0
   -2.1851    1.2023    1.2516 H   0  0  0  0  0  0  0  0  0  0  0  0
  1  2  1  0
  2  3  1  0
  3  4  1  0
  4  5  1  0
  5  6  1  0
  6  7  1  0
  7  8  1  0
  8  9  1  0
  9 10  1  0
 10 11  2  0
 11 12  1  0
 12 13  2  0
 13 14  1  0
 13 15  1  0
 15 16  1  0
 15 17  2  0
  5 18  1  0
 18 19  1  0
 19  2  1  0
  9  7  1  0
 17 10  1  0
  1 20  1  0
  1 21  1  0
  2 22  1  0
  3 23  1  0
  3 24  1  0
  4 25  1  0
  4 26  1  0
  5 27  1  0
  6 28  1  0
  7 29  1  0
  8 30  1  0
  8 31  1  0
  9 32  1  0
 11 33  1  0
 12 34  1  0
 17 35  1  0
 18 36  1  0
 18 37  1  0
 19 38  1  0
 19 39  1  0
M  END
$$$$
