@<TRIPOS>MOLECULE
*****
 49 51 0 0 0
SMALL
GASTEIGER

@<TRIPOS>ATOM
      1 C          -1.5551    4.4530   -0.1705 C.3     1  UNL1        0.0789
      2 O          -0.3806    3.7180   -0.4012 O.3     1  UNL1       -0.4932
      3 C          -0.3463    2.3800   -0.0505 C.ar    1  UNL1        0.1413
      4 C          -1.4354    1.7618    0.5163 C.ar    1  UNL1       -0.0146
      5 C          -1.4318    0.4346    0.8753 C.ar    1  UNL1       -0.0391
      6 C          -2.6342   -0.1386    1.4714 C.3     1  UNL1        0.0024
      7 C          -3.5801   -0.7089    0.4816 C.ar    1  UNL1        0.0146
      8 C          -3.3803   -0.7153   -0.8634 C.ar    1  UNL1        0.0379
      9 N          -4.2796   -1.2467   -1.6721 N.ar    1  UNL1       -0.2227
     10 C          -5.4073   -1.7920   -1.2002 C.ar    1  UNL1        0.2142
     11 N          -6.3912   -2.3689   -2.0293 N.pl3   1  UNL1       -0.3274
     12 N          -5.6251   -1.7966    0.1247 N.ar    1  UNL1       -0.1999
     13 C          -4.7421   -1.2696    0.9820 C.ar    1  UNL1        0.1247
     14 N          -5.0099   -1.2942    2.3791 N.pl3   1  UNL1       -0.3428
     15 C          -0.2799   -0.2866    0.6491 C.ar    1  UNL1       -0.0531
     16 C           0.8460    0.2736    0.0846 C.ar    1  UNL1       -0.0223
     17 C           0.8004    1.6086   -0.2611 C.ar    1  UNL1        0.0726
     18 N           1.9215    2.2694   -0.8512 N.pl3   1  UNL1       -0.3404
     19 C           3.1823    1.5822   -0.9979 C.3     1  UNL1        0.0154
     20 C           3.2451    0.4235   -0.0386 C.3     1  UNL1        0.0128
     21 C           4.5896   -0.2314   -0.1882 C.3     1  UNL1        0.0970
     22 O           4.7668   -1.3341    0.6624 O.3     1  UNL1       -0.4645
     23 C           5.9819   -2.0036    0.5938 C.2     1  UNL1        0.3040
     24 C           6.2361   -3.1844    1.4706 C.3     1  UNL1        0.0332
     25 O           6.8699   -1.6119   -0.2108 O.2     1  UNL1       -0.2512
     26 C           2.0982   -0.5213   -0.1582 C.3     1  UNL1       -0.0185
     27 H          -1.4438    5.5059   -0.5140 H       1  UNL1        0.0660
     28 H          -2.4058    3.9472   -0.6899 H       1  UNL1        0.0660
     29 H          -1.7770    4.4148    0.9208 H       1  UNL1        0.0660
     30 H          -2.3188    2.4011    0.6663 H       1  UNL1        0.0657
     31 H          -3.1791    0.6620    2.0291 H       1  UNL1        0.0363
     32 H          -2.3466   -0.9250    2.1925 H       1  UNL1        0.0363
     33 H          -2.4439   -0.2589   -1.2114 H       1  UNL1        0.0834
     34 H          -6.9003   -1.7932   -2.7094 H       1  UNL1        0.1452
     35 H          -6.5983   -3.3756   -1.9496 H       1  UNL1        0.1452
     36 H          -4.3492   -1.7225    3.0304 H       1  UNL1        0.1437
     37 H          -5.8985   -0.8618    2.7061 H       1  UNL1        0.1437
     38 H          -0.2129   -1.3457    0.9121 H       1  UNL1        0.0624
     39 H           1.8296    3.2734   -1.1854 H       1  UNL1        0.1462
     40 H           4.0023    2.2905   -0.6835 H       1  UNL1        0.0465
     41 H           3.3522    1.2601   -2.0475 H       1  UNL1        0.0465
     42 H           3.2039    0.8635    0.9952 H       1  UNL1        0.0352
     43 H           5.3790    0.5057    0.0653 H       1  UNL1        0.0701
     44 H           4.7540   -0.5704   -1.2279 H       1  UNL1        0.0701
     45 H           7.2863   -3.0671    1.8593 H       1  UNL1        0.0342
     46 H           6.2139   -4.1344    0.9207 H       1  UNL1        0.0342
     47 H           5.5873   -3.1667    2.3700 H       1  UNL1        0.0342
     48 H           2.1576   -1.2436    0.6745 H       1  UNL1        0.0318
     49 H           2.0496   -1.0597   -1.1101 H       1  UNL1        0.0318
@<TRIPOS>BOND
     1     1     2    1
     2     2     3    1
     3     3     4   ar
     4     4     5   ar
     5     5     6    1
     6     6     7    1
     7     7     8   ar
     8     8     9   ar
     9     9    10   ar
    10    10    11    1
    11    10    12   ar
    12    12    13   ar
    13    13    14    1
    14     5    15   ar
    15    15    16   ar
    16    16    17   ar
    17    17    18    1
    18    18    19    1
    19    19    20    1
    20    20    21    1
    21    21    22    1
    22    22    23    1
    23    23    24    1
    24    23    25    2
    25    20    26    1
    26    17     3   ar
    27    13     7   ar
    28    26    16    1
    29     1    27    1
    30     1    28    1
    31     1    29    1
    32     4    30    1
    33     6    31    1
    34     6    32    1
    35     8    33    1
    36    11    34    1
    37    11    35    1
    38    14    36    1
    39    14    37    1
    40    15    38    1
    41    18    39    1
    42    19    40    1
    43    19    41    1
    44    20    42    1
    45    21    43    1
    46    21    44    1
    47    24    45    1
    48    24    46    1
    49    24    47    1
    50    26    48    1
    51    26    49    1
