
     RDKit          3D

 49 51  0  0  0  0  0  0  0  0999 V2000
   -1.5551    4.4530   -0.1705 C   0  0  0  0  0  0  0  0  0  0  0  0
   -0.3806    3.7180   -0.4012 O   0  0  0  0  0  0  0  0  0  0  0  0
   -0.3463    2.3800   -0.0505 C   0  0  0  0  0  0  0  0  0  0  0  0
   -1.4354    1.7618    0.5163 C   0  0  0  0  0  0  0  0  0  0  0  0
   -1.4318    0.4346    0.8753 C   0  0  0  0  0  0  0  0  0  0  0  0
   -2.6342   -0.1386    1.4714 C   0  0  0  0  0  0  0  0  0  0  0  0
   -3.5801   -0.7089    0.4816 C   0  0  0  0  0  0  0  0  0  0  0  0
   -3.3803   -0.7153   -0.8634 C   0  0  0  0  0  0  0  0  0  0  0  0
   -4.2796   -1.2467   -1.6721 N   0  0  0  0  0  0  0  0  0  0  0  0
   -5.4073   -1.7920   -1.2002 C   0  0  0  0  0  0  0  0  0  0  0  0
   -6.3912   -2.3689   -2.0293 N   0  0  0  0  0  0  0  0  0  0  0  0
   -5.6251   -1.7966    0.1247 N   0  0  0  0  0  0  0  0  0  0  0  0
   -4.7421   -1.2696    0.9820 C   0  0  0  0  0  0  0  0  0  0  0  0
   -5.0099   -1.2942    2.3791 N   0  0  0  0  0  0  0  0  0  0  0  0
   -0.2799   -0.2866    0.6491 C   0  0  0  0  0  0  0  0  0  0  0  0
    0.8460    0.2736    0.0846 C   0  0  0  0  0  0  0  0  0  0  0  0
    0.8004    1.6086   -0.2611 C   0  0  0  0  0  0  0  0  0  0  0  0
    1.9215    2.2694   -0.8512 N   0  0  0  0  0  0  0  0  0  0  0  0
    3.1823    1.5822   -0.9979 C   0  0  0  0  0  0  0  0  0  0  0  0
    3.2451    0.4235   -0.0386 C   0  0  0  0  0  0  0  0  0  0  0  0
    4.5896   -0.2314   -0.1882 C   0  0  0  0  0  0  0  0  0  0  0  0
    4.7668   -1.3341    0.6624 O   0  0  0  0  0  0  0  0  0  0  0  0
    5.9819   -2.0036    0.5938 C   0  0  0  0  0  0  0  0  0  0  0  0
    6.2361   -3.1844    1.4706 C   0  0  0  0  0  0  0  0  0  0  0  0
    6.8699   -1.6119   -0.2108 O   0  0  0  0  0  0  0  0  0  0  0  0
    2.0982   -0.5213   -0.1582 C   0  0  0  0  0  0  0  0  0  0  0  0
   -1.4438    5.5059   -0.5140 H   0  0  0  0  0  0  0  0  0  0  0  0
   -2.4058    3.9472   -0.6899 H   0  0  0  0  0  0  0  0  0  0  0  0
   -1.7770    4.4148    0.9208 H   0  0  0  0  0  0  0  0  0  0  0  0
   -2.3188    2.4011    0.6663 H   0  0  0  0  0  0  0  0  0  0  0  0
   -3.1791    0.6620    2.0291 H   0  0  0  0  0  0  0  0  0  0  0  0
   -2.3466   -0.9250    2.1925 H   0  0  0  0  0  0  0  0  0  0  0  0
   -2.4439   -0.2589   -1.2114 H   0  0  0  0  0  0  0  0  0  0  0  0
   -6.9003   -1.7932   -2.7094 H   0  0  0  0  0  0  0  0  0  0  0  0
   -6.5983   -3.3756   -1.9496 H   0  0  0  0  0  0  0  0  0  0  0  0
   -4.3492   -1.7225    3.0304 H   0  0  0  0  0  0  0  0  0  0  0  0
   -5.8985   -0.8618    2.7061 H   0  0  0  0  0  0  0  0  0  0  0  0
   -0.2129   -1.3457    0.9121 H   0  0  0  0  0  0  0  0  0  0  0  0
    1.8296    3.2734   -1.1854 H   0  0  0  0  0  0  0  0  0  0  0  0
    4.0023    2.2905   -0.6835 H   0  0  0  0  0  0  0  0  0  0  0  0
    3.3522    1.2601   -2.0475 H   0  0  0  0  0  0  0  0  0  0  0  0
    3.2039    0.8635    0.9952 H   0  0  0  0  0  0  0  0  0  0  0  0
    5.3790    0.5057    0.0653 H   0  0  0  0  0  0  0  0  0  0  0  0
    4.7540   -0.5704   -1.2279 H   0  0  0  0  0  0  0  0  0  0  0  0
    7.2863   -3.0671    1.8593 H   0  0  0  0  0  0  0  0  0  0  0  0
    6.2139   -4.1344    0.9207 H   0  0  0  0  0  0  0  0  0  0  0  0
    5.5873   -3.1667    2.3700 H   0  0  0  0  0  0  0  0  0  0  0  0
    2.1576   -1.2436    0.6745 H   0  0  0  0  0  0  0  0  0  0  0  0
    2.0496   -1.0597   -1.1101 H   0  0  0  0  0  0  0  0  0  0  0  0
  1  2  1  0
  2  3  1  0
  3  4  2  0
  4  5  1  0
  5  6  1  0
  6  7  1  0
  7  8  2  0
  8  9  1  0
  9 10  2  0
 10 11  1  0
 10 12  1  0
 12 13  2  0
 13 14  1  0
  5 15  2  0
 15 16  1  0
 16 17  2  0
 17 18  1  0
 18 19  1  0
 19 20  1  0
 20 21  1  0
 21 22  1  0
 22 23  1  0
 23 24  1  0
 23 25  2  0
 20 26  1  0
 17  3  1  0
 13  7  1  0
 26 16  1  0
  1 27  1  0
  1 28  1  0
  1 29  1  0
  4 30  1  0
  6 31  1  0
  6 32  1  0
  8 33  1  0
 11 34  1  0
 11 35  1  0
 14 36  1  0
 14 37  1  0
 15 38  1  0
 18 39  1  0
 19 40  1  0
 19 41  1  0
 20 42  1  0
 21 43  1  0
 21 44  1  0
 24 45  1  0
 24 46  1  0
 24 47  1  0
 26 48  1  0
 26 49  1  0
M  END
$$$$
