
     RDKit          3D

 67 70  0  0  0  0  0  0  0  0999 V2000
    4.3606   -0.0928   -1.4707 C   0  0  0  0  0  0  0  0  0  0  0  0
    3.9375   -0.0641   -0.0449 C   0  0  2  0  0  0  0  0  0  0  0  0
    4.2440   -1.3663    0.6859 C   0  0  0  0  0  0  0  0  0  0  0  0
    5.6701   -1.7226    0.7144 C   0  0  0  0  0  0  0  0  0  0  0  0
    6.6138   -0.8236    1.3442 C   0  0  0  0  0  0  0  0  0  0  0  0
    7.8451   -1.1745    1.2850 O   0  0  0  0  0  0  0  0  0  0  0  0
    6.3805    0.3562    1.9997 O   0  0  0  0  0  0  0  0  0  0  0  0
    2.6459    0.5319    0.2908 C   0  0  1  0  0  0  0  0  0  0  0  0
    2.6632    1.9831   -0.1510 C   0  0  0  0  0  0  0  0  0  0  0  0
    1.2203    2.4172   -0.2949 C   0  0  0  0  0  0  0  0  0  0  0  0
    0.4914    1.2097    0.1843 C   0  0  1  0  0  0  0  0  0  0  0  0
   -0.9217    1.0816   -0.2552 C   0  0  2  0  0  0  0  0  0  0  0  0
   -1.6655    2.2884    0.3323 C   0  0  0  0  0  0  0  0  0  0  0  0
   -2.9860    1.9068    0.9224 C   0  0  0  0  0  0  0  0  0  0  0  0
   -3.6738    0.9043   -0.0039 C   0  0  2  0  0  0  0  0  0  0  0  0
   -5.0616    0.7232    0.5201 C   0  0  0  0  0  0  0  0  0  0  0  0
   -5.7772   -0.4682   -0.0277 C   0  0  2  0  0  0  0  0  0  0  0  0
   -6.9936   -0.5731    0.6779 O   0  0  0  0  0  0  0  0  0  0  0  0
   -4.9400   -1.7000    0.1581 C   0  0  0  0  0  0  0  0  0  0  0  0
   -3.5869   -1.3953    0.7675 C   0  0  0  0  0  0  0  0  0  0  0  0
   -2.8790   -0.3721   -0.1104 C   0  0  1  0  0  0  0  0  0  0  0  0
   -2.9090   -0.8286   -1.5374 C   0  0  0  0  0  0  0  0  0  0  0  0
   -1.5016   -0.1269    0.4309 C   0  0  1  0  0  0  0  0  0  0  0  0
   -0.6770   -1.3490    0.2982 C   0  0  0  0  0  0  0  0  0  0  0  0
    0.7975   -1.1579    0.5439 C   0  0  0  0  0  0  0  0  0  0  0  0
    1.3712    0.0315   -0.1924 C   0  0  2  0  0  0  0  0  0  0  0  0
    1.2176   -0.2201   -1.6449 C   0  0  0  0  0  0  0  0  0  0  0  0
    4.4536   -1.1521   -1.8629 H   0  0  0  0  0  0  0  0  0  0  0  0
    5.4032    0.3170   -1.6387 H   0  0  0  0  0  0  0  0  0  0  0  0
    3.7326    0.4148   -2.1939 H   0  0  0  0  0  0  0  0  0  0  0  0
    4.6781    0.6431    0.4573 H   0  0  0  0  0  0  0  0  0  0  0  0
    3.8763   -1.2724    1.7336 H   0  0  0  0  0  0  0  0  0  0  0  0
    3.6956   -2.2213    0.2494 H   0  0  0  0  0  0  0  0  0  0  0  0
    5.9995   -1.9812   -0.3357 H   0  0  0  0  0  0  0  0  0  0  0  0
    5.7444   -2.7156    1.2524 H   0  0  0  0  0  0  0  0  0  0  0  0
    7.0674    1.1064    1.8755 H   0  0  0  0  0  0  0  0  0  0  0  0
    2.5856    0.5781    1.4203 H   0  0  0  0  0  0  0  0  0  0  0  0
    3.2045    2.6003    0.6023 H   0  0  0  0  0  0  0  0  0  0  0  0
    3.1488    2.0352   -1.1416 H   0  0  0  0  0  0  0  0  0  0  0  0
    0.9771    3.2579    0.4123 H   0  0  0  0  0  0  0  0  0  0  0  0
    0.9387    2.6498   -1.3226 H   0  0  0  0  0  0  0  0  0  0  0  0
    0.4961    1.2391    1.3012 H   0  0  0  0  0  0  0  0  0  0  0  0
   -1.0818    1.1313   -1.3306 H   0  0  0  0  0  0  0  0  0  0  0  0
   -1.0710    2.7570    1.1664 H   0  0  0  0  0  0  0  0  0  0  0  0
   -1.7562    3.0850   -0.4316 H   0  0  0  0  0  0  0  0  0  0  0  0
   -2.9461    1.5640    1.9619 H   0  0  0  0  0  0  0  0  0  0  0  0
   -3.6350    2.8302    0.8791 H   0  0  0  0  0  0  0  0  0  0  0  0
   -3.7157    1.4026   -1.0025 H   0  0  0  0  0  0  0  0  0  0  0  0
   -5.6292    1.6619    0.2669 H   0  0  0  0  0  0  0  0  0  0  0  0
   -5.0165    0.6435    1.6221 H   0  0  0  0  0  0  0  0  0  0  0  0
   -6.0752   -0.2755   -1.0766 H   0  0  0  0  0  0  0  0  0  0  0  0
   -7.0915   -1.4527    1.0910 H   0  0  0  0  0  0  0  0  0  0  0  0
   -4.8482   -2.2343   -0.8103 H   0  0  0  0  0  0  0  0  0  0  0  0
   -5.4777   -2.3794    0.8561 H   0  0  0  0  0  0  0  0  0  0  0  0
   -3.7310   -0.9633    1.7589 H   0  0  0  0  0  0  0  0  0  0  0  0
   -3.0167   -2.3467    0.7489 H   0  0  0  0  0  0  0  0  0  0  0  0
   -3.8988   -0.5792   -2.0173 H   0  0  0  0  0  0  0  0  0  0  0  0
   -2.8624   -1.9543   -1.6027 H   0  0  0  0  0  0  0  0  0  0  0  0
   -2.1616   -0.3531   -2.1941 H   0  0  0  0  0  0  0  0  0  0  0  0
   -1.6053    0.0983    1.5135 H   0  0  0  0  0  0  0  0  0  0  0  0
   -0.8780   -1.9097   -0.6567 H   0  0  0  0  0  0  0  0  0  0  0  0
   -1.0233   -2.0686    1.0983 H   0  0  0  0  0  0  0  0  0  0  0  0
    1.2574   -2.0684    0.0805 H   0  0  0  0  0  0  0  0  0  0  0  0
    1.0199   -1.0818    1.6193 H   0  0  0  0  0  0  0  0  0  0  0  0
    1.3099    0.6690   -2.2914 H   0  0  0  0  0  0  0  0  0  0  0  0
    1.8659   -1.0705   -2.0113 H   0  0  0  0  0  0  0  0  0  0  0  0
    0.1805   -0.6035   -1.8095 H   0  0  0  0  0  0  0  0  0  0  0  0
  1  2  1  0
  2  3  1  0
  3  4  1  0
  4  5  1  0
  5  6  2  0
  5  7  1  0
  2  8  1  0
  8  9  1  0
  9 10  1  0
 10 11  1  0
 11 12  1  0
 12 13  1  0
 13 14  1  0
 14 15  1  0
 15 16  1  0
 16 17  1  0
 17 18  1  0
 17 19  1  0
 19 20  1  0
 20 21  1  0
 21 22  1  6
 21 23  1  0
 23 24  1  0
 24 25  1  0
 25 26  1  0
 26 27  1  6
 26  8  1  0
 26 11  1  0
 23 12  1  0
 21 15  1  0
  1 28  1  0
  1 29  1  0
  1 30  1  0
  2 31  1  1
  3 32  1  0
  3 33  1  0
  4 34  1  0
  4 35  1  0
  7 36  1  0
  8 37  1  1
  9 38  1  0
  9 39  1  0
 10 40  1  0
 10 41  1  0
 11 42  1  1
 12 43  1  6
 13 44  1  0
 13 45  1  0
 14 46  1  0
 14 47  1  0
 15 48  1  6
 16 49  1  0
 16 50  1  0
 17 51  1  6
 18 52  1  0
 19 53  1  0
 19 54  1  0
 20 55  1  0
 20 56  1  0
 22 57  1  0
 22 58  1  0
 22 59  1  0
 23 60  1  1
 24 61  1  0
 24 62  1  0
 25 63  1  0
 25 64  1  0
 27 65  1  0
 27 66  1  0
 27 67  1  0
M  END
$$$$
