@<TRIPOS>MOLECULE
*****
 67 70 0 0 0
SMALL
GASTEIGER

@<TRIPOS>ATOM
      1 C           4.3606   -0.0928   -1.4707 C.3     1  UNL1       -0.0621
      2 C           3.9375   -0.0641   -0.0449 C.3     1  UNL1       -0.0400
      3 C           4.2440   -1.3663    0.6859 C.3     1  UNL1       -0.0401
      4 C           5.6701   -1.7226    0.7144 C.3     1  UNL1        0.0450
      5 C           6.6138   -0.8236    1.3442 C.2     1  UNL1        0.3047
      6 O           7.8451   -1.1745    1.2850 O.2     1  UNL1       -0.2510
      7 O           6.3805    0.3562    1.9997 O.3     1  UNL1       -0.4806
      8 C           2.6459    0.5319    0.2908 C.3     1  UNL1       -0.0328
      9 C           2.6632    1.9831   -0.1510 C.3     1  UNL1       -0.0492
     10 C           1.2203    2.4172   -0.2949 C.3     1  UNL1       -0.0492
     11 C           0.4914    1.2097    0.1843 C.3     1  UNL1       -0.0323
     12 C          -0.9217    1.0816   -0.2552 C.3     1  UNL1       -0.0344
     13 C          -1.6655    2.2884    0.3323 C.3     1  UNL1       -0.0494
     14 C          -2.9860    1.9068    0.9224 C.3     1  UNL1       -0.0494
     15 C          -3.6738    0.9043   -0.0039 C.3     1  UNL1       -0.0330
     16 C          -5.0616    0.7232    0.5201 C.3     1  UNL1       -0.0235
     17 C          -5.7772   -0.4682   -0.0277 C.3     1  UNL1        0.0555
     18 O          -6.9936   -0.5731    0.6779 O.3     1  UNL1       -0.3918
     19 C          -4.9400   -1.7000    0.1581 C.3     1  UNL1       -0.0263
     20 C          -3.5869   -1.3953    0.7675 C.3     1  UNL1       -0.0448
     21 C          -2.8790   -0.3721   -0.1104 C.3     1  UNL1       -0.0260
     22 C          -2.9090   -0.8286   -1.5374 C.3     1  UNL1       -0.0590
     23 C          -1.5016   -0.1269    0.4309 C.3     1  UNL1       -0.0323
     24 C          -0.6770   -1.3490    0.2982 C.3     1  UNL1       -0.0489
     25 C           0.7975   -1.1579    0.5439 C.3     1  UNL1       -0.0468
     26 C           1.3712    0.0315   -0.1924 C.3     1  UNL1       -0.0259
     27 C           1.2176   -0.2201   -1.6449 C.3     1  UNL1       -0.0590
     28 H           4.4536   -1.1521   -1.8629 H       1  UNL1        0.0233
     29 H           5.4032    0.3170   -1.6387 H       1  UNL1        0.0233
     30 H           3.7326    0.4148   -2.1939 H       1  UNL1        0.0233
     31 H           4.6781    0.6431    0.4573 H       1  UNL1        0.0301
     32 H           3.8763   -1.2724    1.7336 H       1  UNL1        0.0273
     33 H           3.6956   -2.2213    0.2494 H       1  UNL1        0.0273
     34 H           5.9995   -1.9812   -0.3357 H       1  UNL1        0.0378
     35 H           5.7444   -2.7156    1.2524 H       1  UNL1        0.0378
     36 H           7.0674    1.1064    1.8755 H       1  UNL1        0.2951
     37 H           2.5856    0.5781    1.4203 H       1  UNL1        0.0309
     38 H           3.2045    2.6003    0.6023 H       1  UNL1        0.0268
     39 H           3.1488    2.0352   -1.1416 H       1  UNL1        0.0268
     40 H           0.9771    3.2579    0.4123 H       1  UNL1        0.0268
     41 H           0.9387    2.6498   -1.3226 H       1  UNL1        0.0268
     42 H           0.4961    1.2391    1.3012 H       1  UNL1        0.0309
     43 H          -1.0818    1.1313   -1.3306 H       1  UNL1        0.0306
     44 H          -1.0710    2.7570    1.1664 H       1  UNL1        0.0268
     45 H          -1.7562    3.0850   -0.4316 H       1  UNL1        0.0268
     46 H          -2.9461    1.5640    1.9619 H       1  UNL1        0.0268
     47 H          -3.6350    2.8302    0.8791 H       1  UNL1        0.0268
     48 H          -3.7157    1.4026   -1.0025 H       1  UNL1        0.0307
     49 H          -5.6292    1.6619    0.2669 H       1  UNL1        0.0293
     50 H          -5.0165    0.6435    1.6221 H       1  UNL1        0.0293
     51 H          -6.0752   -0.2755   -1.0766 H       1  UNL1        0.0593
     52 H          -7.0915   -1.4527    1.0910 H       1  UNL1        0.2098
     53 H          -4.8482   -2.2343   -0.8103 H       1  UNL1        0.0290
     54 H          -5.4777   -2.3794    0.8561 H       1  UNL1        0.0290
     55 H          -3.7310   -0.9633    1.7589 H       1  UNL1        0.0271
     56 H          -3.0167   -2.3467    0.7489 H       1  UNL1        0.0271
     57 H          -3.8988   -0.5792   -2.0173 H       1  UNL1        0.0235
     58 H          -2.8624   -1.9543   -1.6027 H       1  UNL1        0.0235
     59 H          -2.1616   -0.3531   -2.1941 H       1  UNL1        0.0235
     60 H          -1.6053    0.0983    1.5135 H       1  UNL1        0.0309
     61 H          -0.8780   -1.9097   -0.6567 H       1  UNL1        0.0268
     62 H          -1.0233   -2.0686    1.0983 H       1  UNL1        0.0268
     63 H           1.2574   -2.0684    0.0805 H       1  UNL1        0.0271
     64 H           1.0199   -1.0818    1.6193 H       1  UNL1        0.0271
     65 H           1.3099    0.6690   -2.2914 H       1  UNL1        0.0235
     66 H           1.8659   -1.0705   -2.0113 H       1  UNL1        0.0235
     67 H           0.1805   -0.6035   -1.8095 H       1  UNL1        0.0235
@<TRIPOS>BOND
     1     1     2    1
     2     2     3    1
     3     3     4    1
     4     4     5    1
     5     5     6    2
     6     5     7    1
     7     2     8    1
     8     8     9    1
     9     9    10    1
    10    10    11    1
    11    11    12    1
    12    12    13    1
    13    13    14    1
    14    14    15    1
    15    15    16    1
    16    16    17    1
    17    17    18    1
    18    17    19    1
    19    19    20    1
    20    20    21    1
    21    21    22    1
    22    21    23    1
    23    23    24    1
    24    24    25    1
    25    25    26    1
    26    26    27    1
    27    26     8    1
    28    26    11    1
    29    23    12    1
    30    21    15    1
    31     1    28    1
    32     1    29    1
    33     1    30    1
    34     2    31    1
    35     3    32    1
    36     3    33    1
    37     4    34    1
    38     4    35    1
    39     7    36    1
    40     8    37    1
    41     9    38    1
    42     9    39    1
    43    10    40    1
    44    10    41    1
    45    11    42    1
    46    12    43    1
    47    13    44    1
    48    13    45    1
    49    14    46    1
    50    14    47    1
    51    15    48    1
    52    16    49    1
    53    16    50    1
    54    17    51    1
    55    18    52    1
    56    19    53    1
    57    19    54    1
    58    20    55    1
    59    20    56    1
    60    22    57    1
    61    22    58    1
    62    22    59    1
    63    23    60    1
    64    24    61    1
    65    24    62    1
    66    25    63    1
    67    25    64    1
    68    27    65    1
    69    27    66    1
    70    27    67    1
