@<TRIPOS>MOLECULE
*****
 35 37 0 0 0
SMALL
GASTEIGER

@<TRIPOS>ATOM
      1 C          -5.0574   -1.2866    0.0864 C.3     1  UNL1       -0.0211
      2 C          -4.5008    0.0545    0.4103 C.ar    1  UNL1        0.0567
      3 C          -3.1830    0.2469    0.3513 C.ar    1  UNL1        0.0618
      4 S          -3.0568    1.9683    0.8215 S.2     1  UNL1       -0.0508
      5 C          -4.9263    2.1629    1.0355 C.ar    1  UNL1        0.1563
      6 N          -5.5746    3.3578    1.4245 N.pl3   1  UNL1       -0.3375
      7 N          -5.2262    1.0992    0.7640 N.ar    1  UNL1       -0.2297
      8 C          -1.9653   -0.4829    0.0455 C.ar    1  UNL1        0.0844
      9 N          -0.7662    0.0830    0.1304 N.ar    1  UNL1       -0.2136
     10 C           0.4216   -0.4696   -0.1149 C.ar    1  UNL1        0.2200
     11 N           1.5618    0.3555    0.0518 N.pl3   1  UNL1       -0.2834
     12 C           2.9013   -0.0067   -0.1456 C.ar    1  UNL1        0.0400
     13 C           3.3997   -1.2263   -0.5427 C.ar    1  UNL1       -0.0400
     14 C           4.7270   -1.5418   -0.7250 C.ar    1  UNL1       -0.0536
     15 C           5.6730   -0.5864   -0.5027 C.ar    1  UNL1        0.0157
     16 C           5.2505    0.6470   -0.1065 C.ar    1  UNL1        0.2749
     17 C           3.9307    0.9137    0.0607 C.ar    1  UNL1        0.0368
     18 N           6.2388    1.6488    0.1269 N.pl3   1  UNL1        0.0797
     19 O           7.5781    1.4068   -0.0342 O.co2   1  UNL1       -0.5760
     20 O           5.9364    2.8125    0.4943 O.2     1  UNL1        0.0414
     21 N           0.4452   -1.7507   -0.4958 N.ar    1  UNL1       -0.2226
     22 C          -0.6809   -2.4646   -0.6297 C.ar    1  UNL1        0.0332
     23 C          -1.8444   -1.7928   -0.3507 C.ar    1  UNL1       -0.0168
     24 H          -4.6613   -2.0842    0.7815 H       1  UNL1        0.0293
     25 H          -4.8784   -1.6225   -0.9369 H       1  UNL1        0.0293
     26 H          -6.1617   -1.3195    0.2986 H       1  UNL1        0.0293
     27 H          -5.7295    3.6355    2.4209 H       1  UNL1        0.1442
     28 H          -5.9994    4.1480    0.8600 H       1  UNL1        0.1442
     29 H           1.4191    1.3619    0.3586 H       1  UNL1        0.1550
     30 H           2.7115   -2.0287   -0.7366 H       1  UNL1        0.0636
     31 H           5.0399   -2.5202   -1.0378 H       1  UNL1        0.0620
     32 H           6.7089   -0.7822   -0.6299 H       1  UNL1        0.0685
     33 H           3.6871    1.9371    0.3823 H       1  UNL1        0.0704
     34 H          -0.6819   -3.5012   -0.9366 H       1  UNL1        0.0831
     35 H          -2.7366   -2.3723   -0.4634 H       1  UNL1        0.0654
@<TRIPOS>UNITY_ATOM_ATTR
18 1
charge 1
19 1
charge -1
@<TRIPOS>BOND
     1     1     2    1
     2     2     3   ar
     3     3     4   ar
     4     4     5   ar
     5     5     6    1
     6     5     7   ar
     7     3     8    1
     8     8     9   ar
     9     9    10   ar
    10    10    11    1
    11    11    12    1
    12    12    13   ar
    13    13    14   ar
    14    14    15   ar
    15    15    16   ar
    16    16    17   ar
    17    16    18    1
    18    18    19    1
    19    18    20    2
    20    10    21   ar
    21    21    22   ar
    22    22    23   ar
    23     7     2   ar
    24    23     8   ar
    25    17    12   ar
    26     1    24    1
    27     1    25    1
    28     1    26    1
    29     6    27    1
    30     6    28    1
    31    11    29    1
    32    13    30    1
    33    14    31    1
    34    15    32    1
    35    17    33    1
    36    22    34    1
    37    23    35    1
