
     RDKit          3D

 57 62  0  0  0  0  0  0  0  0999 V2000
   -9.4081   -1.6681    1.4341 N   0  0  0  0  0  0  0  0  0  0  0  0
   -8.6013   -1.2065    0.3701 C   0  0  0  0  0  0  0  0  0  0  0  0
   -8.9268   -1.3536   -0.8405 O   0  0  0  0  0  0  0  0  0  0  0  0
   -7.3532   -0.5395    0.7139 C   0  0  0  0  0  0  0  0  0  0  0  0
   -6.9443   -0.3551    2.0063 C   0  0  0  0  0  0  0  0  0  0  0  0
   -5.7624    0.2777    2.3329 C   0  0  0  0  0  0  0  0  0  0  0  0
   -4.9598    0.7434    1.3264 C   0  0  0  0  0  0  0  0  0  0  0  0
   -5.3347    0.5783    0.0028 C   0  0  0  0  0  0  0  0  0  0  0  0
   -4.5262    1.0476   -0.9858 C   0  0  0  0  0  0  0  0  0  0  0  0
   -3.2458    1.7362   -0.7364 C   0  0  0  0  0  0  0  0  0  0  0  0
   -3.0298    3.0736   -0.5598 C   0  0  0  0  0  0  0  0  0  0  0  0
   -1.7234    3.2632   -0.3608 N   0  0  0  0  0  0  0  0  0  0  0  0
   -1.1261    2.0899   -0.4086 N   0  0  0  0  0  0  0  0  0  0  0  0
    0.1896    1.7463   -0.2678 C   0  0  0  0  0  0  0  0  0  0  0  0
    0.6206    0.4405   -0.3535 C   0  0  0  0  0  0  0  0  0  0  0  0
    2.0347    0.1268   -0.1968 C   0  0  0  0  0  0  0  0  0  0  0  0
    2.6440   -0.9395   -0.8462 C   0  0  0  0  0  0  0  0  0  0  0  0
    3.9803   -1.1778   -0.6547 C   0  0  0  0  0  0  0  0  0  0  0  0
    4.7493   -0.3756    0.1782 C   0  0  0  0  0  0  0  0  0  0  0  0
    6.1156   -0.6866    0.3220 N   0  0  0  0  0  0  0  0  0  0  0  0
    7.0740    0.0436    1.1103 C   0  0  0  0  0  0  0  0  0  0  0  0
    8.3659    0.3082    0.3707 C   0  0  0  0  0  0  0  0  0  0  0  0
    8.8765   -0.8260   -0.3348 N   0  0  0  0  0  0  0  0  0  0  0  0
    8.1261   -2.0376   -0.0813 C   0  0  0  0  0  0  0  0  0  0  0  0
    6.6545   -1.8598   -0.3789 C   0  0  0  0  0  0  0  0  0  0  0  0
    4.1584    0.7003    0.8403 C   0  0  0  0  0  0  0  0  0  0  0  0
    2.8034    0.9124    0.6233 C   0  0  0  0  0  0  0  0  0  0  0  0
   -0.3417   -0.5121   -0.5894 C   0  0  0  0  0  0  0  0  0  0  0  0
   -1.6278   -0.1764   -0.7270 N   0  0  0  0  0  0  0  0  0  0  0  0
   -2.0238    1.1180   -0.6379 C   0  0  0  0  0  0  0  0  0  0  0  0
   -4.9000    0.8839   -2.3022 C   0  0  0  0  0  0  0  0  0  0  0  0
   -6.1117    0.2328   -2.5575 C   0  0  0  0  0  0  0  0  0  0  0  0
   -6.8871   -0.2181   -1.5784 N   0  0  0  0  0  0  0  0  0  0  0  0
   -6.5400   -0.0682   -0.2902 C   0  0  0  0  0  0  0  0  0  0  0  0
   -9.5336   -1.0722    2.2736 H   0  0  0  0  0  0  0  0  0  0  0  0
   -9.8689   -2.5959    1.3711 H   0  0  0  0  0  0  0  0  0  0  0  0
   -7.5814   -0.7243    2.7960 H   0  0  0  0  0  0  0  0  0  0  0  0
   -5.5153    0.3815    3.3756 H   0  0  0  0  0  0  0  0  0  0  0  0
   -4.0462    1.2327    1.5712 H   0  0  0  0  0  0  0  0  0  0  0  0
   -3.8375    3.8118   -0.5887 H   0  0  0  0  0  0  0  0  0  0  0  0
    0.9189    2.5157   -0.0837 H   0  0  0  0  0  0  0  0  0  0  0  0
    2.0418   -1.5715   -1.5010 H   0  0  0  0  0  0  0  0  0  0  0  0
    4.4372   -2.0116   -1.1681 H   0  0  0  0  0  0  0  0  0  0  0  0
    7.3176   -0.5343    2.0494 H   0  0  0  0  0  0  0  0  0  0  0  0
    6.7043    1.0217    1.4666 H   0  0  0  0  0  0  0  0  0  0  0  0
    8.1681    1.1169   -0.3613 H   0  0  0  0  0  0  0  0  0  0  0  0
    9.1367    0.6348    1.0947 H   0  0  0  0  0  0  0  0  0  0  0  0
    9.0234   -0.6547   -1.3539 H   0  0  0  0  0  0  0  0  0  0  0  0
    8.3001   -2.3782    0.9383 H   0  0  0  0  0  0  0  0  0  0  0  0
    8.5038   -2.8098   -0.7823 H   0  0  0  0  0  0  0  0  0  0  0  0
    6.1073   -2.7267    0.0445 H   0  0  0  0  0  0  0  0  0  0  0  0
    6.4441   -1.7982   -1.4526 H   0  0  0  0  0  0  0  0  0  0  0  0
    4.7362    1.3353    1.4924 H   0  0  0  0  0  0  0  0  0  0  0  0
    2.3710    1.7583    1.1529 H   0  0  0  0  0  0  0  0  0  0  0  0
   -0.0677   -1.5527   -0.6671 H   0  0  0  0  0  0  0  0  0  0  0  0
   -4.3318    1.2182   -3.1445 H   0  0  0  0  0  0  0  0  0  0  0  0
   -6.4473    0.0812   -3.5883 H   0  0  0  0  0  0  0  0  0  0  0  0
  1  2  1  0
  2  3  2  0
  2  4  1  0
  4  5  2  0
  5  6  1  0
  6  7  2  0
  7  8  1  0
  8  9  2  0
  9 10  1  0
 10 11  1  0
 11 12  2  0
 12 13  1  0
 13 14  1  0
 14 15  2  0
 15 16  1  0
 16 17  2  0
 17 18  1  0
 18 19  2  0
 19 20  1  0
 20 21  1  0
 21 22  1  0
 22 23  1  0
 23 24  1  0
 24 25  1  0
 19 26  1  0
 26 27  2  0
 15 28  1  0
 28 29  2  0
 29 30  1  0
  9 31  1  0
 31 32  2  0
 32 33  1  0
 33 34  2  0
 34  4  1  0
 34  8  1  0
 30 10  2  0
 30 13  1  0
 27 16  1  0
 25 20  1  0
  1 35  1  0
  1 36  1  0
  5 37  1  0
  6 38  1  0
  7 39  1  0
 11 40  1  0
 14 41  1  0
 17 42  1  0
 18 43  1  0
 21 44  1  0
 21 45  1  0
 22 46  1  0
 22 47  1  0
 23 48  1  0
 24 49  1  0
 24 50  1  0
 25 51  1  0
 25 52  1  0
 26 53  1  0
 27 54  1  0
 28 55  1  0
 31 56  1  0
 32 57  1  0
M  END
$$$$
