@<TRIPOS>MOLECULE
*****
 57 62 0 0 0
SMALL
GASTEIGER

@<TRIPOS>ATOM
      1 N          -9.4081   -1.6681    1.4341 N.am    1  UNL1       -0.3253
      2 C          -8.6013   -1.2065    0.3701 C.2     1  UNL1        0.2436
      3 O          -8.9268   -1.3536   -0.8405 O.2     1  UNL1       -0.2703
      4 C          -7.3532   -0.5395    0.7139 C.ar    1  UNL1        0.0624
      5 C          -6.9443   -0.3551    2.0063 C.ar    1  UNL1       -0.0475
      6 C          -5.7624    0.2777    2.3329 C.ar    1  UNL1       -0.0603
      7 C          -4.9598    0.7434    1.3264 C.ar    1  UNL1       -0.0519
      8 C          -5.3347    0.5783    0.0028 C.ar    1  UNL1        0.0090
      9 C          -4.5262    1.0476   -0.9858 C.ar    1  UNL1       -0.0022
     10 C          -3.2458    1.7362   -0.7364 C.ar    1  UNL1        0.0467
     11 C          -3.0298    3.0736   -0.5598 C.ar    1  UNL1        0.0597
     12 N          -1.7234    3.2632   -0.3608 N.ar    1  UNL1       -0.1727
     13 N          -1.1261    2.0899   -0.4086 N.ar    1  UNL1       -0.2206
     14 C           0.1896    1.7463   -0.2678 C.ar    1  UNL1        0.0406
     15 C           0.6206    0.4405   -0.3535 C.ar    1  UNL1        0.0184
     16 C           2.0347    0.1268   -0.1968 C.ar    1  UNL1       -0.0149
     17 C           2.6440   -0.9395   -0.8462 C.ar    1  UNL1       -0.0522
     18 C           3.9803   -1.1778   -0.6547 C.ar    1  UNL1       -0.0401
     19 C           4.7493   -0.3756    0.1782 C.ar    1  UNL1        0.0298
     20 N           6.1156   -0.6866    0.3220 N.pl3   1  UNL1       -0.3275
     21 C           7.0740    0.0436    1.1103 C.3     1  UNL1        0.0248
     22 C           8.3659    0.3082    0.3707 C.3     1  UNL1        0.0117
     23 N           8.8765   -0.8260   -0.3348 N.3     1  UNL1       -0.3130
     24 C           8.1261   -2.0376   -0.0813 C.3     1  UNL1        0.0117
     25 C           6.6545   -1.8598   -0.3789 C.3     1  UNL1        0.0248
     26 C           4.1584    0.7003    0.8403 C.ar    1  UNL1       -0.0401
     27 C           2.8034    0.9124    0.6233 C.ar    1  UNL1       -0.0522
     28 C          -0.3417   -0.5121   -0.5894 C.ar    1  UNL1        0.0391
     29 N          -1.6278   -0.1764   -0.7270 N.ar    1  UNL1       -0.2350
     30 C          -2.0238    1.1180   -0.6379 C.ar    1  UNL1        0.1632
     31 C          -4.9000    0.8839   -2.3022 C.ar    1  UNL1       -0.0351
     32 C          -6.1117    0.2328   -2.5575 C.ar    1  UNL1        0.0289
     33 N          -6.8871   -0.2181   -1.5784 N.ar    1  UNL1       -0.2542
     34 C          -6.5400   -0.0682   -0.2902 C.ar    1  UNL1        0.0836
     35 H          -9.5336   -1.0722    2.2736 H       1  UNL1        0.1453
     36 H          -9.8689   -2.5959    1.3711 H       1  UNL1        0.1453
     37 H          -7.5814   -0.7243    2.7960 H       1  UNL1        0.0626
     38 H          -5.5153    0.3815    3.3756 H       1  UNL1        0.0618
     39 H          -4.0462    1.2327    1.5712 H       1  UNL1        0.0624
     40 H          -3.8375    3.8118   -0.5887 H       1  UNL1        0.0855
     41 H           0.9189    2.5157   -0.0837 H       1  UNL1        0.0837
     42 H           2.0418   -1.5715   -1.5010 H       1  UNL1        0.0624
     43 H           4.4372   -2.0116   -1.1681 H       1  UNL1        0.0636
     44 H           7.3176   -0.5343    2.0494 H       1  UNL1        0.0476
     45 H           6.7043    1.0217    1.4666 H       1  UNL1        0.0476
     46 H           8.1681    1.1169   -0.3613 H       1  UNL1        0.0439
     47 H           9.1367    0.6348    1.0947 H       1  UNL1        0.0439
     48 H           9.0234   -0.6547   -1.3539 H       1  UNL1        0.1220
     49 H           8.3001   -2.3782    0.9383 H       1  UNL1        0.0439
     50 H           8.5038   -2.8098   -0.7823 H       1  UNL1        0.0439
     51 H           6.1073   -2.7267    0.0445 H       1  UNL1        0.0476
     52 H           6.4441   -1.7982   -1.4526 H       1  UNL1        0.0476
     53 H           4.7362    1.3353    1.4924 H       1  UNL1        0.0636
     54 H           2.3710    1.7583    1.1529 H       1  UNL1        0.0624
     55 H          -0.0677   -1.5527   -0.6671 H       1  UNL1        0.0837
     56 H          -4.3318    1.2182   -3.1445 H       1  UNL1        0.0639
     57 H          -6.4473    0.0812   -3.5883 H       1  UNL1        0.0830
@<TRIPOS>BOND
     1     1     2   am
     2     2     3    2
     3     2     4    1
     4     4     5   ar
     5     5     6   ar
     6     6     7   ar
     7     7     8   ar
     8     8     9   ar
     9     9    10    1
    10    10    11   ar
    11    11    12   ar
    12    12    13   ar
    13    13    14   ar
    14    14    15   ar
    15    15    16    1
    16    16    17   ar
    17    17    18   ar
    18    18    19   ar
    19    19    20    1
    20    20    21    1
    21    21    22    1
    22    22    23    1
    23    23    24    1
    24    24    25    1
    25    19    26   ar
    26    26    27   ar
    27    15    28   ar
    28    28    29   ar
    29    29    30   ar
    30     9    31   ar
    31    31    32   ar
    32    32    33   ar
    33    33    34   ar
    34    34     4   ar
    35    34     8   ar
    36    30    10   ar
    37    30    13   ar
    38    27    16   ar
    39    25    20    1
    40     1    35    1
    41     1    36    1
    42     5    37    1
    43     6    38    1
    44     7    39    1
    45    11    40    1
    46    14    41    1
    47    17    42    1
    48    18    43    1
    49    21    44    1
    50    21    45    1
    51    22    46    1
    52    22    47    1
    53    23    48    1
    54    24    49    1
    55    24    50    1
    56    25    51    1
    57    25    52    1
    58    26    53    1
    59    27    54    1
    60    28    55    1
    61    31    56    1
    62    32    57    1
