
     RDKit          3D

 44 47  0  0  0  0  0  0  0  0999 V2000
    2.9321   -2.1778    1.2101 C   0  0  0  0  0  0  0  0  0  0  0  0
    2.5301   -1.2593    0.1108 C   0  0  1  0  0  0  0  0  0  0  0  0
    1.2603   -0.6761    0.3004 O   0  0  0  0  0  0  0  0  0  0  0  0
    0.1751   -0.8685   -0.5070 C   0  0  0  0  0  0  0  0  0  0  0  0
    0.3086   -1.6255   -1.5032 O   0  0  0  0  0  0  0  0  0  0  0  0
   -1.1553   -0.2237   -0.2610 C   0  0  0  0  0  0  0  0  0  0  0  0
   -1.0626    1.2717   -0.2751 C   0  0  0  0  0  0  0  0  0  0  0  0
   -2.4095    1.8280    0.1064 C   0  0  0  0  0  0  0  0  0  0  0  0
   -3.4796    1.3963   -0.8689 C   0  0  0  0  0  0  0  0  0  0  0  0
   -3.5135   -0.1099   -0.8850 C   0  0  0  0  0  0  0  0  0  0  0  0
   -3.9321   -0.6091    0.4732 C   0  0  0  0  0  0  0  0  0  0  0  0
   -2.9346   -0.1117    1.4913 C   0  0  0  0  0  0  0  0  0  0  0  0
   -2.8367    1.3998    1.4822 C   0  0  0  0  0  0  0  0  0  0  0  0
   -1.5799   -0.6660    1.1358 C   0  0  0  0  0  0  0  0  0  0  0  0
   -2.1784   -0.6673   -1.2590 C   0  0  0  0  0  0  0  0  0  0  0  0
    3.5859   -0.2827   -0.1558 C   0  0  0  0  0  0  0  0  0  0  0  0
    3.4370    0.7780   -1.0318 C   0  0  0  0  0  0  0  0  0  0  0  0
    4.4945    1.6283   -1.2035 C   0  0  0  0  0  0  0  0  0  0  0  0
    5.6710    1.4773   -0.5581 N   0  0  0  0  0  0  0  0  0  0  0  0
    5.8570    0.4599    0.3016 C   0  0  0  0  0  0  0  0  0  0  0  0
    4.7976   -0.4111    0.4882 C   0  0  0  0  0  0  0  0  0  0  0  0
    3.2387   -1.6116    2.1216 H   0  0  0  0  0  0  0  0  0  0  0  0
    2.0639   -2.7943    1.5341 H   0  0  0  0  0  0  0  0  0  0  0  0
    3.7822   -2.8163    0.8977 H   0  0  0  0  0  0  0  0  0  0  0  0
    2.4324   -1.8899   -0.8222 H   0  0  0  0  0  0  0  0  0  0  0  0
   -0.3200    1.6813    0.4269 H   0  0  0  0  0  0  0  0  0  0  0  0
   -0.8569    1.6264   -1.3175 H   0  0  0  0  0  0  0  0  0  0  0  0
   -2.4103    2.9513    0.1040 H   0  0  0  0  0  0  0  0  0  0  0  0
   -3.2578    1.7431   -1.8954 H   0  0  0  0  0  0  0  0  0  0  0  0
   -4.4486    1.7842   -0.5406 H   0  0  0  0  0  0  0  0  0  0  0  0
   -4.2687   -0.4924   -1.6182 H   0  0  0  0  0  0  0  0  0  0  0  0
   -3.9013   -1.7182    0.5001 H   0  0  0  0  0  0  0  0  0  0  0  0
   -4.9385   -0.2860    0.7427 H   0  0  0  0  0  0  0  0  0  0  0  0
   -3.2216   -0.5137    2.4691 H   0  0  0  0  0  0  0  0  0  0  0  0
   -3.8705    1.7823    1.6370 H   0  0  0  0  0  0  0  0  0  0  0  0
   -2.1521    1.6986    2.2808 H   0  0  0  0  0  0  0  0  0  0  0  0
   -0.8358   -0.2270    1.8390 H   0  0  0  0  0  0  0  0  0  0  0  0
   -1.5557   -1.7698    1.1508 H   0  0  0  0  0  0  0  0  0  0  0  0
   -2.2533   -1.7802   -1.2280 H   0  0  0  0  0  0  0  0  0  0  0  0
   -1.8781   -0.3567   -2.2682 H   0  0  0  0  0  0  0  0  0  0  0  0
    2.4927    0.8849   -1.5389 H   0  0  0  0  0  0  0  0  0  0  0  0
    4.4125    2.4661   -1.8794 H   0  0  0  0  0  0  0  0  0  0  0  0
    6.7850    0.3104    0.8339 H   0  0  0  0  0  0  0  0  0  0  0  0
    4.9949   -1.2230    1.1953 H   0  0  0  0  0  0  0  0  0  0  0  0
  1  2  1  0
  2  3  1  0
  3  4  1  0
  4  5  2  0
  4  6  1  0
  6  7  1  0
  7  8  1  0
  8  9  1  0
  9 10  1  0
 10 11  1  0
 11 12  1  0
 12 13  1  0
 12 14  1  0
 10 15  1  0
  2 16  1  0
 16 17  2  0
 17 18  1  0
 18 19  2  0
 19 20  1  0
 20 21  2  0
 14  6  1  0
 21 16  1  0
 15  6  1  0
 13  8  1  0
  1 22  1  0
  1 23  1  0
  1 24  1  0
  2 25  1  6
  7 26  1  0
  7 27  1  0
  8 28  1  0
  9 29  1  0
  9 30  1  0
 10 31  1  0
 11 32  1  0
 11 33  1  0
 12 34  1  0
 13 35  1  0
 13 36  1  0
 14 37  1  0
 14 38  1  0
 15 39  1  0
 15 40  1  0
 17 41  1  0
 18 42  1  0
 20 43  1  0
 21 44  1  0
M  END
$$$$
