@<TRIPOS>MOLECULE
*****
 44 47 0 0 0
SMALL
GASTEIGER

@<TRIPOS>ATOM
      1 C           2.9321   -2.1778    1.2101 C.3     1  UNL1       -0.0234
      2 C           2.5301   -1.2593    0.1108 C.3     1  UNL1        0.1253
      3 O           1.2603   -0.6761    0.3004 O.3     1  UNL1       -0.4565
      4 C           0.1751   -0.8685   -0.5070 C.2     1  UNL1        0.3139
      5 O           0.3086   -1.6255   -1.5032 O.2     1  UNL1       -0.2502
      6 C          -1.1553   -0.2237   -0.2610 C.3     1  UNL1        0.0685
      7 C          -1.0626    1.2717   -0.2751 C.3     1  UNL1       -0.0344
      8 C          -2.4095    1.8280    0.1064 C.3     1  UNL1       -0.0395
      9 C          -3.4796    1.3963   -0.8689 C.3     1  UNL1       -0.0473
     10 C          -3.5135   -0.1099   -0.8850 C.3     1  UNL1       -0.0395
     11 C          -3.9321   -0.6091    0.4732 C.3     1  UNL1       -0.0473
     12 C          -2.9346   -0.1117    1.4913 C.3     1  UNL1       -0.0395
     13 C          -2.8367    1.3998    1.4822 C.3     1  UNL1       -0.0473
     14 C          -1.5799   -0.6660    1.1358 C.3     1  UNL1       -0.0344
     15 C          -2.1784   -0.6673   -1.2590 C.3     1  UNL1       -0.0344
     16 C           3.5859   -0.2827   -0.1558 C.ar    1  UNL1       -0.0047
     17 C           3.4370    0.7780   -1.0318 C.ar    1  UNL1       -0.0369
     18 C           4.4945    1.6283   -1.2035 C.ar    1  UNL1        0.0279
     19 N           5.6710    1.4773   -0.5581 N.ar    1  UNL1       -0.2632
     20 C           5.8570    0.4599    0.3016 C.ar    1  UNL1        0.0279
     21 C           4.7976   -0.4111    0.4882 C.ar    1  UNL1       -0.0369
     22 H           3.2387   -1.6116    2.1216 H       1  UNL1        0.0269
     23 H           2.0639   -2.7943    1.5341 H       1  UNL1        0.0269
     24 H           3.7822   -2.8163    0.8977 H       1  UNL1        0.0269
     25 H           2.4324   -1.8899   -0.8222 H       1  UNL1        0.0782
     26 H          -0.3200    1.6813    0.4269 H       1  UNL1        0.0278
     27 H          -0.8569    1.6264   -1.3175 H       1  UNL1        0.0278
     28 H          -2.4103    2.9513    0.1040 H       1  UNL1        0.0301
     29 H          -3.2578    1.7431   -1.8954 H       1  UNL1        0.0271
     30 H          -4.4486    1.7842   -0.5406 H       1  UNL1        0.0271
     31 H          -4.2687   -0.4924   -1.6182 H       1  UNL1        0.0301
     32 H          -3.9013   -1.7182    0.5001 H       1  UNL1        0.0271
     33 H          -4.9385   -0.2860    0.7427 H       1  UNL1        0.0271
     34 H          -3.2216   -0.5137    2.4691 H       1  UNL1        0.0301
     35 H          -3.8705    1.7823    1.6370 H       1  UNL1        0.0271
     36 H          -2.1521    1.6986    2.2808 H       1  UNL1        0.0271
     37 H          -0.8358   -0.2270    1.8390 H       1  UNL1        0.0278
     38 H          -1.5557   -1.7698    1.1508 H       1  UNL1        0.0278
     39 H          -2.2533   -1.7802   -1.2280 H       1  UNL1        0.0278
     40 H          -1.8781   -0.3567   -2.2682 H       1  UNL1        0.0278
     41 H           2.4927    0.8849   -1.5389 H       1  UNL1        0.0637
     42 H           4.4125    2.4661   -1.8794 H       1  UNL1        0.0829
     43 H           6.7850    0.3104    0.8339 H       1  UNL1        0.0829
     44 H           4.9949   -1.2230    1.1953 H       1  UNL1        0.0637
@<TRIPOS>BOND
     1     1     2    1
     2     2     3    1
     3     3     4    1
     4     4     5    2
     5     4     6    1
     6     6     7    1
     7     7     8    1
     8     8     9    1
     9     9    10    1
    10    10    11    1
    11    11    12    1
    12    12    13    1
    13    12    14    1
    14    10    15    1
    15     2    16    1
    16    16    17   ar
    17    17    18   ar
    18    18    19   ar
    19    19    20   ar
    20    20    21   ar
    21    14     6    1
    22    21    16   ar
    23    15     6    1
    24    13     8    1
    25     1    22    1
    26     1    23    1
    27     1    24    1
    28     2    25    1
    29     7    26    1
    30     7    27    1
    31     8    28    1
    32     9    29    1
    33     9    30    1
    34    10    31    1
    35    11    32    1
    36    11    33    1
    37    12    34    1
    38    13    35    1
    39    13    36    1
    40    14    37    1
    41    14    38    1
    42    15    39    1
    43    15    40    1
    44    17    41    1
    45    18    42    1
    46    20    43    1
    47    21    44    1
