@<TRIPOS>MOLECULE
*****
 47 50 0 0 0
SMALL
GASTEIGER

@<TRIPOS>ATOM
      1 C          -7.5977   -0.5684   -0.6843 C.3     1  UNL1       -0.0638
      2 C          -6.5358    0.2564   -1.3461 C.3     1  UNL1       -0.0360
      3 C          -6.2307    1.5002   -0.5448 C.3     1  UNL1        0.0706
      4 S          -5.6368    0.9983    1.0479 S.O2    1  UNL1       -0.0030
      5 O          -5.3664    2.2203    1.8883 O.2     1  UNL1       -0.1694
      6 O          -6.6735    0.1208    1.6814 O.2     1  UNL1       -0.1694
      7 C          -4.1892    0.0674    0.8273 C.ar    1  UNL1        0.0902
      8 C          -4.1300   -1.2986    0.7025 C.ar    1  UNL1       -0.0347
      9 C          -2.9020   -1.9218    0.5278 C.ar    1  UNL1       -0.0324
     10 C          -1.7098   -1.2351    0.4707 C.ar    1  UNL1        0.0896
     11 N          -0.4166   -1.5686    0.3154 N.ar    1  UNL1       -0.2277
     12 C           0.3531   -0.4396    0.3387 C.ar    1  UNL1        0.1393
     13 C           1.8020   -0.3703    0.2045 C.ar    1  UNL1        0.0173
     14 C           2.3980    0.8714    0.2577 C.ar    1  UNL1       -0.0505
     15 C           3.7693    0.9999    0.1367 C.ar    1  UNL1       -0.0534
     16 C           4.5911   -0.0887   -0.0398 C.ar    1  UNL1       -0.0178
     17 C           6.0404    0.0215   -0.1694 C.ar    1  UNL1       -0.0179
     18 C           6.8076   -0.8425   -0.9178 C.ar    1  UNL1       -0.0540
     19 C           8.1859   -0.7208   -1.0280 C.ar    1  UNL1       -0.0612
     20 C           8.8368    0.2990   -0.3705 C.ar    1  UNL1       -0.0617
     21 C           8.0834    1.1738    0.3839 C.ar    1  UNL1       -0.0612
     22 C           6.7134    1.0468    0.4891 C.ar    1  UNL1       -0.0540
     23 C           3.9726   -1.3283   -0.0907 C.ar    1  UNL1       -0.0534
     24 C           2.6003   -1.4767    0.0287 C.ar    1  UNL1       -0.0505
     25 N          -0.5175    0.5672    0.5115 N.ar    1  UNL1       -0.3378
     26 C          -1.7793    0.1324    0.5968 C.ar    1  UNL1        0.0683
     27 C          -2.9859    0.7761    0.7711 C.ar    1  UNL1       -0.0114
     28 H          -8.2151    0.1175   -0.0677 H       1  UNL1        0.0230
     29 H          -7.2237   -1.4111   -0.0846 H       1  UNL1        0.0230
     30 H          -8.2689   -1.0261   -1.4523 H       1  UNL1        0.0230
     31 H          -5.5768   -0.3122   -1.4166 H       1  UNL1        0.0278
     32 H          -6.8973    0.5285   -2.3558 H       1  UNL1        0.0278
     33 H          -5.4487    2.0985   -1.0438 H       1  UNL1        0.0504
     34 H          -7.1393    2.1202   -0.3827 H       1  UNL1        0.0504
     35 H          -5.0487   -1.8509    0.7471 H       1  UNL1        0.0637
     36 H          -2.8811   -2.9980    0.4318 H       1  UNL1        0.0640
     37 H           1.7987    1.7824    0.3970 H       1  UNL1        0.0625
     38 H           4.2049    1.9804    0.1822 H       1  UNL1        0.0624
     39 H           6.2911   -1.6403   -1.4312 H       1  UNL1        0.0624
     40 H           8.7601   -1.4239   -1.6299 H       1  UNL1        0.0618
     41 H           9.9108    0.3631   -0.4792 H       1  UNL1        0.0618
     42 H           8.6112    1.9676    0.8928 H       1  UNL1        0.0618
     43 H           6.1105    1.7267    1.0780 H       1  UNL1        0.0624
     44 H           4.5886   -2.2089   -0.2288 H       1  UNL1        0.0624
     45 H           2.1152   -2.4350   -0.0099 H       1  UNL1        0.0625
     46 H          -0.2174    1.5740    0.5700 H       1  UNL1        0.1674
     47 H          -2.9568    1.8553    0.8622 H       1  UNL1        0.0658
@<TRIPOS>BOND
     1     1     2    1
     2     2     3    1
     3     3     4    1
     4     4     5    2
     5     4     6    2
     6     4     7    1
     7     7     8   ar
     8     8     9   ar
     9     9    10   ar
    10    10    11   ar
    11    11    12   ar
    12    12    13    1
    13    13    14   ar
    14    14    15   ar
    15    15    16   ar
    16    16    17    1
    17    17    18   ar
    18    18    19   ar
    19    19    20   ar
    20    20    21   ar
    21    21    22   ar
    22    16    23   ar
    23    23    24   ar
    24    12    25   ar
    25    25    26   ar
    26    26    27   ar
    27    27     7   ar
    28    26    10   ar
    29    24    13   ar
    30    22    17   ar
    31     1    28    1
    32     1    29    1
    33     1    30    1
    34     2    31    1
    35     2    32    1
    36     3    33    1
    37     3    34    1
    38     8    35    1
    39     9    36    1
    40    14    37    1
    41    15    38    1
    42    18    39    1
    43    19    40    1
    44    20    41    1
    45    21    42    1
    46    22    43    1
    47    23    44    1
    48    24    45    1
    49    25    46    1
    50    27    47    1
