
     RDKit          3D

 47 50  0  0  0  0  0  0  0  0999 V2000
   -7.5977   -0.5684   -0.6843 C   0  0  0  0  0  0  0  0  0  0  0  0
   -6.5358    0.2564   -1.3461 C   0  0  0  0  0  0  0  0  0  0  0  0
   -6.2307    1.5002   -0.5448 C   0  0  0  0  0  0  0  0  0  0  0  0
   -5.6368    0.9983    1.0479 S   0  0  0  0  0  6  0  0  0  0  0  0
   -5.3664    2.2203    1.8883 O   0  0  0  0  0  0  0  0  0  0  0  0
   -6.6735    0.1208    1.6814 O   0  0  0  0  0  0  0  0  0  0  0  0
   -4.1892    0.0674    0.8273 C   0  0  0  0  0  0  0  0  0  0  0  0
   -4.1300   -1.2986    0.7025 C   0  0  0  0  0  0  0  0  0  0  0  0
   -2.9020   -1.9218    0.5278 C   0  0  0  0  0  0  0  0  0  0  0  0
   -1.7098   -1.2351    0.4707 C   0  0  0  0  0  0  0  0  0  0  0  0
   -0.4166   -1.5686    0.3154 N   0  0  0  0  0  0  0  0  0  0  0  0
    0.3531   -0.4396    0.3387 C   0  0  0  0  0  0  0  0  0  0  0  0
    1.8020   -0.3703    0.2045 C   0  0  0  0  0  0  0  0  0  0  0  0
    2.3980    0.8714    0.2577 C   0  0  0  0  0  0  0  0  0  0  0  0
    3.7693    0.9999    0.1367 C   0  0  0  0  0  0  0  0  0  0  0  0
    4.5911   -0.0887   -0.0398 C   0  0  0  0  0  0  0  0  0  0  0  0
    6.0404    0.0215   -0.1694 C   0  0  0  0  0  0  0  0  0  0  0  0
    6.8076   -0.8425   -0.9178 C   0  0  0  0  0  0  0  0  0  0  0  0
    8.1859   -0.7208   -1.0280 C   0  0  0  0  0  0  0  0  0  0  0  0
    8.8368    0.2990   -0.3705 C   0  0  0  0  0  0  0  0  0  0  0  0
    8.0834    1.1738    0.3839 C   0  0  0  0  0  0  0  0  0  0  0  0
    6.7134    1.0468    0.4891 C   0  0  0  0  0  0  0  0  0  0  0  0
    3.9726   -1.3283   -0.0907 C   0  0  0  0  0  0  0  0  0  0  0  0
    2.6003   -1.4767    0.0287 C   0  0  0  0  0  0  0  0  0  0  0  0
   -0.5175    0.5672    0.5115 N   0  0  0  0  0  0  0  0  0  0  0  0
   -1.7793    0.1324    0.5968 C   0  0  0  0  0  0  0  0  0  0  0  0
   -2.9859    0.7761    0.7711 C   0  0  0  0  0  0  0  0  0  0  0  0
   -8.2151    0.1175   -0.0677 H   0  0  0  0  0  0  0  0  0  0  0  0
   -7.2237   -1.4111   -0.0846 H   0  0  0  0  0  0  0  0  0  0  0  0
   -8.2689   -1.0261   -1.4523 H   0  0  0  0  0  0  0  0  0  0  0  0
   -5.5768   -0.3122   -1.4166 H   0  0  0  0  0  0  0  0  0  0  0  0
   -6.8973    0.5285   -2.3558 H   0  0  0  0  0  0  0  0  0  0  0  0
   -5.4487    2.0985   -1.0438 H   0  0  0  0  0  0  0  0  0  0  0  0
   -7.1393    2.1202   -0.3827 H   0  0  0  0  0  0  0  0  0  0  0  0
   -5.0487   -1.8509    0.7471 H   0  0  0  0  0  0  0  0  0  0  0  0
   -2.8811   -2.9980    0.4318 H   0  0  0  0  0  0  0  0  0  0  0  0
    1.7987    1.7824    0.3970 H   0  0  0  0  0  0  0  0  0  0  0  0
    4.2049    1.9804    0.1822 H   0  0  0  0  0  0  0  0  0  0  0  0
    6.2911   -1.6403   -1.4312 H   0  0  0  0  0  0  0  0  0  0  0  0
    8.7601   -1.4239   -1.6299 H   0  0  0  0  0  0  0  0  0  0  0  0
    9.9108    0.3631   -0.4792 H   0  0  0  0  0  0  0  0  0  0  0  0
    8.6112    1.9676    0.8928 H   0  0  0  0  0  0  0  0  0  0  0  0
    6.1105    1.7267    1.0780 H   0  0  0  0  0  0  0  0  0  0  0  0
    4.5886   -2.2089   -0.2288 H   0  0  0  0  0  0  0  0  0  0  0  0
    2.1152   -2.4350   -0.0099 H   0  0  0  0  0  0  0  0  0  0  0  0
   -0.2174    1.5740    0.5700 H   0  0  0  0  0  0  0  0  0  0  0  0
   -2.9568    1.8553    0.8622 H   0  0  0  0  0  0  0  0  0  0  0  0
  1  2  1  0
  2  3  1  0
  3  4  1  0
  4  5  2  0
  4  6  2  0
  4  7  1  0
  7  8  2  0
  8  9  1  0
  9 10  2  0
 10 11  1  0
 11 12  2  0
 12 13  1  0
 13 14  2  0
 14 15  1  0
 15 16  2  0
 16 17  1  0
 17 18  2  0
 18 19  1  0
 19 20  2  0
 20 21  1  0
 21 22  2  0
 16 23  1  0
 23 24  2  0
 12 25  1  0
 25 26  1  0
 26 27  2  0
 27  7  1  0
 26 10  1  0
 24 13  1  0
 22 17  1  0
  1 28  1  0
  1 29  1  0
  1 30  1  0
  2 31  1  0
  2 32  1  0
  3 33  1  0
  3 34  1  0
  8 35  1  0
  9 36  1  0
 14 37  1  0
 15 38  1  0
 18 39  1  0
 19 40  1  0
 20 41  1  0
 21 42  1  0
 22 43  1  0
 23 44  1  0
 24 45  1  0
 25 46  1  0
 27 47  1  0
M  END
$$$$
