
     RDKit          3D

 65 66  0  0  0  0  0  0  0  0999 V2000
   -6.4441    5.1343   -3.0936 C   0  0  0  0  0  0  0  0  0  0  0  0
   -6.5420    3.9574   -2.2176 C   0  0  0  0  0  0  0  0  0  0  0  0
   -6.6443    2.9422   -1.4457 C   0  0  0  0  0  0  0  0  0  0  0  0
   -6.7480    1.8209   -0.6217 C   0  0  0  0  0  0  0  0  0  0  0  0
   -6.6956    2.3010    0.8629 C   0  0  0  0  0  0  0  0  0  0  0  0
   -8.2794    1.3591   -0.6916 C   0  0  0  0  0  0  0  0  0  0  0  0
   -6.0309    0.7274   -0.8763 O   0  0  0  0  0  0  0  0  0  0  0  0
   -4.6666    0.4551   -0.9797 C   0  0  0  0  0  0  0  0  0  0  0  0
   -4.2926   -0.8299   -1.2039 C   0  0  0  0  0  0  0  0  0  0  0  0
   -2.9284   -1.2117   -1.3182 C   0  0  0  0  0  0  0  0  0  0  0  0
   -1.9947   -0.2234   -1.1926 C   0  0  0  0  0  0  0  0  0  0  0  0
   -0.2510   -0.5790   -1.2540 S   0  0  0  0  0  6  0  0  0  0  0  0
    0.3560    0.5154   -2.0765 O   0  0  0  0  0  0  0  0  0  0  0  0
   -0.0366   -1.8513   -2.0125 O   0  0  0  0  0  0  0  0  0  0  0  0
    0.3194   -0.5453    0.3492 C   0  0  0  0  0  0  0  0  0  0  0  0
    1.8016   -0.7809    0.6461 C   0  0  0  0  0  0  0  0  0  0  0  0
    1.7814   -0.6205    2.1674 C   0  0  0  0  0  0  0  0  0  0  0  0
    0.7322   -0.8379    2.7876 O   0  0  0  0  0  0  0  0  0  0  0  0
    2.9775   -0.2247    2.7854 N   0  0  0  0  0  0  0  0  0  0  0  0
    3.0021   -0.0748    4.1748 O   0  0  0  0  0  0  0  0  0  0  0  0
    2.1759   -2.2034    0.4479 C   0  0  0  0  0  0  0  0  0  0  0  0
    3.0696   -2.4234   -0.7213 C   0  0  0  0  0  0  0  0  0  0  0  0
    4.1188   -1.4975   -0.7864 N   0  0  0  0  0  0  0  0  0  0  0  0
    5.7004   -2.0276   -0.9289 S   0  0  0  0  0  6  0  0  0  0  0  0
    6.3301   -1.3483   -2.1461 O   0  0  0  0  0  0  0  0  0  0  0  0
    5.8105   -3.5154   -1.1461 O   0  0  0  0  0  0  0  0  0  0  0  0
    6.6795   -1.5216    0.4539 C   0  0  0  0  0  0  0  0  0  0  0  0
    8.1161   -1.9874    0.3584 C   0  0  0  0  0  0  0  0  0  0  0  0
    6.0422   -1.9014    1.7490 C   0  0  0  0  0  0  0  0  0  0  0  0
    3.9474   -0.1519   -0.4935 C   0  0  0  0  0  0  0  0  0  0  0  0
    2.6556    0.2772    0.0907 C   0  0  0  0  0  0  0  0  0  0  0  0
   -2.3856    1.0574   -0.9687 C   0  0  0  0  0  0  0  0  0  0  0  0
   -3.7425    1.4555   -0.8542 C   0  0  0  0  0  0  0  0  0  0  0  0
   -6.9525    4.8627   -4.0686 H   0  0  0  0  0  0  0  0  0  0  0  0
   -6.8287    6.0355   -2.6603 H   0  0  0  0  0  0  0  0  0  0  0  0
   -5.3381    5.2631   -3.3008 H   0  0  0  0  0  0  0  0  0  0  0  0
   -7.2403    1.5293    1.4774 H   0  0  0  0  0  0  0  0  0  0  0  0
   -5.6786    2.3920    1.2087 H   0  0  0  0  0  0  0  0  0  0  0  0
   -7.3168    3.2332    0.9665 H   0  0  0  0  0  0  0  0  0  0  0  0
   -8.2686    0.3449   -0.3152 H   0  0  0  0  0  0  0  0  0  0  0  0
   -8.6110    1.5048   -1.7153 H   0  0  0  0  0  0  0  0  0  0  0  0
   -8.8047    2.0329   -0.0269 H   0  0  0  0  0  0  0  0  0  0  0  0
   -5.0318   -1.6085   -1.3136 H   0  0  0  0  0  0  0  0  0  0  0  0
   -2.6364   -2.2100   -1.4889 H   0  0  0  0  0  0  0  0  0  0  0  0
    0.0942    0.4382    0.8397 H   0  0  0  0  0  0  0  0  0  0  0  0
   -0.2068   -1.3056    0.9954 H   0  0  0  0  0  0  0  0  0  0  0  0
    3.8844   -0.0016    2.3608 H   0  0  0  0  0  0  0  0  0  0  0  0
    2.8808   -0.9854    4.5555 H   0  0  0  0  0  0  0  0  0  0  0  0
    2.7349   -2.6263    1.3401 H   0  0  0  0  0  0  0  0  0  0  0  0
    1.2733   -2.8831    0.4181 H   0  0  0  0  0  0  0  0  0  0  0  0
    2.4922   -2.5019   -1.6891 H   0  0  0  0  0  0  0  0  0  0  0  0
    3.5371   -3.4605   -0.6659 H   0  0  0  0  0  0  0  0  0  0  0  0
    6.6950   -0.3942    0.4252 H   0  0  0  0  0  0  0  0  0  0  0  0
    8.7029   -1.1933   -0.1450 H   0  0  0  0  0  0  0  0  0  0  0  0
    8.4982   -2.0972    1.3932 H   0  0  0  0  0  0  0  0  0  0  0  0
    8.1722   -2.9607   -0.1446 H   0  0  0  0  0  0  0  0  0  0  0  0
    6.4532   -2.8661    2.0853 H   0  0  0  0  0  0  0  0  0  0  0  0
    4.9509   -1.9843    1.6958 H   0  0  0  0  0  0  0  0  0  0  0  0
    6.2359   -1.0958    2.5367 H   0  0  0  0  0  0  0  0  0  0  0  0
    4.2234    0.5212   -1.3843 H   0  0  0  0  0  0  0  0  0  0  0  0
    4.7801    0.1357    0.2389 H   0  0  0  0  0  0  0  0  0  0  0  0
    2.8877    1.0182    0.9284 H   0  0  0  0  0  0  0  0  0  0  0  0
    2.0826    0.9508   -0.6372 H   0  0  0  0  0  0  0  0  0  0  0  0
   -1.5944    1.8147   -0.8723 H   0  0  0  0  0  0  0  0  0  0  0  0
   -4.0041    2.4515   -0.6783 H   0  0  0  0  0  0  0  0  0  0  0  0
  1  2  1  0
  2  3  3  0
  3  4  1  0
  4  5  1  0
  4  6  1  0
  4  7  1  0
  7  8  1  0
  8  9  2  0
  9 10  1  0
 10 11  2  0
 11 12  1  0
 12 13  2  0
 12 14  2  0
 12 15  1  0
 15 16  1  0
 16 17  1  0
 17 18  2  0
 17 19  1  0
 19 20  1  0
 16 21  1  0
 21 22  1  0
 22 23  1  0
 23 24  1  0
 24 25  2  0
 24 26  2  0
 24 27  1  0
 27 28  1  0
 27 29  1  0
 23 30  1  0
 30 31  1  0
 11 32  1  0
 32 33  2  0
 33  8  1  0
 31 16  1  0
  1 34  1  0
  1 35  1  0
  1 36  1  0
  5 37  1  0
  5 38  1  0
  5 39  1  0
  6 40  1  0
  6 41  1  0
  6 42  1  0
  9 43  1  0
 10 44  1  0
 15 45  1  0
 15 46  1  0
 19 47  1  0
 20 48  1  0
 21 49  1  0
 21 50  1  0
 22 51  1  0
 22 52  1  0
 27 53  1  0
 28 54  1  0
 28 55  1  0
 28 56  1  0
 29 57  1  0
 29 58  1  0
 29 59  1  0
 30 60  1  0
 30 61  1  0
 31 62  1  0
 31 63  1  0
 32 64  1  0
 33 65  1  0
M  END
$$$$
