@<TRIPOS>MOLECULE
*****
 65 66 0 0 0
SMALL
GASTEIGER

@<TRIPOS>ATOM
      1 C          -6.4441    5.1343   -3.0936 C.3     1  UNL1       -0.0024
      2 C          -6.5420    3.9574   -2.2176 C.1     1  UNL1       -0.1017
      3 C          -6.6443    2.9422   -1.4457 C.1     1  UNL1       -0.0558
      4 C          -6.7480    1.8209   -0.6217 C.3     1  UNL1        0.1647
      5 C          -6.6956    2.3010    0.8629 C.3     1  UNL1       -0.0136
      6 C          -8.2794    1.3591   -0.6916 C.3     1  UNL1       -0.0136
      7 O          -6.0309    0.7274   -0.8763 O.3     1  UNL1       -0.4738
      8 C          -4.6666    0.4551   -0.9797 C.ar    1  UNL1        0.1228
      9 C          -4.2926   -0.8299   -1.2039 C.ar    1  UNL1       -0.0181
     10 C          -2.9284   -1.2117   -1.3182 C.ar    1  UNL1       -0.0334
     11 C          -1.9947   -0.2234   -1.1926 C.ar    1  UNL1        0.0884
     12 S          -0.2510   -0.5790   -1.2540 S.O2    1  UNL1       -0.0021
     13 O           0.3560    0.5154   -2.0765 O.2     1  UNL1       -0.1693
     14 O          -0.0366   -1.8513   -2.0125 O.2     1  UNL1       -0.1693
     15 C           0.3194   -0.5453    0.3492 C.3     1  UNL1        0.0849
     16 C           1.8016   -0.7809    0.6461 C.3     1  UNL1        0.0709
     17 C           1.7814   -0.6205    2.1674 C.2     1  UNL1        0.2433
     18 O           0.7322   -0.8379    2.7876 O.2     1  UNL1       -0.2731
     19 N           2.9775   -0.2247    2.7854 N.am    1  UNL1       -0.1970
     20 O           3.0021   -0.0748    4.1748 O.3     1  UNL1       -0.2952
     21 C           2.1759   -2.2034    0.4479 C.3     1  UNL1       -0.0230
     22 C           3.0696   -2.4234   -0.7213 C.3     1  UNL1        0.0211
     23 N           4.1188   -1.4975   -0.7864 N.3     1  UNL1       -0.1808
     24 S           5.7004   -2.0276   -0.9289 S.O2    1  UNL1        0.0341
     25 O           6.3301   -1.3483   -2.1461 O.2     1  UNL1       -0.1578
     26 O           5.8105   -3.5154   -1.1461 O.2     1  UNL1       -0.1578
     27 C           6.6795   -1.5216    0.4539 C.3     1  UNL1        0.0874
     28 C           8.1161   -1.9874    0.3584 C.3     1  UNL1       -0.0416
     29 C           6.0422   -1.9014    1.7490 C.3     1  UNL1       -0.0416
     30 C           3.9474   -0.1519   -0.4935 C.3     1  UNL1        0.0211
     31 C           2.6556    0.2772    0.0907 C.3     1  UNL1       -0.0230
     32 C          -2.3856    1.0574   -0.9687 C.ar    1  UNL1       -0.0334
     33 C          -3.7425    1.4555   -0.8542 C.ar    1  UNL1       -0.0181
     34 H          -6.9525    4.8627   -4.0686 H       1  UNL1        0.0362
     35 H          -6.8287    6.0355   -2.6603 H       1  UNL1        0.0362
     36 H          -5.3381    5.2631   -3.3008 H       1  UNL1        0.0362
     37 H          -7.2403    1.5293    1.4774 H       1  UNL1        0.0278
     38 H          -5.6786    2.3920    1.2087 H       1  UNL1        0.0278
     39 H          -7.3168    3.2332    0.9665 H       1  UNL1        0.0278
     40 H          -8.2686    0.3449   -0.3152 H       1  UNL1        0.0278
     41 H          -8.6110    1.5048   -1.7153 H       1  UNL1        0.0278
     42 H          -8.8047    2.0329   -0.0269 H       1  UNL1        0.0278
     43 H          -5.0318   -1.6085   -1.3136 H       1  UNL1        0.0655
     44 H          -2.6364   -2.2100   -1.4889 H       1  UNL1        0.0638
     45 H           0.0942    0.4382    0.8397 H       1  UNL1        0.0514
     46 H          -0.2068   -1.3056    0.9954 H       1  UNL1        0.0514
     47 H           3.8844   -0.0016    2.3608 H       1  UNL1        0.1822
     48 H           2.8808   -0.9854    4.5555 H       1  UNL1        0.2414
     49 H           2.7349   -2.6263    1.3401 H       1  UNL1        0.0289
     50 H           1.2733   -2.8831    0.4181 H       1  UNL1        0.0289
     51 H           2.4922   -2.5019   -1.6891 H       1  UNL1        0.0444
     52 H           3.5371   -3.4605   -0.6659 H       1  UNL1        0.0444
     53 H           6.6950   -0.3942    0.4252 H       1  UNL1        0.0546
     54 H           8.7029   -1.1933   -0.1450 H       1  UNL1        0.0248
     55 H           8.4982   -2.0972    1.3932 H       1  UNL1        0.0248
     56 H           8.1722   -2.9607   -0.1446 H       1  UNL1        0.0248
     57 H           6.4532   -2.8661    2.0853 H       1  UNL1        0.0248
     58 H           4.9509   -1.9843    1.6958 H       1  UNL1        0.0248
     59 H           6.2359   -1.0958    2.5367 H       1  UNL1        0.0248
     60 H           4.2234    0.5212   -1.3843 H       1  UNL1        0.0444
     61 H           4.7801    0.1357    0.2389 H       1  UNL1        0.0444
     62 H           2.8877    1.0182    0.9284 H       1  UNL1        0.0289
     63 H           2.0826    0.9508   -0.6372 H       1  UNL1        0.0289
     64 H          -1.5944    1.8147   -0.8723 H       1  UNL1        0.0638
     65 H          -4.0041    2.4515   -0.6783 H       1  UNL1        0.0655
@<TRIPOS>BOND
     1     1     2    1
     2     2     3    3
     3     3     4    1
     4     4     5    1
     5     4     6    1
     6     4     7    1
     7     7     8    1
     8     8     9   ar
     9     9    10   ar
    10    10    11   ar
    11    11    12    1
    12    12    13    2
    13    12    14    2
    14    12    15    1
    15    15    16    1
    16    16    17    1
    17    17    18    2
    18    17    19   am
    19    19    20    1
    20    16    21    1
    21    21    22    1
    22    22    23    1
    23    23    24    1
    24    24    25    2
    25    24    26    2
    26    24    27    1
    27    27    28    1
    28    27    29    1
    29    23    30    1
    30    30    31    1
    31    11    32   ar
    32    32    33   ar
    33    33     8   ar
    34    31    16    1
    35     1    34    1
    36     1    35    1
    37     1    36    1
    38     5    37    1
    39     5    38    1
    40     5    39    1
    41     6    40    1
    42     6    41    1
    43     6    42    1
    44     9    43    1
    45    10    44    1
    46    15    45    1
    47    15    46    1
    48    19    47    1
    49    20    48    1
    50    21    49    1
    51    21    50    1
    52    22    51    1
    53    22    52    1
    54    27    53    1
    55    28    54    1
    56    28    55    1
    57    28    56    1
    58    29    57    1
    59    29    58    1
    60    29    59    1
    61    30    60    1
    62    30    61    1
    63    31    62    1
    64    31    63    1
    65    32    64    1
    66    33    65    1
