@<TRIPOS>MOLECULE
*****
 46 49 0 0 0
SMALL
GASTEIGER

@<TRIPOS>ATOM
      1 N          -4.9805   -1.2451    2.0416 N.3     1  UNL1       -0.3272
      2 C          -5.1264   -0.7465    0.6922 C.3     1  UNL1        0.0049
      3 C          -4.0324   -1.3685   -0.1561 C.3     1  UNL1       -0.0363
      4 C          -3.6792   -0.4031   -1.2897 C.3     1  UNL1       -0.0361
      5 C          -3.0368    0.8485   -0.8061 C.3     1  UNL1        0.0080
      6 N          -1.6602    1.0229   -1.0148 N.3     1  UNL1       -0.3099
      7 C          -0.7210    0.1982   -0.3699 C.3     1  UNL1        0.0153
      8 C          -0.5429   -1.2542   -0.5481 C.3     1  UNL1       -0.0287
      9 C           0.3535   -0.3629   -1.3236 C.3     1  UNL1        0.0010
     10 C           1.7651   -0.1684   -0.9041 C.ar    1  UNL1       -0.0427
     11 C           2.7440    0.1233   -1.8294 C.ar    1  UNL1       -0.0576
     12 C           4.0668    0.3091   -1.4633 C.ar    1  UNL1       -0.0523
     13 C           4.4618    0.2087   -0.1455 C.ar    1  UNL1       -0.0002
     14 C           5.8534    0.4017    0.2585 C.ar    1  UNL1        0.0657
     15 C           6.8955    0.6946   -0.5904 C.ar    1  UNL1       -0.0166
     16 C           8.0367    0.7961    0.1814 C.ar    1  UNL1        0.0497
     17 N           7.6548    0.5679    1.4301 N.ar    1  UNL1       -0.1818
     18 N           6.3720    0.3340    1.4925 N.ar    1  UNL1       -0.2770
     19 C           3.4858   -0.0836    0.7882 C.ar    1  UNL1       -0.0523
     20 C           2.1671   -0.2675    0.4131 C.ar    1  UNL1       -0.0576
     21 C          -3.4545    1.0546    0.6486 C.3     1  UNL1       -0.0361
     22 C          -4.9396    0.7712    0.7178 C.3     1  UNL1       -0.0363
     23 H          -5.2420   -0.5356    2.7474 H       1  UNL1        0.1185
     24 H          -5.5075   -2.1280    2.1198 H       1  UNL1        0.1185
     25 H          -6.1407   -1.0199    0.3407 H       1  UNL1        0.0458
     26 H          -3.1895   -1.5670    0.5055 H       1  UNL1        0.0281
     27 H          -4.4661   -2.2646   -0.6373 H       1  UNL1        0.0281
     28 H          -3.1465   -0.9293   -2.0754 H       1  UNL1        0.0281
     29 H          -4.6998   -0.1744   -1.7513 H       1  UNL1        0.0281
     30 H          -3.5557    1.7023   -1.3486 H       1  UNL1        0.0460
     31 H          -1.3847    1.9981   -1.1710 H       1  UNL1        0.1225
     32 H          -0.2937    0.5671    0.6251 H       1  UNL1        0.0466
     33 H          -0.1083   -1.8594    0.2883 H       1  UNL1        0.0287
     34 H          -1.2213   -1.8638   -1.1665 H       1  UNL1        0.0287
     35 H           0.1867   -0.2516   -2.4134 H       1  UNL1        0.0364
     36 H           2.4268    0.2014   -2.8687 H       1  UNL1        0.0621
     37 H           4.8321    0.5385   -2.1970 H       1  UNL1        0.0624
     38 H           6.8557    0.8267   -1.6693 H       1  UNL1        0.0654
     39 H           9.0214    1.0214   -0.2218 H       1  UNL1        0.0848
     40 H           5.7902    0.1204    2.3548 H       1  UNL1        0.1889
     41 H           3.7935   -0.1630    1.8249 H       1  UNL1        0.0624
     42 H           1.4133   -0.4935    1.1370 H       1  UNL1        0.0621
     43 H          -2.9123    0.3779    1.3253 H       1  UNL1        0.0281
     44 H          -3.2953    2.1029    0.9759 H       1  UNL1        0.0281
     45 H          -5.4083    1.2204    1.6129 H       1  UNL1        0.0281
     46 H          -5.4310    1.1422   -0.2164 H       1  UNL1        0.0281
@<TRIPOS>BOND
     1     1     2    1
     2     2     3    1
     3     3     4    1
     4     4     5    1
     5     5     6    1
     6     6     7    1
     7     7     8    1
     8     8     9    1
     9     9    10    1
    10    10    11   ar
    11    11    12   ar
    12    12    13   ar
    13    13    14    1
    14    14    15   ar
    15    15    16   ar
    16    16    17   ar
    17    17    18   ar
    18    13    19   ar
    19    19    20   ar
    20     5    21    1
    21    21    22    1
    22    22     2    1
    23     9     7    1
    24    20    10   ar
    25    18    14   ar
    26     1    23    1
    27     1    24    1
    28     2    25    1
    29     3    26    1
    30     3    27    1
    31     4    28    1
    32     4    29    1
    33     5    30    1
    34     6    31    1
    35     7    32    1
    36     8    33    1
    37     8    34    1
    38     9    35    1
    39    11    36    1
    40    12    37    1
    41    15    38    1
    42    16    39    1
    43    18    40    1
    44    19    41    1
    45    20    42    1
    46    21    43    1
    47    21    44    1
    48    22    45    1
    49    22    46    1
