@<TRIPOS>MOLECULE
*****
 46 48 0 0 0
SMALL
GASTEIGER

@<TRIPOS>ATOM
      1 O           0.1085    1.2036   -1.5319 O.2     1  UNL1       -0.2738
      2 C          -0.0028    0.9505   -0.2859 C.2     1  UNL1        0.2336
      3 N           1.2378    0.8262    0.4148 N.am    1  UNL1       -0.3135
      4 C           2.4874    0.9858   -0.2921 C.3     1  UNL1        0.0146
      5 C           3.6792    0.8238    0.5924 C.3     1  UNL1       -0.0232
      6 C           4.9261    1.0100   -0.2471 C.3     1  UNL1       -0.0361
      7 C           6.0501    0.1122    0.2135 C.3     1  UNL1       -0.0038
      8 N           5.7046   -1.2895    0.1055 N.3     1  UNL1       -0.3160
      9 C           4.2646   -1.4892    0.0765 C.3     1  UNL1       -0.0038
     10 C           3.6667   -0.5899    1.1373 C.3     1  UNL1       -0.0361
     11 C          -1.2974    0.7940    0.4011 C.3     1  UNL1        0.1038
     12 C          -1.4670   -0.7872    0.6369 C.3     1  UNL1       -0.0239
     13 C          -2.9083   -1.1547    0.3151 C.3     1  UNL1       -0.0282
     14 C          -3.4066   -0.9081   -1.0695 C.3     1  UNL1        0.0727
     15 C          -2.2766    0.0066   -1.6837 C.3     1  UNL1        0.0381
     16 N          -2.4041    0.8798   -0.4725 N.am    1  UNL1       -0.2704
     17 C          -3.7119    1.3200   -0.6246 C.2     1  UNL1        0.3305
     18 O          -4.1552    2.4583   -0.4049 O.2     1  UNL1       -0.2502
     19 N          -4.4664    0.1386   -1.1011 N.am    1  UNL1       -0.1323
     20 O          -5.7361    0.0961   -1.4459 O.3     1  UNL1       -0.0962
     21 S          -6.7876   -0.2604   -0.2083 S.O2    1  UNL1        0.2271
     22 O          -7.0585   -1.7569   -0.2342 O.2     1  UNL1       -0.1164
     23 O          -6.2393    0.0547    1.1445 O.2     1  UNL1       -0.1164
     24 O          -8.2885    0.4834   -0.4072 O.3     1  UNL1       -0.2297
     25 H           1.2379    0.6229    1.4275 H       1  UNL1        0.1487
     26 H           2.4446    1.9894   -0.7818 H       1  UNL1        0.0465
     27 H           2.5051    0.2370   -1.1320 H       1  UNL1        0.0465
     28 H           3.6078    1.5809    1.4049 H       1  UNL1        0.0317
     29 H           5.2986    2.0547   -0.1599 H       1  UNL1        0.0281
     30 H           4.7290    0.8214   -1.3193 H       1  UNL1        0.0281
     31 H           6.9032    0.2878   -0.4612 H       1  UNL1        0.0424
     32 H           6.3413    0.3783    1.2557 H       1  UNL1        0.0424
     33 H           6.0773   -1.8322    0.9057 H       1  UNL1        0.1219
     34 H           3.8490   -1.2845   -0.9279 H       1  UNL1        0.0424
     35 H           4.0697   -2.5359    0.3752 H       1  UNL1        0.0424
     36 H           2.6310   -0.9088    1.3969 H       1  UNL1        0.0281
     37 H           4.2716   -0.7010    2.0499 H       1  UNL1        0.0281
     38 H          -1.3734    1.3041    1.3501 H       1  UNL1        0.0597
     39 H          -0.7384   -1.3139    0.0569 H       1  UNL1        0.0288
     40 H          -1.3303   -0.8878    1.7108 H       1  UNL1        0.0288
     41 H          -3.5820   -0.6692    1.0518 H       1  UNL1        0.0285
     42 H          -2.9698   -2.2427    0.5173 H       1  UNL1        0.0285
     43 H          -3.6164   -1.7521   -1.6943 H       1  UNL1        0.0542
     44 H          -1.3574   -0.5400   -1.7323 H       1  UNL1        0.0484
     45 H          -2.5843    0.4712   -2.5911 H       1  UNL1        0.0484
     46 H          -8.3328    1.0127   -1.2348 H       1  UNL1        0.2470
@<TRIPOS>BOND
     1     1     2    2
     2     2     3   am
     3     3     4    1
     4     4     5    1
     5     5     6    1
     6     6     7    1
     7     7     8    1
     8     8     9    1
     9     9    10    1
    10     2    11    1
    11    11    12    1
    12    12    13    1
    13    13    14    1
    14    14    15    1
    15    15    16    1
    16    16    17   am
    17    17    18    2
    18    17    19   am
    19    19    20    1
    20    20    21    1
    21    21    22    2
    22    21    23    2
    23    21    24    1
    24    10     5    1
    25    16    11    1
    26    19    14    1
    27     3    25    1
    28     4    26    1
    29     4    27    1
    30     5    28    1
    31     6    29    1
    32     6    30    1
    33     7    31    1
    34     7    32    1
    35     8    33    1
    36     9    34    1
    37     9    35    1
    38    10    36    1
    39    10    37    1
    40    11    38    1
    41    12    39    1
    42    12    40    1
    43    13    41    1
    44    13    42    1
    45    14    43    1
    46    15    44    1
    47    15    45    1
    48    24    46    1
