
     RDKit          3D

 46 48  0  0  0  0  0  0  0  0999 V2000
    0.1085    1.2036   -1.5319 O   0  0  0  0  0  0  0  0  0  0  0  0
   -0.0028    0.9505   -0.2859 C   0  0  0  0  0  0  0  0  0  0  0  0
    1.2378    0.8262    0.4148 N   0  0  0  0  0  0  0  0  0  0  0  0
    2.4874    0.9858   -0.2921 C   0  0  0  0  0  0  0  0  0  0  0  0
    3.6792    0.8238    0.5924 C   0  0  0  0  0  0  0  0  0  0  0  0
    4.9261    1.0100   -0.2471 C   0  0  0  0  0  0  0  0  0  0  0  0
    6.0501    0.1122    0.2135 C   0  0  0  0  0  0  0  0  0  0  0  0
    5.7046   -1.2895    0.1055 N   0  0  0  0  0  0  0  0  0  0  0  0
    4.2646   -1.4892    0.0765 C   0  0  0  0  0  0  0  0  0  0  0  0
    3.6667   -0.5899    1.1373 C   0  0  0  0  0  0  0  0  0  0  0  0
   -1.2974    0.7940    0.4011 C   0  0  2  0  0  0  0  0  0  0  0  0
   -1.4670   -0.7872    0.6369 C   0  0  0  0  0  0  0  0  0  0  0  0
   -2.9083   -1.1547    0.3151 C   0  0  0  0  0  0  0  0  0  0  0  0
   -3.4066   -0.9081   -1.0695 C   0  0  2  0  0  0  0  0  0  0  0  0
   -2.2766    0.0066   -1.6837 C   0  0  0  0  0  0  0  0  0  0  0  0
   -2.4041    0.8798   -0.4725 N   0  0  0  0  0  0  0  0  0  0  0  0
   -3.7119    1.3200   -0.6246 C   0  0  0  0  0  0  0  0  0  0  0  0
   -4.1552    2.4583   -0.4049 O   0  0  0  0  0  0  0  0  0  0  0  0
   -4.4664    0.1386   -1.1011 N   0  0  0  0  0  0  0  0  0  0  0  0
   -5.7361    0.0961   -1.4459 O   0  0  0  0  0  0  0  0  0  0  0  0
   -6.7876   -0.2604   -0.2083 S   0  0  0  0  0  6  0  0  0  0  0  0
   -7.0585   -1.7569   -0.2342 O   0  0  0  0  0  0  0  0  0  0  0  0
   -6.2393    0.0547    1.1445 O   0  0  0  0  0  0  0  0  0  0  0  0
   -8.2885    0.4834   -0.4072 O   0  0  0  0  0  0  0  0  0  0  0  0
    1.2379    0.6229    1.4275 H   0  0  0  0  0  0  0  0  0  0  0  0
    2.4446    1.9894   -0.7818 H   0  0  0  0  0  0  0  0  0  0  0  0
    2.5051    0.2370   -1.1320 H   0  0  0  0  0  0  0  0  0  0  0  0
    3.6078    1.5809    1.4049 H   0  0  0  0  0  0  0  0  0  0  0  0
    5.2986    2.0547   -0.1599 H   0  0  0  0  0  0  0  0  0  0  0  0
    4.7290    0.8214   -1.3193 H   0  0  0  0  0  0  0  0  0  0  0  0
    6.9032    0.2878   -0.4612 H   0  0  0  0  0  0  0  0  0  0  0  0
    6.3413    0.3783    1.2557 H   0  0  0  0  0  0  0  0  0  0  0  0
    6.0773   -1.8322    0.9057 H   0  0  0  0  0  0  0  0  0  0  0  0
    3.8490   -1.2845   -0.9279 H   0  0  0  0  0  0  0  0  0  0  0  0
    4.0697   -2.5359    0.3752 H   0  0  0  0  0  0  0  0  0  0  0  0
    2.6310   -0.9088    1.3969 H   0  0  0  0  0  0  0  0  0  0  0  0
    4.2716   -0.7010    2.0499 H   0  0  0  0  0  0  0  0  0  0  0  0
   -1.3734    1.3041    1.3501 H   0  0  0  0  0  0  0  0  0  0  0  0
   -0.7384   -1.3139    0.0569 H   0  0  0  0  0  0  0  0  0  0  0  0
   -1.3303   -0.8878    1.7108 H   0  0  0  0  0  0  0  0  0  0  0  0
   -3.5820   -0.6692    1.0518 H   0  0  0  0  0  0  0  0  0  0  0  0
   -2.9698   -2.2427    0.5173 H   0  0  0  0  0  0  0  0  0  0  0  0
   -3.6164   -1.7521   -1.6943 H   0  0  0  0  0  0  0  0  0  0  0  0
   -1.3574   -0.5400   -1.7323 H   0  0  0  0  0  0  0  0  0  0  0  0
   -2.5843    0.4712   -2.5911 H   0  0  0  0  0  0  0  0  0  0  0  0
   -8.3328    1.0127   -1.2348 H   0  0  0  0  0  0  0  0  0  0  0  0
  1  2  2  0
  2  3  1  0
  3  4  1  0
  4  5  1  0
  5  6  1  0
  6  7  1  0
  7  8  1  0
  8  9  1  0
  9 10  1  0
  2 11  1  0
 11 12  1  0
 12 13  1  0
 13 14  1  0
 14 15  1  0
 15 16  1  0
 16 17  1  0
 17 18  2  0
 17 19  1  0
 19 20  1  0
 20 21  1  0
 21 22  2  0
 21 23  2  0
 21 24  1  0
 10  5  1  0
 16 11  1  0
 19 14  1  0
  3 25  1  0
  4 26  1  0
  4 27  1  0
  5 28  1  0
  6 29  1  0
  6 30  1  0
  7 31  1  0
  7 32  1  0
  8 33  1  0
  9 34  1  0
  9 35  1  0
 10 36  1  0
 10 37  1  0
 11 38  1  1
 12 39  1  0
 12 40  1  0
 13 41  1  0
 13 42  1  0
 14 43  1  6
 15 44  1  0
 15 45  1  0
 24 46  1  0
M  END
$$$$
