@<TRIPOS>MOLECULE
*****
 67 68 0 0 0
SMALL
GASTEIGER

@<TRIPOS>ATOM
      1 C          -5.0156   -2.8899   -1.1772 C.3     1  UNL1        0.0369
      2 O          -3.9550   -2.2625   -0.5707 O.3     1  UNL1       -0.3783
      3 C          -3.9114   -0.8905   -0.7713 C.3     1  UNL1        0.0746
      4 C          -2.7160   -0.3276   -0.0624 C.ar    1  UNL1        0.0079
      5 C          -1.4132   -0.4278   -0.5064 C.ar    1  UNL1       -0.0019
      6 C          -1.3203   -1.1416   -1.7466 C.ar    1  UNL1       -0.0167
      7 C          -1.4265   -0.2993   -2.8638 C.ar    1  UNL1       -0.0513
      8 C          -1.3815   -0.8514   -4.1446 C.ar    1  UNL1       -0.0259
      9 C          -1.2319   -2.2240   -4.2503 C.ar    1  UNL1        0.1234
     10 F          -1.1911   -2.7330   -5.5167 F       1  UNL1       -0.2055
     11 C          -1.1268   -3.0564   -3.1313 C.ar    1  UNL1       -0.0259
     12 C          -1.1717   -2.5059   -1.8520 C.ar    1  UNL1       -0.0513
     13 C          -0.3956    0.1259    0.2264 C.ar    1  UNL1        0.0044
     14 C           0.9870    0.0484   -0.1874 C.2     1  UNL1       -0.0538
     15 C           1.7377   -0.4198   -1.1519 C.2     1  UNL1       -0.0552
     16 C           3.1688   -0.4127   -1.4285 C.3     1  UNL1        0.0760
     17 O           3.3542    0.0804   -2.7270 O.3     1  UNL1       -0.3877
     18 C           3.9534    0.5096   -0.5246 C.3     1  UNL1        0.0034
     19 C           5.4190    0.3917   -0.9518 C.3     1  UNL1        0.0679
     20 O           5.5816    0.7654   -2.2759 O.3     1  UNL1       -0.3912
     21 C           6.2926    1.2298   -0.0335 C.3     1  UNL1        0.0708
     22 C           7.7200    1.1018   -0.4673 C.2     1  UNL1        0.3072
     23 O           8.6034    1.8450    0.3282 O.3     1  UNL1       -0.4806
     24 O           8.1681    0.4258   -1.4256 O.2     1  UNL1       -0.2509
     25 C          -0.6727    0.7837    1.4068 C.ar    1  UNL1        0.0519
     26 C           0.3325    1.4303    2.2888 C.3     1  UNL1       -0.0037
     27 C           0.8270    0.3351    3.2387 C.3     1  UNL1       -0.0572
     28 C          -0.3931    2.4206    3.1849 C.3     1  UNL1       -0.0572
     29 N          -1.9491    0.8426    1.7747 N.ar    1  UNL1       -0.2550
     30 C          -2.9911    0.3233    1.1065 C.ar    1  UNL1        0.0501
     31 C          -4.3444    0.4882    1.6719 C.3     1  UNL1       -0.0039
     32 C          -5.0458    1.7287    1.2177 C.3     1  UNL1       -0.0572
     33 C          -4.2139    0.6032    3.1954 C.3     1  UNL1       -0.0572
     34 H          -4.9094   -3.9842   -0.9219 H       1  UNL1        0.0524
     35 H          -4.9903   -2.8422   -2.2869 H       1  UNL1        0.0524
     36 H          -5.9842   -2.5371   -0.7520 H       1  UNL1        0.0524
     37 H          -3.7817   -0.7785   -1.8866 H       1  UNL1        0.0610
     38 H          -4.8234   -0.3483   -0.5366 H       1  UNL1        0.0610
     39 H          -1.5431    0.7737   -2.8152 H       1  UNL1        0.0624
     40 H          -1.4595   -0.2454   -5.0308 H       1  UNL1        0.0646
     41 H          -1.0091   -4.1404   -3.2695 H       1  UNL1        0.0646
     42 H          -1.0959   -3.0982   -0.9749 H       1  UNL1        0.0624
     43 H           1.7503    0.5039    0.4607 H       1  UNL1        0.0622
     44 H           1.1249   -0.9133   -1.8860 H       1  UNL1        0.0598
     45 H           3.6492   -1.4071   -1.4057 H       1  UNL1        0.0638
     46 H           2.8373   -0.3896   -3.4023 H       1  UNL1        0.2102
     47 H           3.8479    0.2962    0.5390 H       1  UNL1        0.0318
     48 H           3.6568    1.5476   -0.7991 H       1  UNL1        0.0318
     49 H           5.7588   -0.6590   -0.8508 H       1  UNL1        0.0599
     50 H           6.0291    0.1010   -2.8473 H       1  UNL1        0.2098
     51 H           5.9434    2.2729   -0.0722 H       1  UNL1        0.0403
     52 H           6.2546    0.8594    1.0090 H       1  UNL1        0.0403
     53 H           9.5111    2.1565   -0.0361 H       1  UNL1        0.2951
     54 H           1.1691    1.8897    1.7617 H       1  UNL1        0.0359
     55 H           1.2189   -0.5192    2.6490 H       1  UNL1        0.0236
     56 H          -0.1148   -0.0465    3.7301 H       1  UNL1        0.0236
     57 H           1.5160    0.7224    3.9921 H       1  UNL1        0.0236
     58 H          -0.9622    1.9055    3.9856 H       1  UNL1        0.0236
     59 H           0.2902    3.1784    3.5824 H       1  UNL1        0.0236
     60 H          -1.1513    2.9744    2.5680 H       1  UNL1        0.0236
     61 H          -4.9130   -0.4358    1.5098 H       1  UNL1        0.0359
     62 H          -4.4398    2.2272    0.4335 H       1  UNL1        0.0236
     63 H          -6.0830    1.5089    0.8484 H       1  UNL1        0.0236
     64 H          -5.1933    2.4843    2.0215 H       1  UNL1        0.0236
     65 H          -5.1285    0.2875    3.7096 H       1  UNL1        0.0236
     66 H          -3.3541   -0.0314    3.5456 H       1  UNL1        0.0236
     67 H          -3.9002    1.6495    3.4044 H       1  UNL1        0.0236
@<TRIPOS>BOND
     1     1     2    1
     2     2     3    1
     3     3     4    1
     4     4     5   ar
     5     5     6    1
     6     6     7   ar
     7     7     8   ar
     8     8     9   ar
     9     9    10    1
    10     9    11   ar
    11    11    12   ar
    12     5    13   ar
    13    13    14    1
    14    14    15    2
    15    15    16    1
    16    16    17    1
    17    16    18    1
    18    18    19    1
    19    19    20    1
    20    19    21    1
    21    21    22    1
    22    22    23    1
    23    22    24    2
    24    13    25   ar
    25    25    26    1
    26    26    27    1
    27    26    28    1
    28    25    29   ar
    29    29    30   ar
    30    30    31    1
    31    31    32    1
    32    31    33    1
    33    30     4   ar
    34    12     6   ar
    35     1    34    1
    36     1    35    1
    37     1    36    1
    38     3    37    1
    39     3    38    1
    40     7    39    1
    41     8    40    1
    42    11    41    1
    43    12    42    1
    44    14    43    1
    45    15    44    1
    46    16    45    1
    47    17    46    1
    48    18    47    1
    49    18    48    1
    50    19    49    1
    51    20    50    1
    52    21    51    1
    53    21    52    1
    54    23    53    1
    55    26    54    1
    56    27    55    1
    57    27    56    1
    58    27    57    1
    59    28    58    1
    60    28    59    1
    61    28    60    1
    62    31    61    1
    63    32    62    1
    64    32    63    1
    65    32    64    1
    66    33    65    1
    67    33    66    1
    68    33    67    1
