@<TRIPOS>MOLECULE
*****
 27 26 0 0 0
SMALL
GASTEIGER

@<TRIPOS>ATOM
      1 N1          1.8124    1.5437    0.6499 N.3     1  <1>        -0.3184
      2 C1          2.3245    0.2206    0.3965 C.3     1  <1>         0.1032
      3 C2          1.2569   -0.5274   -0.3747 C.3     1  <1>        -0.0273
      4 C3         -0.0202   -0.6093    0.4255 C.3     1  <1>        -0.0497
      5 C4         -1.0415   -1.3562   -0.3787 C.3     1  <1>        -0.0372
      6 C5         -2.3626   -1.4880    0.3491 C.3     1  <1>         0.0147
      7 N2         -2.9769   -0.2403    0.6793 N.am    1  <1>        -0.2813
      8 C6         -3.3541    0.7236   -0.2941 C.2     1  <1>         0.3979
      9 O1         -3.9541    1.9527   -0.0337 O.3     1  <1>        -0.4663
     10 O2         -3.1589    0.5175   -1.5329 O.2     1  <1>        -0.2267
     11 C7          3.5195    0.3924   -0.4743 C.2     1  <1>         0.3217
     12 O3          4.3028    1.3345   -1.1162 O.3     1  <1>        -0.4795
     13 O4          4.1772   -0.6080   -0.8599 O.2     1  <1>        -0.2493
     14 H1          2.5085    2.2069    1.0535 H       1  <1>         0.1190
     15 H2          1.3521    1.9476   -0.1910 H       1  <1>         0.1190
     16 H3          2.6068   -0.2770    1.3236 H       1  <1>         0.0574
     17 H4          1.6286   -1.5472   -0.5873 H       1  <1>         0.0286
     18 H5          1.0928   -0.0483   -1.3574 H       1  <1>         0.0286
     19 H6          0.2373   -1.1843    1.3457 H       1  <1>         0.0266
     20 H7         -0.3761    0.3928    0.7116 H       1  <1>         0.0266
     21 H8         -0.6622   -2.3900   -0.5061 H       1  <1>         0.0280
     22 H9         -1.1379   -0.9134   -1.3857 H       1  <1>         0.0280
     23 H10        -2.1121   -2.0096    1.3112 H       1  <1>         0.0463
     24 H11        -3.0319   -2.1413   -0.2187 H       1  <1>         0.0463
     25 H12        -3.1893    0.0427    1.6759 H       1  <1>         0.1520
     26 H13        -4.6135    2.3656   -0.6621 H       1  <1>         0.2968
     27 H14         5.1721    1.6997   -0.7459 H       1  <1>         0.2951
@<TRIPOS>BOND
     1     1     2    1
     2     2     3    1
     3     3     4    1
     4     4     5    1
     5     5     6    1
     6     6     7    1
     7     7     8   am
     8     8     9    1
     9     8    10    2
    10     2    11    1
    11    11    12    1
    12    11    13    2
    13     1    14    1
    14     1    15    1
    15     2    16    1
    16     3    17    1
    17     3    18    1
    18     4    19    1
    19     4    20    1
    20     5    21    1
    21     5    22    1
    22     6    23    1
    23     6    24    1
    24     7    25    1
    25     9    26    1
    26    12    27    1
