
     RDKit          3D

 27 26  0  0  0  0  0  0  0  0999 V2000
    1.8124    1.5437    0.6499 N   0  0  0  0  0  0  0  0  0  0  0  0
    2.3245    0.2206    0.3965 C   0  0  1  0  0  0  0  0  0  0  0  0
    1.2569   -0.5274   -0.3747 C   0  0  0  0  0  0  0  0  0  0  0  0
   -0.0202   -0.6093    0.4255 C   0  0  0  0  0  0  0  0  0  0  0  0
   -1.0415   -1.3562   -0.3787 C   0  0  0  0  0  0  0  0  0  0  0  0
   -2.3626   -1.4880    0.3491 C   0  0  0  0  0  0  0  0  0  0  0  0
   -2.9769   -0.2403    0.6793 N   0  0  0  0  0  0  0  0  0  0  0  0
   -3.3541    0.7236   -0.2941 C   0  0  0  0  0  0  0  0  0  0  0  0
   -3.9541    1.9527   -0.0337 O   0  0  0  0  0  0  0  0  0  0  0  0
   -3.1589    0.5175   -1.5329 O   0  0  0  0  0  0  0  0  0  0  0  0
    3.5195    0.3924   -0.4743 C   0  0  0  0  0  0  0  0  0  0  0  0
    4.3028    1.3345   -1.1162 O   0  0  0  0  0  0  0  0  0  0  0  0
    4.1772   -0.6080   -0.8599 O   0  0  0  0  0  0  0  0  0  0  0  0
    2.5085    2.2069    1.0535 H   0  0  0  0  0  0  0  0  0  0  0  0
    1.3521    1.9476   -0.1910 H   0  0  0  0  0  0  0  0  0  0  0  0
    2.6068   -0.2770    1.3236 H   0  0  0  0  0  0  0  0  0  0  0  0
    1.6286   -1.5472   -0.5873 H   0  0  0  0  0  0  0  0  0  0  0  0
    1.0928   -0.0483   -1.3574 H   0  0  0  0  0  0  0  0  0  0  0  0
    0.2373   -1.1843    1.3457 H   0  0  0  0  0  0  0  0  0  0  0  0
   -0.3761    0.3928    0.7116 H   0  0  0  0  0  0  0  0  0  0  0  0
   -0.6622   -2.3900   -0.5061 H   0  0  0  0  0  0  0  0  0  0  0  0
   -1.1379   -0.9134   -1.3857 H   0  0  0  0  0  0  0  0  0  0  0  0
   -2.1121   -2.0096    1.3112 H   0  0  0  0  0  0  0  0  0  0  0  0
   -3.0319   -2.1413   -0.2187 H   0  0  0  0  0  0  0  0  0  0  0  0
   -3.1893    0.0427    1.6759 H   0  0  0  0  0  0  0  0  0  0  0  0
   -4.6135    2.3656   -0.6621 H   0  0  0  0  0  0  0  0  0  0  0  0
    5.1721    1.6997   -0.7459 H   0  0  0  0  0  0  0  0  0  0  0  0
  1  2  1  0
  2  3  1  0
  3  4  1  0
  4  5  1  0
  5  6  1  0
  6  7  1  0
  7  8  1  0
  8  9  1  0
  8 10  2  0
  2 11  1  0
 11 12  1  0
 11 13  2  0
  1 14  1  0
  1 15  1  0
  2 16  1  1
  3 17  1  0
  3 18  1  0
  4 19  1  0
  4 20  1  0
  5 21  1  0
  5 22  1  0
  6 23  1  0
  6 24  1  0
  7 25  1  0
  9 26  1  0
 12 27  1  0
M  END
$$$$
