
     RDKit          3D

 51 56  0  0  0  0  0  0  0  0999 V2000
   -8.1117    0.7254   -3.9022 N   0  0  0  0  0  0  0  0  0  0  0  0
   -7.0264    0.7739   -3.6309 C   0  0  0  0  0  0  0  0  0  0  0  0
   -5.6099    0.8428   -3.2895 C   0  0  0  0  0  0  0  0  0  0  0  0
   -5.2662    0.5880   -1.9435 C   0  0  0  0  0  0  0  0  0  0  0  0
   -3.9419    0.6462   -1.6524 C   0  0  0  0  0  0  0  0  0  0  0  0
   -2.9767    0.9321   -2.5851 C   0  0  0  0  0  0  0  0  0  0  0  0
   -3.3482    1.1815   -3.9156 C   0  0  0  0  0  0  0  0  0  0  0  0
   -4.6939    1.1297   -4.2465 C   0  0  0  0  0  0  0  0  0  0  0  0
   -2.2142    1.4170   -4.5658 N   0  0  0  0  0  0  0  0  0  0  0  0
   -1.1642    1.3279   -3.7202 C   0  0  0  0  0  0  0  0  0  0  0  0
    0.0487    1.5077   -4.0734 O   0  0  0  0  0  0  0  0  0  0  0  0
   -1.6466    1.0309   -2.5210 N   0  0  0  0  0  0  0  0  0  0  0  0
   -0.8832    0.8221   -1.3124 C   0  0  1  0  0  0  0  0  0  0  0  0
    0.4113    0.0717   -1.4630 C   0  0  0  0  0  0  0  0  0  0  0  0
    1.1631    1.2351   -0.9958 C   0  0  2  0  0  0  0  0  0  0  0  0
    1.8908    1.2498    0.2810 C   0  0  0  0  0  0  0  0  0  0  0  0
    2.5496    2.3703    0.7616 N   0  0  0  0  0  0  0  0  0  0  0  0
    3.1098    2.0730    1.8880 N   0  0  0  0  0  0  0  0  0  0  0  0
    2.8488    0.7903    2.1774 C   0  0  0  0  0  0  0  0  0  0  0  0
    3.3205    0.0516    3.3670 C   0  0  0  0  0  0  0  0  0  0  0  0
    4.1065    0.7231    4.2410 C   0  0  0  0  0  0  0  0  0  0  0  0
    4.5827    0.0634    5.3640 C   0  0  0  0  0  0  0  0  0  0  0  0
    4.2260   -1.2291    5.5129 N   0  0  0  0  0  0  0  0  0  0  0  0
    3.4426   -1.8852    4.6312 C   0  0  0  0  0  0  0  0  0  0  0  0
    2.9860   -1.2092    3.5307 N   0  0  0  0  0  0  0  0  0  0  0  0
    2.0870    0.2861    1.1680 N   0  0  0  0  0  0  0  0  0  0  0  0
    1.6708   -1.0720    1.1995 C   0  0  0  0  0  0  0  0  0  0  0  0
    2.4929   -2.0546    0.5947 C   0  0  0  0  0  0  0  0  0  0  0  0
    2.1378   -3.3930    0.6244 C   0  0  0  0  0  0  0  0  0  0  0  0
    0.9587   -3.8080    1.2544 C   0  0  0  0  0  0  0  0  0  0  0  0
    0.1627   -2.8694    1.8415 C   0  0  0  0  0  0  0  0  0  0  0  0
    0.5387   -1.5277    1.7989 C   0  0  0  0  0  0  0  0  0  0  0  0
   -0.5485   -0.3737    2.5731 Cl  0  0  0  0  0  0  0  0  0  0  0  0
   -0.1393    2.0081   -0.8081 C   0  0  0  0  0  0  0  0  0  0  0  0
   -6.0403    0.3681   -1.2489 H   0  0  0  0  0  0  0  0  0  0  0  0
   -3.6429    0.4556   -0.6085 H   0  0  0  0  0  0  0  0  0  0  0  0
   -4.9492    1.3244   -5.2819 H   0  0  0  0  0  0  0  0  0  0  0  0
   -2.1812    1.6359   -5.5930 H   0  0  0  0  0  0  0  0  0  0  0  0
   -1.4801    0.3397   -0.4925 H   0  0  0  0  0  0  0  0  0  0  0  0
    0.4553   -0.8816   -0.9052 H   0  0  0  0  0  0  0  0  0  0  0  0
    0.6671   -0.1173   -2.5662 H   0  0  0  0  0  0  0  0  0  0  0  0
    1.7272    1.8139   -1.8112 H   0  0  0  0  0  0  0  0  0  0  0  0
    4.3721    1.7496    4.0940 H   0  0  0  0  0  0  0  0  0  0  0  0
    5.2107    0.5886    6.0700 H   0  0  0  0  0  0  0  0  0  0  0  0
    3.2080   -2.9142    4.8316 H   0  0  0  0  0  0  0  0  0  0  0  0
    3.3911   -1.7344    0.1111 H   0  0  0  0  0  0  0  0  0  0  0  0
    2.7283   -4.1773    0.1781 H   0  0  0  0  0  0  0  0  0  0  0  0
    0.7020   -4.8794    1.2631 H   0  0  0  0  0  0  0  0  0  0  0  0
   -0.7492   -3.1734    2.3361 H   0  0  0  0  0  0  0  0  0  0  0  0
   -0.3596    2.2447    0.2760 H   0  0  0  0  0  0  0  0  0  0  0  0
   -0.2233    2.9313   -1.4295 H   0  0  0  0  0  0  0  0  0  0  0  0
  1  2  3  0
  2  3  1  0
  3  4  2  0
  4  5  1  0
  5  6  2  0
  6  7  1  0
  7  8  2  0
  7  9  1  0
  9 10  1  0
 10 11  2  0
 10 12  1  0
 12 13  1  0
 13 14  1  0
 14 15  1  0
 15 16  1  0
 16 17  2  0
 17 18  1  0
 18 19  2  0
 19 20  1  0
 20 21  2  0
 21 22  1  0
 22 23  2  0
 23 24  1  0
 24 25  2  0
 19 26  1  0
 26 27  1  0
 27 28  2  0
 28 29  1  0
 29 30  2  0
 30 31  1  0
 31 32  2  0
 32 33  1  0
 15 34  1  0
  8  3  1  0
 34 13  1  0
 12  6  1  0
 26 16  1  0
 32 27  1  0
 25 20  1  0
  4 35  1  0
  5 36  1  0
  8 37  1  0
  9 38  1  0
 13 39  1  1
 14 40  1  0
 14 41  1  0
 15 42  1  6
 21 43  1  0
 22 44  1  0
 24 45  1  0
 28 46  1  0
 29 47  1  0
 30 48  1  0
 31 49  1  0
 34 50  1  0
 34 51  1  0
M  END
$$$$
