@<TRIPOS>MOLECULE
*****
 51 56 0 0 0
SMALL
GASTEIGER

@<TRIPOS>ATOM
      1 N          -8.1117    0.7254   -3.9022 N.1     1  UNL1       -0.1909
      2 C          -7.0264    0.7739   -3.6309 C.1     1  UNL1        0.0992
      3 C          -5.6099    0.8428   -3.2895 C.ar    1  UNL1        0.0538
      4 C          -5.2662    0.5880   -1.9435 C.ar    1  UNL1       -0.0423
      5 C          -3.9419    0.6462   -1.6524 C.ar    1  UNL1       -0.0348
      6 C          -2.9767    0.9321   -2.5851 C.ar    1  UNL1        0.0700
      7 C          -3.3482    1.1815   -3.9156 C.ar    1  UNL1        0.0682
      8 C          -4.6939    1.1297   -4.2465 C.ar    1  UNL1       -0.0188
      9 N          -2.2142    1.4170   -4.5658 N.ar    1  UNL1       -0.3059
     10 C          -1.1642    1.3279   -3.7202 C.ar    1  UNL1        0.3278
     11 O           0.0487    1.5077   -4.0734 O.2     1  UNL1       -0.2465
     12 N          -1.6466    1.0309   -2.5210 N.ar    1  UNL1       -0.2891
     13 C          -0.8832    0.8221   -1.3124 C.3     1  UNL1        0.0407
     14 C           0.4113    0.0717   -1.4630 C.3     1  UNL1       -0.0221
     15 C           1.1631    1.2351   -0.9958 C.3     1  UNL1        0.0232
     16 C           1.8908    1.2498    0.2810 C.ar    1  UNL1        0.1415
     17 N           2.5496    2.3703    0.7616 N.ar    1  UNL1       -0.1333
     18 N           3.1098    2.0730    1.8880 N.ar    1  UNL1       -0.1272
     19 C           2.8488    0.7903    2.1774 C.ar    1  UNL1        0.1873
     20 C           3.3205    0.0516    3.3670 C.ar    1  UNL1        0.1115
     21 C           4.1065    0.7231    4.2410 C.ar    1  UNL1       -0.0145
     22 C           4.5827    0.0634    5.3640 C.ar    1  UNL1        0.0314
     23 N           4.2260   -1.2291    5.5129 N.ar    1  UNL1       -0.2437
     24 C           3.4426   -1.8852    4.6312 C.ar    1  UNL1        0.1167
     25 N           2.9860   -1.2092    3.5307 N.ar    1  UNL1       -0.2323
     26 N           2.0870    0.2861    1.1680 N.ar    1  UNL1       -0.2762
     27 C           1.6708   -1.0720    1.1995 C.ar    1  UNL1        0.0681
     28 C           2.4929   -2.0546    0.5947 C.ar    1  UNL1       -0.0363
     29 C           2.1378   -3.3930    0.6244 C.ar    1  UNL1       -0.0597
     30 C           0.9587   -3.8080    1.2544 C.ar    1  UNL1       -0.0603
     31 C           0.1627   -2.8694    1.8415 C.ar    1  UNL1       -0.0414
     32 C           0.5387   -1.5277    1.7989 C.ar    1  UNL1        0.0648
     33 CL         -0.5485   -0.3737    2.5731 Cl      1  UNL1       -0.0814
     34 C          -0.1393    2.0081   -0.8081 C.3     1  UNL1       -0.0221
     35 H          -6.0403    0.3681   -1.2489 H       1  UNL1        0.0631
     36 H          -3.6429    0.4556   -0.6085 H       1  UNL1        0.0639
     37 H          -4.9492    1.3244   -5.2819 H       1  UNL1        0.0652
     38 H          -2.1812    1.6359   -5.5930 H       1  UNL1        0.1705
     39 H          -1.4801    0.3397   -0.4925 H       1  UNL1        0.0530
     40 H           0.4553   -0.8816   -0.9052 H       1  UNL1        0.0292
     41 H           0.6671   -0.1173   -2.5662 H       1  UNL1        0.0292
     42 H           1.7272    1.8139   -1.8112 H       1  UNL1        0.0381
     43 H           4.3721    1.7496    4.0940 H       1  UNL1        0.0655
     44 H           5.2107    0.5886    6.0700 H       1  UNL1        0.0831
     45 H           3.2080   -2.9142    4.8316 H       1  UNL1        0.1047
     46 H           3.3911   -1.7344    0.1111 H       1  UNL1        0.0639
     47 H           2.7283   -4.1773    0.1781 H       1  UNL1        0.0618
     48 H           0.7020   -4.8794    1.2631 H       1  UNL1        0.0618
     49 H          -0.7492   -3.1734    2.3361 H       1  UNL1        0.0633
     50 H          -0.3596    2.2447    0.2760 H       1  UNL1        0.0292
     51 H          -0.2233    2.9313   -1.4295 H       1  UNL1        0.0292
@<TRIPOS>BOND
     1     1     2    3
     2     2     3    1
     3     3     4   ar
     4     4     5   ar
     5     5     6   ar
     6     6     7   ar
     7     7     8   ar
     8     7     9   ar
     9     9    10   ar
    10    10    11    2
    11    10    12   ar
    12    12    13    1
    13    13    14    1
    14    14    15    1
    15    15    16    1
    16    16    17   ar
    17    17    18   ar
    18    18    19   ar
    19    19    20    1
    20    20    21   ar
    21    21    22   ar
    22    22    23   ar
    23    23    24   ar
    24    24    25   ar
    25    19    26   ar
    26    26    27    1
    27    27    28   ar
    28    28    29   ar
    29    29    30   ar
    30    30    31   ar
    31    31    32   ar
    32    32    33    1
    33    15    34    1
    34     8     3   ar
    35    34    13    1
    36    12     6   ar
    37    26    16   ar
    38    32    27   ar
    39    25    20   ar
    40     4    35    1
    41     5    36    1
    42     8    37    1
    43     9    38    1
    44    13    39    1
    45    14    40    1
    46    14    41    1
    47    15    42    1
    48    21    43    1
    49    22    44    1
    50    24    45    1
    51    28    46    1
    52    29    47    1
    53    30    48    1
    54    31    49    1
    55    34    50    1
    56    34    51    1
