@<TRIPOS>MOLECULE
*****
 61 64 0 0 0
SMALL
GASTEIGER

@<TRIPOS>ATOM
      1 C           9.2636    1.2999    1.2292 C.3     1  UNL1        0.0788
      2 O           8.0990    0.5159    1.4132 O.3     1  UNL1       -0.4951
      3 C           7.0143    0.7430    0.5801 C.ar    1  UNL1        0.1204
      4 C           7.0109    1.6936   -0.4184 C.ar    1  UNL1       -0.0196
      5 C           5.9146    1.8945   -1.2300 C.ar    1  UNL1       -0.0536
      6 C           4.7437    1.1431   -1.0834 C.ar    1  UNL1       -0.0301
      7 C           4.7576    0.1984   -0.0844 C.ar    1  UNL1       -0.0376
      8 C           5.8679   -0.0043    0.7363 C.ar    1  UNL1       -0.0164
      9 C           3.5291   -0.6331    0.1206 C.3     1  UNL1       -0.0033
     10 C           2.3692    0.3278   -0.1766 C.3     1  UNL1        0.0893
     11 C           1.1318   -0.4043    0.1282 C.2     1  UNL1        0.2346
     12 O           0.8839   -0.7438    1.3329 O.2     1  UNL1       -0.2737
     13 N           0.1492   -0.7830   -0.8335 N.am    1  UNL1       -0.2813
     14 C          -1.0285   -1.4904   -0.4816 C.ar    1  UNL1        0.0757
     15 C          -1.0118   -2.8544   -0.4790 C.ar    1  UNL1       -0.0363
     16 C          -2.1344   -3.5822   -0.1420 C.ar    1  UNL1       -0.0520
     17 C          -3.3209   -2.9784    0.2066 C.ar    1  UNL1       -0.0114
     18 C          -4.5277   -3.7058    0.5678 C.ar    1  UNL1        0.0194
     19 C          -4.5401   -4.9284    1.2054 C.ar    1  UNL1        0.0568
     20 N          -5.8197   -5.3156    1.3877 N.ar    1  UNL1       -0.1817
     21 N          -6.6176   -4.3856    0.8908 N.ar    1  UNL1       -0.2841
     22 C          -5.8492   -3.3790    0.3774 C.ar    1  UNL1        0.0300
     23 C          -3.3258   -1.5767    0.2005 C.ar    1  UNL1       -0.0103
     24 C          -2.2188   -0.8378   -0.1325 C.ar    1  UNL1        0.1422
     25 O          -2.1668    0.5212   -0.1544 O.3     1  UNL1       -0.4888
     26 C          -3.0512    1.5272    0.0866 C.3     1  UNL1        0.1023
     27 C          -4.2277    1.5786   -0.8482 C.3     1  UNL1        0.0325
     28 N          -5.1126    2.6808   -0.5128 N.3     1  UNL1       -0.3051
     29 C          -5.7589    2.4493    0.7475 C.3     1  UNL1       -0.0129
     30 C          -4.4523    3.9602   -0.6069 C.3     1  UNL1       -0.0129
     31 N           2.4449    0.6272   -1.5737 N.3     1  UNL1       -0.3014
     32 C           3.5794    1.3818   -1.9756 C.3     1  UNL1        0.0222
     33 H           9.0216    2.3884    1.1783 H       1  UNL1        0.0660
     34 H          10.0271    1.0828    2.0017 H       1  UNL1        0.0660
     35 H           9.6611    1.0441    0.2225 H       1  UNL1        0.0660
     36 H           7.9272    2.2769   -0.5304 H       1  UNL1        0.0654
     37 H           5.9245    2.6406   -2.0073 H       1  UNL1        0.0622
     38 H           5.8418   -0.7503    1.5050 H       1  UNL1        0.0657
     39 H           3.4983   -0.9767    1.1801 H       1  UNL1        0.0333
     40 H           3.4913   -1.4936   -0.5679 H       1  UNL1        0.0333
     41 H           2.5327    1.1963    0.4865 H       1  UNL1        0.0560
     42 H           0.3310   -0.5151   -1.8309 H       1  UNL1        0.1550
     43 H          -0.0899   -3.3946   -0.7492 H       1  UNL1        0.0637
     44 H          -2.0957   -4.6634   -0.1479 H       1  UNL1        0.0624
     45 H          -3.6976   -5.5303    1.5319 H       1  UNL1        0.0854
     46 H          -7.6576   -4.3895    0.8770 H       1  UNL1        0.1882
     47 H          -6.1620   -2.4705   -0.1029 H       1  UNL1        0.0830
     48 H          -4.2477   -1.0975    0.4916 H       1  UNL1        0.0661
     49 H          -2.5159    2.5102    0.1078 H       1  UNL1        0.0709
     50 H          -3.4949    1.3856    1.1121 H       1  UNL1        0.0709
     51 H          -3.9088    1.7654   -1.9052 H       1  UNL1        0.0460
     52 H          -4.8255    0.6709   -0.8030 H       1  UNL1        0.0460
     53 H          -6.8280    2.7572    0.7470 H       1  UNL1        0.0391
     54 H          -5.2507    2.9840    1.5552 H       1  UNL1        0.0391
     55 H          -5.7626    1.3497    0.9289 H       1  UNL1        0.0391
     56 H          -3.9537    3.9904   -1.6155 H       1  UNL1        0.0391
     57 H          -3.7152    4.1442    0.1971 H       1  UNL1        0.0391
     58 H          -5.1771    4.8059   -0.5775 H       1  UNL1        0.0391
     59 H           2.4219   -0.2664   -2.1003 H       1  UNL1        0.1230
     60 H           3.2979    2.4762   -1.9407 H       1  UNL1        0.0474
     61 H           3.8116    1.1395   -3.0328 H       1  UNL1        0.0474
@<TRIPOS>BOND
     1     1     2    1
     2     2     3    1
     3     3     4   ar
     4     4     5   ar
     5     5     6   ar
     6     6     7   ar
     7     7     8   ar
     8     7     9    1
     9     9    10    1
    10    10    11    1
    11    11    12    2
    12    11    13   am
    13    13    14    1
    14    14    15   ar
    15    15    16   ar
    16    16    17   ar
    17    17    18    1
    18    18    19   ar
    19    19    20   ar
    20    20    21   ar
    21    21    22   ar
    22    17    23   ar
    23    23    24   ar
    24    24    25    1
    25    25    26    1
    26    26    27    1
    27    27    28    1
    28    28    29    1
    29    28    30    1
    30    10    31    1
    31    31    32    1
    32     8     3   ar
    33    24    14   ar
    34    32     6    1
    35    22    18   ar
    36     1    33    1
    37     1    34    1
    38     1    35    1
    39     4    36    1
    40     5    37    1
    41     8    38    1
    42     9    39    1
    43     9    40    1
    44    10    41    1
    45    13    42    1
    46    15    43    1
    47    16    44    1
    48    19    45    1
    49    21    46    1
    50    22    47    1
    51    23    48    1
    52    26    49    1
    53    26    50    1
    54    27    51    1
    55    27    52    1
    56    29    53    1
    57    29    54    1
    58    29    55    1
    59    30    56    1
    60    30    57    1
    61    30    58    1
    62    31    59    1
    63    32    60    1
    64    32    61    1
