
     RDKit          3D

 61 64  0  0  0  0  0  0  0  0999 V2000
    9.2636    1.2999    1.2292 C   0  0  0  0  0  0  0  0  0  0  0  0
    8.0990    0.5159    1.4132 O   0  0  0  0  0  0  0  0  0  0  0  0
    7.0143    0.7430    0.5801 C   0  0  0  0  0  0  0  0  0  0  0  0
    7.0109    1.6936   -0.4184 C   0  0  0  0  0  0  0  0  0  0  0  0
    5.9146    1.8945   -1.2300 C   0  0  0  0  0  0  0  0  0  0  0  0
    4.7437    1.1431   -1.0834 C   0  0  0  0  0  0  0  0  0  0  0  0
    4.7576    0.1984   -0.0844 C   0  0  0  0  0  0  0  0  0  0  0  0
    5.8679   -0.0043    0.7363 C   0  0  0  0  0  0  0  0  0  0  0  0
    3.5291   -0.6331    0.1206 C   0  0  0  0  0  0  0  0  0  0  0  0
    2.3692    0.3278   -0.1766 C   0  0  2  0  0  0  0  0  0  0  0  0
    1.1318   -0.4043    0.1282 C   0  0  0  0  0  0  0  0  0  0  0  0
    0.8839   -0.7438    1.3329 O   0  0  0  0  0  0  0  0  0  0  0  0
    0.1492   -0.7830   -0.8335 N   0  0  0  0  0  0  0  0  0  0  0  0
   -1.0285   -1.4904   -0.4816 C   0  0  0  0  0  0  0  0  0  0  0  0
   -1.0118   -2.8544   -0.4790 C   0  0  0  0  0  0  0  0  0  0  0  0
   -2.1344   -3.5822   -0.1420 C   0  0  0  0  0  0  0  0  0  0  0  0
   -3.3209   -2.9784    0.2066 C   0  0  0  0  0  0  0  0  0  0  0  0
   -4.5277   -3.7058    0.5678 C   0  0  0  0  0  0  0  0  0  0  0  0
   -4.5401   -4.9284    1.2054 C   0  0  0  0  0  0  0  0  0  0  0  0
   -5.8197   -5.3156    1.3877 N   0  0  0  0  0  0  0  0  0  0  0  0
   -6.6176   -4.3856    0.8908 N   0  0  0  0  0  0  0  0  0  0  0  0
   -5.8492   -3.3790    0.3774 C   0  0  0  0  0  0  0  0  0  0  0  0
   -3.3258   -1.5767    0.2005 C   0  0  0  0  0  0  0  0  0  0  0  0
   -2.2188   -0.8378   -0.1325 C   0  0  0  0  0  0  0  0  0  0  0  0
   -2.1668    0.5212   -0.1544 O   0  0  0  0  0  0  0  0  0  0  0  0
   -3.0512    1.5272    0.0866 C   0  0  0  0  0  0  0  0  0  0  0  0
   -4.2277    1.5786   -0.8482 C   0  0  0  0  0  0  0  0  0  0  0  0
   -5.1126    2.6808   -0.5128 N   0  0  0  0  0  0  0  0  0  0  0  0
   -5.7589    2.4493    0.7475 C   0  0  0  0  0  0  0  0  0  0  0  0
   -4.4523    3.9602   -0.6069 C   0  0  0  0  0  0  0  0  0  0  0  0
    2.4449    0.6272   -1.5737 N   0  0  0  0  0  0  0  0  0  0  0  0
    3.5794    1.3818   -1.9756 C   0  0  0  0  0  0  0  0  0  0  0  0
    9.0216    2.3884    1.1783 H   0  0  0  0  0  0  0  0  0  0  0  0
   10.0271    1.0828    2.0017 H   0  0  0  0  0  0  0  0  0  0  0  0
    9.6611    1.0441    0.2225 H   0  0  0  0  0  0  0  0  0  0  0  0
    7.9272    2.2769   -0.5304 H   0  0  0  0  0  0  0  0  0  0  0  0
    5.9245    2.6406   -2.0073 H   0  0  0  0  0  0  0  0  0  0  0  0
    5.8418   -0.7503    1.5050 H   0  0  0  0  0  0  0  0  0  0  0  0
    3.4983   -0.9767    1.1801 H   0  0  0  0  0  0  0  0  0  0  0  0
    3.4913   -1.4936   -0.5679 H   0  0  0  0  0  0  0  0  0  0  0  0
    2.5327    1.1963    0.4865 H   0  0  0  0  0  0  0  0  0  0  0  0
    0.3310   -0.5151   -1.8309 H   0  0  0  0  0  0  0  0  0  0  0  0
   -0.0899   -3.3946   -0.7492 H   0  0  0  0  0  0  0  0  0  0  0  0
   -2.0957   -4.6634   -0.1479 H   0  0  0  0  0  0  0  0  0  0  0  0
   -3.6976   -5.5303    1.5319 H   0  0  0  0  0  0  0  0  0  0  0  0
   -7.6576   -4.3895    0.8770 H   0  0  0  0  0  0  0  0  0  0  0  0
   -6.1620   -2.4705   -0.1029 H   0  0  0  0  0  0  0  0  0  0  0  0
   -4.2477   -1.0975    0.4916 H   0  0  0  0  0  0  0  0  0  0  0  0
   -2.5159    2.5102    0.1078 H   0  0  0  0  0  0  0  0  0  0  0  0
   -3.4949    1.3856    1.1121 H   0  0  0  0  0  0  0  0  0  0  0  0
   -3.9088    1.7654   -1.9052 H   0  0  0  0  0  0  0  0  0  0  0  0
   -4.8255    0.6709   -0.8030 H   0  0  0  0  0  0  0  0  0  0  0  0
   -6.8280    2.7572    0.7470 H   0  0  0  0  0  0  0  0  0  0  0  0
   -5.2507    2.9840    1.5552 H   0  0  0  0  0  0  0  0  0  0  0  0
   -5.7626    1.3497    0.9289 H   0  0  0  0  0  0  0  0  0  0  0  0
   -3.9537    3.9904   -1.6155 H   0  0  0  0  0  0  0  0  0  0  0  0
   -3.7152    4.1442    0.1971 H   0  0  0  0  0  0  0  0  0  0  0  0
   -5.1771    4.8059   -0.5775 H   0  0  0  0  0  0  0  0  0  0  0  0
    2.4219   -0.2664   -2.1003 H   0  0  0  0  0  0  0  0  0  0  0  0
    3.2979    2.4762   -1.9407 H   0  0  0  0  0  0  0  0  0  0  0  0
    3.8116    1.1395   -3.0328 H   0  0  0  0  0  0  0  0  0  0  0  0
  1  2  1  0
  2  3  1  0
  3  4  2  0
  4  5  1  0
  5  6  2  0
  6  7  1  0
  7  8  2  0
  7  9  1  0
  9 10  1  0
 10 11  1  0
 11 12  2  0
 11 13  1  0
 13 14  1  0
 14 15  2  0
 15 16  1  0
 16 17  2  0
 17 18  1  0
 18 19  1  0
 19 20  2  0
 20 21  1  0
 21 22  1  0
 17 23  1  0
 23 24  2  0
 24 25  1  0
 25 26  1  0
 26 27  1  0
 27 28  1  0
 28 29  1  0
 28 30  1  0
 10 31  1  0
 31 32  1  0
  8  3  1  0
 24 14  1  0
 32  6  1  0
 22 18  2  0
  1 33  1  0
  1 34  1  0
  1 35  1  0
  4 36  1  0
  5 37  1  0
  8 38  1  0
  9 39  1  0
  9 40  1  0
 10 41  1  1
 13 42  1  0
 15 43  1  0
 16 44  1  0
 19 45  1  0
 21 46  1  0
 22 47  1  0
 23 48  1  0
 26 49  1  0
 26 50  1  0
 27 51  1  0
 27 52  1  0
 29 53  1  0
 29 54  1  0
 29 55  1  0
 30 56  1  0
 30 57  1  0
 30 58  1  0
 31 59  1  0
 32 60  1  0
 32 61  1  0
M  END
$$$$
