@<TRIPOS>MOLECULE
*****
 47 48 0 0 0
SMALL
GASTEIGER

@<TRIPOS>ATOM
      1 CL          3.5096   -4.1532    0.9619 Cl      1  UNL1       -0.0820
      2 C           3.2833   -2.4997    0.4169 C.ar    1  UNL1        0.0596
      3 C           4.3200   -1.6121    0.5377 C.ar    1  UNL1       -0.0420
      4 C           4.1443   -0.3396    0.1113 C.ar    1  UNL1       -0.0600
      5 C           2.9355    0.0715   -0.4415 C.ar    1  UNL1       -0.0556
      6 C           1.8547   -0.8093   -0.5787 C.ar    1  UNL1       -0.0105
      7 C           0.5737   -0.2808   -1.1007 C.3     1  UNL1        0.0387
      8 N          -0.2867    0.2970   -0.0920 N.pl3   1  UNL1       -0.3252
      9 C          -1.1033   -0.4333    0.8319 C.3     1  UNL1        0.0177
     10 C          -2.4088   -0.9105    0.3340 C.3     1  UNL1       -0.0002
     11 C          -2.5686   -1.8232   -0.8072 C.3     1  UNL1        0.0013
     12 N          -3.6720   -2.4728   -0.0615 N.3     1  UNL1       -0.3153
     13 C          -2.9291   -2.1110    1.1498 C.3     1  UNL1        0.0013
     14 C          -0.3638    1.7546   -0.0547 C.ar    1  UNL1        0.0300
     15 C          -1.1886    2.3947    0.8518 C.ar    1  UNL1       -0.0407
     16 C          -1.3068    3.7632    0.9378 C.ar    1  UNL1       -0.0600
     17 C          -0.5453    4.5158    0.0534 C.ar    1  UNL1       -0.0616
     18 C           0.2807    3.9300   -0.8573 C.ar    1  UNL1       -0.0600
     19 C           0.3727    2.5313   -0.9129 C.ar    1  UNL1       -0.0407
     20 C           2.0624   -2.0817   -0.1429 C.ar    1  UNL1        0.0639
     21 CL          0.8723   -3.3654   -0.2968 Cl      1  UNL1       -0.0817
     22 O           0.8628   -0.2604    1.4348 O.2     2  UNL2       -0.2408
     23 C           0.5066    0.0050    0.2551 C.2     2  UNL2        0.4107
     24 O           1.4697    0.1898   -0.6941 O.3     2  UNL2       -0.4744
     25 C          -0.9569    0.0977   -0.0163 C.3     2  UNL2        0.4910
     26 F          -1.6909   -0.1340    1.1237 F       2  UNL2       -0.1606
     27 F          -1.2759   -0.9341   -0.9060 F       2  UNL2       -0.1606
     28 F          -1.2958    1.2687   -0.6485 F       2  UNL2       -0.1606
     29 H           5.2508   -1.9772    0.9809 H       1  UNL1        0.0633
     30 H           4.9426    0.3736    0.1984 H       1  UNL1        0.0618
     31 H           2.8690    1.0800   -0.7559 H       1  UNL1        0.0621
     32 H           0.7503    0.3810   -1.9596 H       1  UNL1        0.0513
     33 H           0.0241   -1.1611   -1.5903 H       1  UNL1        0.0513
     34 H          -1.2381    0.1184    1.7755 H       1  UNL1        0.0467
     35 H          -0.5504   -1.3715    1.1885 H       1  UNL1        0.0467
     36 H          -3.2370   -0.1127    0.3869 H       1  UNL1        0.0341
     37 H          -3.0255   -1.3867   -1.7328 H       1  UNL1        0.0428
     38 H          -1.7868   -2.5500   -0.9608 H       1  UNL1        0.0428
     39 H          -3.6864   -3.4950   -0.2766 H       1  UNL1        0.1220
     40 H          -2.1229   -2.8106    1.3795 H       1  UNL1        0.0428
     41 H          -3.5488   -1.8400    2.0068 H       1  UNL1        0.0428
     42 H          -1.7872    1.8374    1.5330 H       1  UNL1        0.0636
     43 H          -1.9676    4.2423    1.6660 H       1  UNL1        0.0618
     44 H          -0.6263    5.6069    0.1027 H       1  UNL1        0.0618
     45 H           0.8706    4.5462   -1.5459 H       1  UNL1        0.0618
     46 H           1.0333    2.1538   -1.6435 H       1  UNL1        0.0636
     47 H           2.3804   -0.2327   -0.5489 H       2  UNL2        0.2953
@<TRIPOS>BOND
     1     1     2    1
     2     2     3   ar
     3     3     4   ar
     4     4     5   ar
     5     5     6   ar
     6     6     7    1
     7     7     8    1
     8     8     9    1
     9     9    10    1
    10    10    11    1
    11    11    12    1
    12    12    13    1
    13     8    14    1
    14    14    15   ar
    15    15    16   ar
    16    16    17   ar
    17    17    18   ar
    18    18    19   ar
    19     6    20   ar
    20    20    21    1
    21    22    23    2
    22    23    24    1
    23    23    25    1
    24    25    26    1
    25    25    27    1
    26    25    28    1
    27    20     2   ar
    28    13    10    1
    29    19    14   ar
    30     3    29    1
    31     4    30    1
    32     5    31    1
    33     7    32    1
    34     7    33    1
    35     9    34    1
    36     9    35    1
    37    10    36    1
    38    11    37    1
    39    11    38    1
    40    12    39    1
    41    13    40    1
    42    13    41    1
    43    15    42    1
    44    16    43    1
    45    17    44    1
    46    18    45    1
    47    19    46    1
    48    24    47    1
