
     RDKit          3D

 47 48  0  0  0  0  0  0  0  0999 V2000
    3.5096   -4.1532    0.9619 Cl  0  0  0  0  0  0  0  0  0  0  0  0
    3.2833   -2.4997    0.4169 C   0  0  0  0  0  0  0  0  0  0  0  0
    4.3200   -1.6121    0.5377 C   0  0  0  0  0  0  0  0  0  0  0  0
    4.1443   -0.3396    0.1113 C   0  0  0  0  0  0  0  0  0  0  0  0
    2.9355    0.0715   -0.4415 C   0  0  0  0  0  0  0  0  0  0  0  0
    1.8547   -0.8093   -0.5787 C   0  0  0  0  0  0  0  0  0  0  0  0
    0.5737   -0.2808   -1.1007 C   0  0  0  0  0  0  0  0  0  0  0  0
   -0.2867    0.2970   -0.0920 N   0  0  0  0  0  0  0  0  0  0  0  0
   -1.1033   -0.4333    0.8319 C   0  0  0  0  0  0  0  0  0  0  0  0
   -2.4088   -0.9105    0.3340 C   0  0  0  0  0  0  0  0  0  0  0  0
   -2.5686   -1.8232   -0.8072 C   0  0  0  0  0  0  0  0  0  0  0  0
   -3.6720   -2.4728   -0.0615 N   0  0  0  0  0  0  0  0  0  0  0  0
   -2.9291   -2.1110    1.1498 C   0  0  0  0  0  0  0  0  0  0  0  0
   -0.3638    1.7546   -0.0547 C   0  0  0  0  0  0  0  0  0  0  0  0
   -1.1886    2.3947    0.8518 C   0  0  0  0  0  0  0  0  0  0  0  0
   -1.3068    3.7632    0.9378 C   0  0  0  0  0  0  0  0  0  0  0  0
   -0.5453    4.5158    0.0534 C   0  0  0  0  0  0  0  0  0  0  0  0
    0.2807    3.9300   -0.8573 C   0  0  0  0  0  0  0  0  0  0  0  0
    0.3727    2.5313   -0.9129 C   0  0  0  0  0  0  0  0  0  0  0  0
    2.0624   -2.0817   -0.1429 C   0  0  0  0  0  0  0  0  0  0  0  0
    0.8723   -3.3654   -0.2968 Cl  0  0  0  0  0  0  0  0  0  0  0  0
    0.8628   -0.2604    1.4348 O   0  0  0  0  0  0  0  0  0  0  0  0
    0.5066    0.0050    0.2551 C   0  0  0  0  0  0  0  0  0  0  0  0
    1.4697    0.1898   -0.6941 O   0  0  0  0  0  0  0  0  0  0  0  0
   -0.9569    0.0977   -0.0163 C   0  0  0  0  0  0  0  0  0  0  0  0
   -1.6909   -0.1340    1.1237 F   0  0  0  0  0  0  0  0  0  0  0  0
   -1.2759   -0.9341   -0.9060 F   0  0  0  0  0  0  0  0  0  0  0  0
   -1.2958    1.2687   -0.6485 F   0  0  0  0  0  0  0  0  0  0  0  0
    5.2508   -1.9772    0.9809 H   0  0  0  0  0  0  0  0  0  0  0  0
    4.9426    0.3736    0.1984 H   0  0  0  0  0  0  0  0  0  0  0  0
    2.8690    1.0800   -0.7559 H   0  0  0  0  0  0  0  0  0  0  0  0
    0.7503    0.3810   -1.9596 H   0  0  0  0  0  0  0  0  0  0  0  0
    0.0241   -1.1611   -1.5903 H   0  0  0  0  0  0  0  0  0  0  0  0
   -1.2381    0.1184    1.7755 H   0  0  0  0  0  0  0  0  0  0  0  0
   -0.5504   -1.3715    1.1885 H   0  0  0  0  0  0  0  0  0  0  0  0
   -3.2370   -0.1127    0.3869 H   0  0  0  0  0  0  0  0  0  0  0  0
   -3.0255   -1.3867   -1.7328 H   0  0  0  0  0  0  0  0  0  0  0  0
   -1.7868   -2.5500   -0.9608 H   0  0  0  0  0  0  0  0  0  0  0  0
   -3.6864   -3.4950   -0.2766 H   0  0  0  0  0  0  0  0  0  0  0  0
   -2.1229   -2.8106    1.3795 H   0  0  0  0  0  0  0  0  0  0  0  0
   -3.5488   -1.8400    2.0068 H   0  0  0  0  0  0  0  0  0  0  0  0
   -1.7872    1.8374    1.5330 H   0  0  0  0  0  0  0  0  0  0  0  0
   -1.9676    4.2423    1.6660 H   0  0  0  0  0  0  0  0  0  0  0  0
   -0.6263    5.6069    0.1027 H   0  0  0  0  0  0  0  0  0  0  0  0
    0.8706    4.5462   -1.5459 H   0  0  0  0  0  0  0  0  0  0  0  0
    1.0333    2.1538   -1.6435 H   0  0  0  0  0  0  0  0  0  0  0  0
    2.3804   -0.2327   -0.5489 H   0  0  0  0  0  0  0  0  0  0  0  0
  1  2  1  0
  2  3  2  0
  3  4  1  0
  4  5  2  0
  5  6  1  0
  6  7  1  0
  7  8  1  0
  8  9  1  0
  9 10  1  0
 10 11  1  0
 11 12  1  0
 12 13  1  0
  8 14  1  0
 14 15  2  0
 15 16  1  0
 16 17  2  0
 17 18  1  0
 18 19  2  0
  6 20  2  0
 20 21  1  0
 22 23  2  0
 23 24  1  0
 23 25  1  0
 25 26  1  0
 25 27  1  0
 25 28  1  0
 20  2  1  0
 13 10  1  0
 19 14  1  0
  3 29  1  0
  4 30  1  0
  5 31  1  0
  7 32  1  0
  7 33  1  0
  9 34  1  0
  9 35  1  0
 10 36  1  0
 11 37  1  0
 11 38  1  0
 12 39  1  0
 13 40  1  0
 13 41  1  0
 15 42  1  0
 16 43  1  0
 17 44  1  0
 18 45  1  0
 19 46  1  0
 24 47  1  0
M  END
$$$$
