
     RDKit          3D

 53 57  0  0  0  0  0  0  0  0999 V2000
    4.8683    6.6088    0.4155 N   0  0  0  0  0  0  0  0  0  0  0  0
    4.6695    5.4763    0.5139 C   0  0  0  0  0  0  0  0  0  0  0  0
    4.4066    4.0591    0.6585 C   0  0  0  0  0  0  0  0  0  0  0  0
    4.7660    3.2121   -0.3817 C   0  0  0  0  0  0  0  0  0  0  0  0
    4.5114    1.8658   -0.2344 C   0  0  0  0  0  0  0  0  0  0  0  0
    3.9207    1.3584    0.8995 C   0  0  0  0  0  0  0  0  0  0  0  0
    3.6340   -0.0135    1.0807 N   0  0  0  0  0  0  0  0  0  0  0  0
    3.8107   -1.0068    0.0588 C   0  0  0  0  0  0  0  0  0  0  0  0
    2.6126   -1.9537   -0.0161 C   0  0  0  0  0  0  0  0  0  0  0  0
    1.5499   -1.3223    0.7308 N   0  0  0  0  0  0  0  0  0  0  0  0
    0.3932   -0.8864    0.0644 C   0  0  0  0  0  0  0  0  0  0  0  0
    0.0695    0.4240   -0.0258 N   0  0  0  0  0  0  0  0  0  0  0  0
   -1.0014    0.8448   -0.6624 N   0  0  0  0  0  0  0  0  0  0  0  0
   -1.8669    0.0293   -1.2758 C   0  0  0  0  0  0  0  0  0  0  0  0
   -3.0536    0.5551   -1.9360 C   0  0  0  0  0  0  0  0  0  0  0  0
   -4.2961    0.5770   -1.1574 C   0  0  0  0  0  0  0  0  0  0  0  0
   -5.2890    1.5252   -1.4600 C   0  0  0  0  0  0  0  0  0  0  0  0
   -6.4582    1.5941   -0.7336 C   0  0  0  0  0  0  0  0  0  0  0  0
   -6.6851    0.7362    0.3083 C   0  0  0  0  0  0  0  0  0  0  0  0
   -5.7302   -0.1995    0.6243 C   0  0  0  0  0  0  0  0  0  0  0  0
   -4.5513   -0.2651   -0.1118 C   0  0  0  0  0  0  0  0  0  0  0  0
   -1.6060   -1.3369   -1.2302 C   0  0  0  0  0  0  0  0  0  0  0  0
   -2.4346   -2.2419   -1.8449 C   0  0  0  0  0  0  0  0  0  0  0  0
   -2.1695   -3.5935   -1.8096 C   0  0  0  0  0  0  0  0  0  0  0  0
   -1.0301   -4.0356   -1.1300 C   0  0  0  0  0  0  0  0  0  0  0  0
   -0.2055   -3.1244   -0.5181 C   0  0  0  0  0  0  0  0  0  0  0  0
   -0.4593   -1.7793   -0.5480 C   0  0  0  0  0  0  0  0  0  0  0  0
    1.7874   -1.1777    2.1752 C   0  0  0  0  0  0  0  0  0  0  0  0
    3.1319   -0.4530    2.3702 C   0  0  0  0  0  0  0  0  0  0  0  0
    3.5926    2.2254    1.8778 N   0  0  0  0  0  0  0  0  0  0  0  0
    3.8168    3.5456    1.7891 C   0  0  0  0  0  0  0  0  0  0  0  0
    5.2284    3.6133   -1.2645 H   0  0  0  0  0  0  0  0  0  0  0  0
    4.7968    1.2310   -1.0417 H   0  0  0  0  0  0  0  0  0  0  0  0
    3.9218   -0.5652   -0.9391 H   0  0  0  0  0  0  0  0  0  0  0  0
    4.7498   -1.5765    0.2809 H   0  0  0  0  0  0  0  0  0  0  0  0
    2.9197   -2.8594    0.5623 H   0  0  0  0  0  0  0  0  0  0  0  0
    2.3770   -2.1735   -1.0549 H   0  0  0  0  0  0  0  0  0  0  0  0
   -3.2601    0.0628   -2.9181 H   0  0  0  0  0  0  0  0  0  0  0  0
   -2.8546    1.6435   -2.2051 H   0  0  0  0  0  0  0  0  0  0  0  0
   -5.0779    2.1814   -2.2836 H   0  0  0  0  0  0  0  0  0  0  0  0
   -7.2130    2.3256   -0.9756 H   0  0  0  0  0  0  0  0  0  0  0  0
   -7.6164    0.7842    0.8944 H   0  0  0  0  0  0  0  0  0  0  0  0
   -5.9482   -0.8613    1.4579 H   0  0  0  0  0  0  0  0  0  0  0  0
   -3.8488   -1.0187    0.2102 H   0  0  0  0  0  0  0  0  0  0  0  0
   -3.3106   -1.8941   -2.3665 H   0  0  0  0  0  0  0  0  0  0  0  0
   -2.8087   -4.2982   -2.2850 H   0  0  0  0  0  0  0  0  0  0  0  0
   -0.8303   -5.1104   -1.1085 H   0  0  0  0  0  0  0  0  0  0  0  0
    0.6752   -3.4550    0.0138 H   0  0  0  0  0  0  0  0  0  0  0  0
    1.0254   -0.5652    2.6549 H   0  0  0  0  0  0  0  0  0  0  0  0
    1.9236   -2.1675    2.6531 H   0  0  0  0  0  0  0  0  0  0  0  0
    3.0170    0.3813    3.0587 H   0  0  0  0  0  0  0  0  0  0  0  0
    3.8916   -1.1496    2.7687 H   0  0  0  0  0  0  0  0  0  0  0  0
    3.5381    4.2238    2.6011 H   0  0  0  0  0  0  0  0  0  0  0  0
  1  2  3  0
  2  3  1  0
  3  4  2  0
  4  5  1  0
  5  6  2  0
  6  7  1  0
  7  8  1  0
  8  9  1  0
  9 10  1  0
 10 11  1  0
 11 12  2  0
 12 13  1  0
 13 14  2  0
 14 15  1  0
 15 16  1  0
 16 17  2  0
 17 18  1  0
 18 19  2  0
 19 20  1  0
 20 21  2  0
 14 22  1  0
 22 23  2  0
 23 24  1  0
 24 25  2  0
 25 26  1  0
 26 27  2  0
 10 28  1  0
 28 29  1  0
  6 30  1  0
 30 31  2  0
 31  3  1  0
 29  7  1  0
 27 11  1  0
 21 16  1  0
 27 22  1  0
  4 32  1  0
  5 33  1  0
  8 34  1  0
  8 35  1  0
  9 36  1  0
  9 37  1  0
 15 38  1  0
 15 39  1  0
 17 40  1  0
 18 41  1  0
 19 42  1  0
 20 43  1  0
 21 44  1  0
 23 45  1  0
 24 46  1  0
 25 47  1  0
 26 48  1  0
 28 49  1  0
 28 50  1  0
 29 51  1  0
 29 52  1  0
 31 53  1  0
M  END
$$$$
