@<TRIPOS>MOLECULE
*****
 53 57 0 0 0
SMALL
GASTEIGER

@<TRIPOS>ATOM
      1 N           4.8683    6.6088    0.4155 N.1     1  UNL1       -0.1908
      2 C           4.6695    5.4763    0.5139 C.1     1  UNL1        0.1007
      3 C           4.4066    4.0591    0.6585 C.ar    1  UNL1        0.0699
      4 C           4.7660    3.2121   -0.3817 C.ar    1  UNL1       -0.0396
      5 C           4.5114    1.8658   -0.2344 C.ar    1  UNL1       -0.0205
      6 C           3.9207    1.3584    0.8995 C.ar    1  UNL1        0.1214
      7 N           3.6340   -0.0135    1.0807 N.pl3   1  UNL1       -0.3122
      8 C           3.8107   -1.0068    0.0588 C.3     1  UNL1        0.0293
      9 C           2.6126   -1.9537   -0.0161 C.3     1  UNL1        0.0294
     10 N           1.5499   -1.3223    0.7308 N.pl3   1  UNL1       -0.3103
     11 C           0.3932   -0.8864    0.0644 C.ar    1  UNL1        0.1516
     12 N           0.0695    0.4240   -0.0258 N.ar    1  UNL1       -0.1333
     13 N          -1.0014    0.8448   -0.6624 N.ar    1  UNL1       -0.1515
     14 C          -1.8669    0.0293   -1.2758 C.ar    1  UNL1        0.0757
     15 C          -3.0536    0.5551   -1.9360 C.3     1  UNL1        0.0172
     16 C          -4.2961    0.5770   -1.1574 C.ar    1  UNL1       -0.0415
     17 C          -5.2890    1.5252   -1.4600 C.ar    1  UNL1       -0.0582
     18 C          -6.4582    1.5941   -0.7336 C.ar    1  UNL1       -0.0615
     19 C          -6.6851    0.7362    0.3083 C.ar    1  UNL1       -0.0617
     20 C          -5.7302   -0.1995    0.6243 C.ar    1  UNL1       -0.0615
     21 C          -4.5513   -0.2651   -0.1118 C.ar    1  UNL1       -0.0582
     22 C          -1.6060   -1.3369   -1.2302 C.ar    1  UNL1        0.0088
     23 C          -2.4346   -2.2419   -1.8449 C.ar    1  UNL1       -0.0521
     24 C          -2.1695   -3.5935   -1.8096 C.ar    1  UNL1       -0.0611
     25 C          -1.0301   -4.0356   -1.1300 C.ar    1  UNL1       -0.0611
     26 C          -0.2055   -3.1244   -0.5181 C.ar    1  UNL1       -0.0506
     27 C          -0.4593   -1.7793   -0.5480 C.ar    1  UNL1        0.0256
     28 C           1.7874   -1.1777    2.1752 C.3     1  UNL1        0.0294
     29 C           3.1319   -0.4530    2.3702 C.3     1  UNL1        0.0293
     30 N           3.5926    2.2254    1.8778 N.ar    1  UNL1       -0.2390
     31 C           3.8168    3.5456    1.7891 C.ar    1  UNL1        0.0470
     32 H           5.2284    3.6133   -1.2645 H       1  UNL1        0.0632
     33 H           4.7968    1.2310   -1.0417 H       1  UNL1        0.0652
     34 H           3.9218   -0.5652   -0.9391 H       1  UNL1        0.0480
     35 H           4.7498   -1.5765    0.2809 H       1  UNL1        0.0480
     36 H           2.9197   -2.8594    0.5623 H       1  UNL1        0.0480
     37 H           2.3770   -2.1735   -1.0549 H       1  UNL1        0.0480
     38 H          -3.2601    0.0628   -2.9181 H       1  UNL1        0.0377
     39 H          -2.8546    1.6435   -2.2051 H       1  UNL1        0.0377
     40 H          -5.0779    2.1814   -2.2836 H       1  UNL1        0.0620
     41 H          -7.2130    2.3256   -0.9756 H       1  UNL1        0.0618
     42 H          -7.6164    0.7842    0.8944 H       1  UNL1        0.0618
     43 H          -5.9482   -0.8613    1.4579 H       1  UNL1        0.0618
     44 H          -3.8488   -1.0187    0.2102 H       1  UNL1        0.0620
     45 H          -3.3106   -1.8941   -2.3665 H       1  UNL1        0.0624
     46 H          -2.8087   -4.2982   -2.2850 H       1  UNL1        0.0618
     47 H          -0.8303   -5.1104   -1.1085 H       1  UNL1        0.0618
     48 H           0.6752   -3.4550    0.0138 H       1  UNL1        0.0625
     49 H           1.0254   -0.5652    2.6549 H       1  UNL1        0.0480
     50 H           1.9236   -2.1675    2.6531 H       1  UNL1        0.0480
     51 H           3.0170    0.3813    3.0587 H       1  UNL1        0.0480
     52 H           3.8916   -1.1496    2.7687 H       1  UNL1        0.0480
     53 H           3.5381    4.2238    2.6011 H       1  UNL1        0.0843
@<TRIPOS>BOND
     1     1     2    3
     2     2     3    1
     3     3     4   ar
     4     4     5   ar
     5     5     6   ar
     6     6     7    1
     7     7     8    1
     8     8     9    1
     9     9    10    1
    10    10    11    1
    11    11    12   ar
    12    12    13   ar
    13    13    14   ar
    14    14    15    1
    15    15    16    1
    16    16    17   ar
    17    17    18   ar
    18    18    19   ar
    19    19    20   ar
    20    20    21   ar
    21    14    22   ar
    22    22    23   ar
    23    23    24   ar
    24    24    25   ar
    25    25    26   ar
    26    26    27   ar
    27    10    28    1
    28    28    29    1
    29     6    30   ar
    30    30    31   ar
    31    31     3   ar
    32    29     7    1
    33    27    11   ar
    34    21    16   ar
    35    27    22   ar
    36     4    32    1
    37     5    33    1
    38     8    34    1
    39     8    35    1
    40     9    36    1
    41     9    37    1
    42    15    38    1
    43    15    39    1
    44    17    40    1
    45    18    41    1
    46    19    42    1
    47    20    43    1
    48    21    44    1
    49    23    45    1
    50    24    46    1
    51    25    47    1
    52    26    48    1
    53    28    49    1
    54    28    50    1
    55    29    51    1
    56    29    52    1
    57    31    53    1
