
     RDKit          3D

 95 98  0  0  0  0  0  0  0  0999 V2000
    1.8433   -3.0609    1.3842 C   0  0  0  0  0  0  0  0  0  0  0  0
    1.9281   -2.1397    0.2184 C   0  0  0  0  0  0  0  0  0  0  0  0
    2.9378   -1.2083    0.1833 C   0  0  0  0  0  0  0  0  0  0  0  0
    3.0577   -0.3335   -0.8721 C   0  0  0  0  0  0  0  0  0  0  0  0
    4.1150    0.6030   -0.9025 N   0  0  0  0  0  0  0  0  0  0  0  0
    5.1482    0.7028    0.1120 C   0  0  0  0  0  0  0  0  0  0  0  0
    6.1024    1.8429   -0.1973 C   0  0  0  0  0  0  0  0  0  0  0  0
    7.2314    1.7635    0.8403 C   0  0  0  0  0  0  0  0  0  0  0  0
    8.0146    0.6137    0.4693 N   0  0  0  0  0  0  0  0  0  0  0  0
    9.3589    0.4976    0.8398 C   0  0  0  0  0  0  0  0  0  0  0  0
   10.0232   -0.5058    0.5065 O   0  0  0  0  0  0  0  0  0  0  0  0
   10.0091    1.5675    1.6340 C   0  0  0  0  0  0  0  0  0  0  0  0
   11.4308    1.1641    1.9628 C   0  0  0  0  0  0  0  0  0  0  0  0
   12.1601    0.9652    0.7380 N   0  0  0  0  0  0  0  0  0  0  0  0
   12.3745    2.1898    0.0199 C   0  0  0  0  0  0  0  0  0  0  0  0
   13.1427    1.9347   -1.2308 C   0  0  0  0  0  0  0  0  0  0  0  0
   13.3998    2.9196   -1.9650 O   0  0  0  0  0  0  0  0  0  0  0  0
   13.5384    0.6418   -1.5317 O   0  0  0  0  0  0  0  0  0  0  0  0
    7.3664   -0.4212   -0.2938 C   0  0  0  0  0  0  0  0  0  0  0  0
    5.9241   -0.6043    0.1750 C   0  0  0  0  0  0  0  0  0  0  0  0
    2.1455   -0.4299   -1.8644 N   0  0  0  0  0  0  0  0  0  0  0  0
    1.1457   -1.3414   -1.8453 C   0  0  0  0  0  0  0  0  0  0  0  0
    0.2332   -1.3799   -2.9288 N   0  0  0  0  0  0  0  0  0  0  0  0
   -1.0185   -0.6707   -2.8387 C   0  0  0  0  0  0  0  0  0  0  0  0
   -1.7797   -1.2363   -1.6993 C   0  0  0  0  0  0  0  0  0  0  0  0
   -2.6553   -2.3217   -1.7822 C   0  0  0  0  0  0  0  0  0  0  0  0
   -3.1746   -2.5706   -0.5678 N   0  0  0  0  0  0  0  0  0  0  0  0
   -4.1099   -3.6068   -0.2026 C   0  0  0  0  0  0  0  0  0  0  0  0
   -5.5476   -3.1783   -0.3424 C   0  0  0  0  0  0  0  0  0  0  0  0
   -5.9285   -2.0072    0.4897 C   0  0  0  0  0  0  0  0  0  0  0  0
   -5.1853   -0.8081    0.1907 N   0  0  0  0  0  0  0  0  0  0  0  0
   -5.4942   -0.2730   -1.1158 C   0  0  0  0  0  0  0  0  0  0  0  0
   -6.8802    0.2720   -1.2510 C   0  0  0  0  0  0  0  0  0  0  0  0
   -7.1702    1.4036   -0.3125 C   0  0  0  0  0  0  0  0  0  0  0  0
   -8.5159    1.9088   -0.4519 N   0  0  0  0  0  0  0  0  0  0  0  0
   -9.5222    0.9819   -0.0142 C   0  0  0  0  0  0  0  0  0  0  0  0
  -10.8781    1.6087   -0.2380 C   0  0  0  0  0  0  0  0  0  0  0  0
  -11.2484    2.6525    0.7559 C   0  0  0  0  0  0  0  0  0  0  0  0
  -10.7296    2.3723    2.1429 C   0  0  0  0  0  0  0  0  0  0  0  0
  -10.5700    0.8633    2.2468 C   0  0  0  0  0  0  0  0  0  0  0  0
   -9.3332    0.5209    1.4045 C   0  0  0  0  0  0  0  0  0  0  0  0
   -2.6300   -1.6573    0.2438 N   0  0  0  0  0  0  0  0  0  0  0  0
   -1.8082   -0.8672   -0.4094 N   0  0  0  0  0  0  0  0  0  0  0  0
    1.0621   -2.1718   -0.8067 N   0  0  0  0  0  0  0  0  0  0  0  0
    2.7257   -3.7464    1.4283 H   0  0  0  0  0  0  0  0  0  0  0  0
    0.8832   -3.6208    1.3879 H   0  0  0  0  0  0  0  0  0  0  0  0
    1.9206   -2.4278    2.3078 H   0  0  0  0  0  0  0  0  0  0  0  0
    3.6263   -1.1798    1.0008 H   0  0  0  0  0  0  0  0  0  0  0  0
    4.1632    1.2688   -1.7027 H   0  0  0  0  0  0  0  0  0  0  0  0
    4.6902    0.8765    1.1003 H   0  0  0  0  0  0  0  0  0  0  0  0
    5.5854    2.8080   -0.1133 H   0  0  0  0  0  0  0  0  0  0  0  0
    6.5730    1.6856   -1.1781 H   0  0  0  0  0  0  0  0  0  0  0  0
    7.7861    2.7008    0.8822 H   0  0  0  0  0  0  0  0  0  0  0  0
    6.7310    1.5253    1.8092 H   0  0  0  0  0  0  0  0  0  0  0  0
    9.4252    1.6366    2.5826 H   0  0  0  0  0  0  0  0  0  0  0  0
    9.9381    2.5561    1.1614 H   0  0  0  0  0  0  0  0  0  0  0  0
   11.9105    1.8564    2.6659 H   0  0  0  0  0  0  0  0  0  0  0  0
   11.3526    0.1601    2.4662 H   0  0  0  0  0  0  0  0  0  0  0  0
   13.0447    0.4897    0.9500 H   0  0  0  0  0  0  0  0  0  0  0  0
   11.4292    2.6797   -0.2168 H   0  0  0  0  0  0  0  0  0  0  0  0
   13.0484    2.8445    0.6443 H   0  0  0  0  0  0  0  0  0  0  0  0
   13.9734    0.4393   -2.4118 H   0  0  0  0  0  0  0  0  0  0  0  0
    7.8801   -1.3763   -0.0900 H   0  0  0  0  0  0  0  0  0  0  0  0
    7.4019   -0.2277   -1.3815 H   0  0  0  0  0  0  0  0  0  0  0  0
    5.4866   -1.3545   -0.4911 H   0  0  0  0  0  0  0  0  0  0  0  0
    5.9898   -1.0117    1.1941 H   0  0  0  0  0  0  0  0  0  0  0  0
    0.4527   -1.9144   -3.7929 H   0  0  0  0  0  0  0  0  0  0  0  0
   -1.6377   -0.7960   -3.7479 H   0  0  0  0  0  0  0  0  0  0  0  0
   -0.8784    0.4207   -2.6679 H   0  0  0  0  0  0  0  0  0  0  0  0
   -2.8664   -2.8580   -2.6781 H   0  0  0  0  0  0  0  0  0  0  0  0
   -3.9608   -3.8379    0.8938 H   0  0  0  0  0  0  0  0  0  0  0  0
   -3.8888   -4.5244   -0.7809 H   0  0  0  0  0  0  0  0  0  0  0  0
   -5.7366   -3.0474   -1.4268 H   0  0  0  0  0  0  0  0  0  0  0  0
   -6.1597   -4.0571    0.0092 H   0  0  0  0  0  0  0  0  0  0  0  0
   -7.0235   -1.8390    0.4939 H   0  0  0  0  0  0  0  0  0  0  0  0
   -5.6750   -2.2768    1.5537 H   0  0  0  0  0  0  0  0  0  0  0  0
   -5.3441   -0.1169    0.9274 H   0  0  0  0  0  0  0  0  0  0  0  0
   -4.7976    0.6045   -1.2660 H   0  0  0  0  0  0  0  0  0  0  0  0
   -5.2249   -0.9806   -1.9263 H   0  0  0  0  0  0  0  0  0  0  0  0
   -6.9896    0.5956   -2.3153 H   0  0  0  0  0  0  0  0  0  0  0  0
   -7.5773   -0.5826   -1.1275 H   0  0  0  0  0  0  0  0  0  0  0  0
   -6.4953    2.2543   -0.6303 H   0  0  0  0  0  0  0  0  0  0  0  0
   -6.8738    1.1915    0.7313 H   0  0  0  0  0  0  0  0  0  0  0  0
   -8.5658    2.8474   -0.0537 H   0  0  0  0  0  0  0  0  0  0  0  0
   -9.4727    0.0885   -0.6713 H   0  0  0  0  0  0  0  0  0  0  0  0
  -10.8503    2.0741   -1.2629 H   0  0  0  0  0  0  0  0  0  0  0  0
  -11.6125    0.7807   -0.3100 H   0  0  0  0  0  0  0  0  0  0  0  0
  -11.0317    3.6941    0.4257 H   0  0  0  0  0  0  0  0  0  0  0  0
  -12.3749    2.6249    0.8494 H   0  0  0  0  0  0  0  0  0  0  0  0
   -9.6905    2.7998    2.2399 H   0  0  0  0  0  0  0  0  0  0  0  0
  -11.3882    2.7690    2.9425 H   0  0  0  0  0  0  0  0  0  0  0  0
  -11.4515    0.2991    1.9496 H   0  0  0  0  0  0  0  0  0  0  0  0
  -10.2719    0.6787    3.3203 H   0  0  0  0  0  0  0  0  0  0  0  0
   -8.4928    0.9882    1.9340 H   0  0  0  0  0  0  0  0  0  0  0  0
   -9.1995   -0.5757    1.4977 H   0  0  0  0  0  0  0  0  0  0  0  0
  1  2  1  0
  2  3  2  0
  3  4  1  0
  4  5  1  0
  5  6  1  0
  6  7  1  0
  7  8  1  0
  8  9  1  0
  9 10  1  0
 10 11  2  0
 10 12  1  0
 12 13  1  0
 13 14  1  0
 14 15  1  0
 15 16  1  0
 16 17  2  0
 16 18  1  0
  9 19  1  0
 19 20  1  0
  4 21  2  0
 21 22  1  0
 22 23  1  0
 23 24  1  0
 24 25  1  0
 25 26  2  0
 26 27  1  0
 27 28  1  0
 28 29  1  0
 29 30  1  0
 30 31  1  0
 31 32  1  0
 32 33  1  0
 33 34  1  0
 34 35  1  0
 35 36  1  0
 36 37  1  0
 37 38  1  0
 38 39  1  0
 39 40  1  0
 40 41  1  0
 27 42  1  0
 42 43  2  0
 22 44  2  0
 44  2  1  0
 20  6  1  0
 43 25  1  0
 41 36  1  0
  1 45  1  0
  1 46  1  0
  1 47  1  0
  3 48  1  0
  5 49  1  0
  6 50  1  0
  7 51  1  0
  7 52  1  0
  8 53  1  0
  8 54  1  0
 12 55  1  0
 12 56  1  0
 13 57  1  0
 13 58  1  0
 14 59  1  0
 15 60  1  0
 15 61  1  0
 18 62  1  0
 19 63  1  0
 19 64  1  0
 20 65  1  0
 20 66  1  0
 23 67  1  0
 24 68  1  0
 24 69  1  0
 26 70  1  0
 28 71  1  0
 28 72  1  0
 29 73  1  0
 29 74  1  0
 30 75  1  0
 30 76  1  0
 31 77  1  0
 32 78  1  0
 32 79  1  0
 33 80  1  0
 33 81  1  0
 34 82  1  0
 34 83  1  0
 35 84  1  0
 36 85  1  0
 37 86  1  0
 37 87  1  0
 38 88  1  0
 38 89  1  0
 39 90  1  0
 39 91  1  0
 40 92  1  0
 40 93  1  0
 41 94  1  0
 41 95  1  0
M  END
$$$$
