@<TRIPOS>MOLECULE
*****
 95 98 0 0 0
SMALL
GASTEIGER

@<TRIPOS>ATOM
      1 C           1.8433   -3.0609    1.3842 C.3     1  UNL1       -0.0221
      2 C           1.9281   -2.1397    0.2184 C.ar    1  UNL1        0.0451
      3 C           2.9378   -1.2083    0.1833 C.ar    1  UNL1       -0.0007
      4 C           3.0577   -0.3335   -0.8721 C.ar    1  UNL1        0.1242
      5 N           4.1150    0.6030   -0.9025 N.pl3   1  UNL1       -0.3260
      6 C           5.1482    0.7028    0.1120 C.3     1  UNL1        0.0248
      7 C           6.1024    1.8429   -0.1973 C.3     1  UNL1       -0.0186
      8 C           7.2314    1.7635    0.8403 C.3     1  UNL1        0.0163
      9 N           8.0146    0.6137    0.4693 N.am    1  UNL1       -0.3013
     10 C           9.3589    0.4976    0.8398 C.2     1  UNL1        0.2168
     11 O          10.0232   -0.5058    0.5065 O.2     1  UNL1       -0.2756
     12 C          10.0091    1.5675    1.6340 C.3     1  UNL1        0.0367
     13 C          11.4308    1.1641    1.9628 C.3     1  UNL1        0.0046
     14 N          12.1601    0.9652    0.7380 N.3     1  UNL1       -0.3062
     15 C          12.3745    2.1898    0.0199 C.3     1  UNL1        0.0943
     16 C          13.1427    1.9347   -1.2308 C.2     1  UNL1        0.3187
     17 O          13.3998    2.9196   -1.9650 O.2     1  UNL1       -0.2496
     18 O          13.5384    0.6418   -1.5317 O.3     1  UNL1       -0.4797
     19 C           7.3664   -0.4212   -0.2938 C.3     1  UNL1        0.0163
     20 C           5.9241   -0.6043    0.1750 C.3     1  UNL1       -0.0186
     21 N           2.1455   -0.4299   -1.8644 N.ar    1  UNL1       -0.1997
     22 C           1.1457   -1.3414   -1.8453 C.ar    1  UNL1        0.2174
     23 N           0.2332   -1.3799   -2.9288 N.pl3   1  UNL1       -0.3077
     24 C          -1.0185   -0.6707   -2.8387 C.3     1  UNL1        0.0574
     25 C          -1.7797   -1.2363   -1.6993 C.ar    1  UNL1        0.0998
     26 C          -2.6553   -2.3217   -1.7822 C.ar    1  UNL1        0.0502
     27 N          -3.1746   -2.5706   -0.5678 N.ar    1  UNL1       -0.2514
     28 C          -4.1099   -3.6068   -0.2026 C.3     1  UNL1        0.0443
     29 C          -5.5476   -3.1783   -0.3424 C.3     1  UNL1       -0.0207
     30 C          -5.9285   -2.0072    0.4897 C.3     1  UNL1       -0.0024
     31 N          -5.1853   -0.8081    0.1907 N.3     1  UNL1       -0.3159
     32 C          -5.4942   -0.2730   -1.1158 C.3     1  UNL1       -0.0030
     33 C          -6.8802    0.2720   -1.2510 C.3     1  UNL1       -0.0278
     34 C          -7.1702    1.4036   -0.3125 C.3     1  UNL1       -0.0027
     35 N          -8.5159    1.9088   -0.4519 N.3     1  UNL1       -0.3132
     36 C          -9.5222    0.9819   -0.0142 C.3     1  UNL1        0.0076
     37 C         -10.8781    1.6087   -0.2380 C.3     1  UNL1       -0.0375
     38 C         -11.2484    2.6525    0.7559 C.3     1  UNL1       -0.0516
     39 C         -10.7296    2.3723    2.1429 C.3     1  UNL1       -0.0530
     40 C         -10.5700    0.8633    2.2468 C.3     1  UNL1       -0.0516
     41 C          -9.3332    0.5209    1.4045 C.3     1  UNL1       -0.0375
     42 N          -2.6300   -1.6573    0.2438 N.ar    1  UNL1       -0.0654
     43 N          -1.8082   -0.8672   -0.4094 N.ar    1  UNL1       -0.1329
     44 N           1.0621   -2.1718   -0.8067 N.ar    1  UNL1       -0.2197
     45 H           2.7257   -3.7464    1.4283 H       1  UNL1        0.0293
     46 H           0.8832   -3.6208    1.3879 H       1  UNL1        0.0293
     47 H           1.9206   -2.4278    2.3078 H       1  UNL1        0.0293
     48 H           3.6263   -1.1798    1.0008 H       1  UNL1        0.0670
     49 H           4.1632    1.2688   -1.7027 H       1  UNL1        0.1477
     50 H           4.6902    0.8765    1.1003 H       1  UNL1        0.0499
     51 H           5.5854    2.8080   -0.1133 H       1  UNL1        0.0298
     52 H           6.5730    1.6856   -1.1781 H       1  UNL1        0.0298
     53 H           7.7861    2.7008    0.8822 H       1  UNL1        0.0465
     54 H           6.7310    1.5253    1.8092 H       1  UNL1        0.0465
     55 H           9.4252    1.6366    2.5826 H       1  UNL1        0.0371
     56 H           9.9381    2.5561    1.1614 H       1  UNL1        0.0371
     57 H          11.9105    1.8564    2.6659 H       1  UNL1        0.0429
     58 H          11.3526    0.1601    2.4662 H       1  UNL1        0.0429
     59 H          13.0447    0.4897    0.9500 H       1  UNL1        0.1225
     60 H          11.4292    2.6797   -0.2168 H       1  UNL1        0.0539
     61 H          13.0484    2.8445    0.6443 H       1  UNL1        0.0539
     62 H          13.9734    0.4393   -2.4118 H       1  UNL1        0.2951
     63 H           7.8801   -1.3763   -0.0900 H       1  UNL1        0.0465
     64 H           7.4019   -0.2277   -1.3815 H       1  UNL1        0.0465
     65 H           5.4866   -1.3545   -0.4911 H       1  UNL1        0.0298
     66 H           5.9898   -1.0117    1.1941 H       1  UNL1        0.0298
     67 H           0.4527   -1.9144   -3.7929 H       1  UNL1        0.1493
     68 H          -1.6377   -0.7960   -3.7479 H       1  UNL1        0.0528
     69 H          -0.8784    0.4207   -2.6679 H       1  UNL1        0.0528
     70 H          -2.8664   -2.8580   -2.6781 H       1  UNL1        0.0846
     71 H          -3.9608   -3.8379    0.8938 H       1  UNL1        0.0510
     72 H          -3.8888   -4.5244   -0.7809 H       1  UNL1        0.0510
     73 H          -5.7366   -3.0474   -1.4268 H       1  UNL1        0.0295
     74 H          -6.1597   -4.0571    0.0092 H       1  UNL1        0.0295
     75 H          -7.0235   -1.8390    0.4939 H       1  UNL1        0.0425
     76 H          -5.6750   -2.2768    1.5537 H       1  UNL1        0.0425
     77 H          -5.3441   -0.1169    0.9274 H       1  UNL1        0.1219
     78 H          -4.7976    0.6045   -1.2660 H       1  UNL1        0.0424
     79 H          -5.2249   -0.9806   -1.9263 H       1  UNL1        0.0424
     80 H          -6.9896    0.5956   -2.3153 H       1  UNL1        0.0290
     81 H          -7.5773   -0.5826   -1.1275 H       1  UNL1        0.0290
     82 H          -6.4953    2.2543   -0.6303 H       1  UNL1        0.0424
     83 H          -6.8738    1.1915    0.7313 H       1  UNL1        0.0424
     84 H          -8.5658    2.8474   -0.0537 H       1  UNL1        0.1222
     85 H          -9.4727    0.0885   -0.6713 H       1  UNL1        0.0460
     86 H         -10.8503    2.0741   -1.2629 H       1  UNL1        0.0280
     87 H         -11.6125    0.7807   -0.3100 H       1  UNL1        0.0280
     88 H         -11.0317    3.6941    0.4257 H       1  UNL1        0.0266
     89 H         -12.3749    2.6249    0.8494 H       1  UNL1        0.0266
     90 H          -9.6905    2.7998    2.2399 H       1  UNL1        0.0265
     91 H         -11.3882    2.7690    2.9425 H       1  UNL1        0.0265
     92 H         -11.4515    0.2991    1.9496 H       1  UNL1        0.0266
     93 H         -10.2719    0.6787    3.3203 H       1  UNL1        0.0266
     94 H          -8.4928    0.9882    1.9340 H       1  UNL1        0.0280
     95 H          -9.1995   -0.5757    1.4977 H       1  UNL1        0.0280
@<TRIPOS>BOND
     1     1     2    1
     2     2     3   ar
     3     3     4   ar
     4     4     5    1
     5     5     6    1
     6     6     7    1
     7     7     8    1
     8     8     9    1
     9     9    10   am
    10    10    11    2
    11    10    12    1
    12    12    13    1
    13    13    14    1
    14    14    15    1
    15    15    16    1
    16    16    17    2
    17    16    18    1
    18     9    19    1
    19    19    20    1
    20     4    21   ar
    21    21    22   ar
    22    22    23    1
    23    23    24    1
    24    24    25    1
    25    25    26   ar
    26    26    27   ar
    27    27    28    1
    28    28    29    1
    29    29    30    1
    30    30    31    1
    31    31    32    1
    32    32    33    1
    33    33    34    1
    34    34    35    1
    35    35    36    1
    36    36    37    1
    37    37    38    1
    38    38    39    1
    39    39    40    1
    40    40    41    1
    41    27    42   ar
    42    42    43   ar
    43    22    44   ar
    44    44     2   ar
    45    20     6    1
    46    43    25   ar
    47    41    36    1
    48     1    45    1
    49     1    46    1
    50     1    47    1
    51     3    48    1
    52     5    49    1
    53     6    50    1
    54     7    51    1
    55     7    52    1
    56     8    53    1
    57     8    54    1
    58    12    55    1
    59    12    56    1
    60    13    57    1
    61    13    58    1
    62    14    59    1
    63    15    60    1
    64    15    61    1
    65    18    62    1
    66    19    63    1
    67    19    64    1
    68    20    65    1
    69    20    66    1
    70    23    67    1
    71    24    68    1
    72    24    69    1
    73    26    70    1
    74    28    71    1
    75    28    72    1
    76    29    73    1
    77    29    74    1
    78    30    75    1
    79    30    76    1
    80    31    77    1
    81    32    78    1
    82    32    79    1
    83    33    80    1
    84    33    81    1
    85    34    82    1
    86    34    83    1
    87    35    84    1
    88    36    85    1
    89    37    86    1
    90    37    87    1
    91    38    88    1
    92    38    89    1
    93    39    90    1
    94    39    91    1
    95    40    92    1
    96    40    93    1
    97    41    94    1
    98    41    95    1
