@<TRIPOS>MOLECULE
*****
 48 52 0 0 0
SMALL
GASTEIGER

@<TRIPOS>ATOM
      1 O           2.7319   -0.2634   -0.9329 O.2     1  UNL1       -0.2685
      2 C           3.1163   -0.6425    0.2037 C.2     1  UNL1        0.2642
      3 N           4.5006   -0.8073    0.3979 N.am    1  UNL1       -0.3072
      4 C           5.5083   -0.5715   -0.6190 C.3     1  UNL1        0.0236
      5 C           6.8549   -0.1050   -0.3259 C.3     1  UNL1       -0.0328
      6 C           6.6377   -1.5284   -0.7771 C.3     1  UNL1       -0.0328
      7 C           2.1177   -0.8866    1.2416 C.ar    1  UNL1        0.1472
      8 C           2.3408   -1.2983    2.5388 C.ar    1  UNL1        0.0605
      9 N           1.1725   -1.4164    3.1952 N.ar    1  UNL1       -0.2339
     10 C           0.2017   -1.0786    2.3127 C.ar    1  UNL1        0.1549
     11 C          -1.1704   -1.0200    2.4360 C.ar    1  UNL1       -0.0153
     12 C          -1.8856   -0.6279    1.3154 C.ar    1  UNL1       -0.0290
     13 C          -1.2735   -0.3071    0.1241 C.ar    1  UNL1        0.1103
     14 C          -2.0876    0.0955   -1.0156 C.ar    1  UNL1        0.0968
     15 C          -2.9110    1.1880   -1.0391 C.ar    1  UNL1        0.0982
     16 C          -3.1530    2.1342    0.0076 C.ar    1  UNL1        0.0027
     17 C          -2.1478    2.9123    0.5207 C.ar    1  UNL1       -0.0498
     18 C          -2.4000    3.8311    1.5432 C.ar    1  UNL1       -0.0258
     19 C          -3.6751    3.9504    2.0354 C.ar    1  UNL1        0.1234
     20 F          -3.9846    4.8307    3.0346 F       1  UNL1       -0.2055
     21 C          -4.6960    3.1714    1.5259 C.ar    1  UNL1       -0.0258
     22 C          -4.4183    2.2747    0.5190 C.ar    1  UNL1       -0.0498
     23 N          -3.4967    1.2496   -2.2465 N.ar    1  UNL1       -0.2351
     24 C          -3.0554    0.2254   -2.9634 C.ar    1  UNL1        0.0973
     25 N          -2.1954   -0.4846   -2.2214 N.ar    1  UNL1       -0.3229
     26 C          -1.4977   -1.6817   -2.6546 C.3     1  UNL1        0.0852
     27 C          -2.3066   -2.9267   -2.3372 C.3     1  UNL1        0.2569
     28 F          -2.4923   -2.9680   -0.9847 F       1  UNL1       -0.2073
     29 F          -3.4839   -2.9775   -3.0371 F       1  UNL1       -0.2073
     30 N           0.0702   -0.3847    0.0698 N.ar    1  UNL1       -0.1628
     31 N           0.7852   -0.7574    1.1262 N.ar    1  UNL1       -0.2076
     32 H           4.8180   -1.1213    1.3419 H       1  UNL1        0.1493
     33 H           5.0461   -0.2336   -1.5865 H       1  UNL1        0.0498
     34 H           7.2791   -0.0033    0.6799 H       1  UNL1        0.0284
     35 H           7.3486    0.6010   -1.0571 H       1  UNL1        0.0284
     36 H           6.6629   -2.3241    0.0136 H       1  UNL1        0.0284
     37 H           6.9463   -1.8330   -1.7982 H       1  UNL1        0.0284
     38 H           3.3514   -1.4898    2.9328 H       1  UNL1        0.0854
     39 H          -1.6545   -1.2713    3.3712 H       1  UNL1        0.0655
     40 H          -2.9444   -0.5714    1.3743 H       1  UNL1        0.0641
     41 H          -1.1277    2.8635    0.1752 H       1  UNL1        0.0625
     42 H          -1.6168    4.4546    1.9610 H       1  UNL1        0.0646
     43 H          -5.6909    3.2918    1.9380 H       1  UNL1        0.0646
     44 H          -5.2394    1.6767    0.1386 H       1  UNL1        0.0625
     45 H          -3.3821    0.0474   -3.9897 H       1  UNL1        0.1029
     46 H          -1.2857   -1.6226   -3.7501 H       1  UNL1        0.0548
     47 H          -0.5301   -1.7948   -2.1072 H       1  UNL1        0.0548
     48 H          -1.6877   -3.7993   -2.6311 H       1  UNL1        0.1037
@<TRIPOS>BOND
     1     1     2    2
     2     2     3   am
     3     3     4    1
     4     4     5    1
     5     5     6    1
     6     2     7    1
     7     7     8   ar
     8     8     9   ar
     9     9    10   ar
    10    10    11   ar
    11    11    12   ar
    12    12    13   ar
    13    13    14    1
    14    14    15   ar
    15    15    16    1
    16    16    17   ar
    17    17    18   ar
    18    18    19   ar
    19    19    20    1
    20    19    21   ar
    21    21    22   ar
    22    15    23   ar
    23    23    24   ar
    24    24    25   ar
    25    25    26    1
    26    26    27    1
    27    27    28    1
    28    27    29    1
    29    13    30   ar
    30    30    31   ar
    31     6     4    1
    32    31     7   ar
    33    31    10   ar
    34    25    14   ar
    35    22    16   ar
    36     3    32    1
    37     4    33    1
    38     5    34    1
    39     5    35    1
    40     6    36    1
    41     6    37    1
    42     8    38    1
    43    11    39    1
    44    12    40    1
    45    17    41    1
    46    18    42    1
    47    21    43    1
    48    22    44    1
    49    24    45    1
    50    26    46    1
    51    26    47    1
    52    27    48    1
