
     RDKit          3D

 37 38  0  0  0  0  0  0  0  0999 V2000
   -1.7311    3.8095   -0.6173 N   0  0  0  0  0  0  0  0  0  0  0  0
   -0.9801    2.6273   -0.2173 C   0  0  0  0  0  0  0  0  0  0  0  0
   -1.9381    1.4546   -0.1602 C   0  0  0  0  0  0  0  0  0  0  0  0
   -1.1284    0.2208    0.2627 C   0  0  2  0  0  0  0  0  0  0  0  0
   -0.1418    0.0357   -0.7059 O   0  0  0  0  0  0  0  0  0  0  0  0
    1.2161    0.0491   -0.5416 C   0  0  0  0  0  0  0  0  0  0  0  0
    1.9986   -0.1624   -1.6717 C   0  0  0  0  0  0  0  0  0  0  0  0
    3.3784   -0.1674   -1.6083 C   0  0  0  0  0  0  0  0  0  0  0  0
    4.0329    0.0420   -0.3957 C   0  0  0  0  0  0  0  0  0  0  0  0
    3.2759    0.2539    0.7381 C   0  0  0  0  0  0  0  0  0  0  0  0
    1.9010    0.2522    0.6383 C   0  0  0  0  0  0  0  0  0  0  0  0
    5.5102    0.0546   -0.2277 C   0  0  0  0  0  0  0  0  0  0  0  0
    5.8177   -0.9690    0.6658 F   0  0  0  0  0  0  0  0  0  0  0  0
    6.0692   -0.2350   -1.4503 F   0  0  0  0  0  0  0  0  0  0  0  0
    5.9481    1.2688    0.2325 F   0  0  0  0  0  0  0  0  0  0  0  0
   -2.0162   -0.9698    0.3279 C   0  0  0  0  0  0  0  0  0  0  0  0
   -2.4901   -1.5550   -0.8304 C   0  0  0  0  0  0  0  0  0  0  0  0
   -3.3045   -2.6480   -0.7536 C   0  0  0  0  0  0  0  0  0  0  0  0
   -3.6615   -3.1771    0.4668 C   0  0  0  0  0  0  0  0  0  0  0  0
   -3.2135   -2.6286    1.6723 C   0  0  0  0  0  0  0  0  0  0  0  0
   -2.3954   -1.5282    1.5344 C   0  0  0  0  0  0  0  0  0  0  0  0
   -2.6600    3.8079   -0.1250 H   0  0  0  0  0  0  0  0  0  0  0  0
   -1.9212    3.7056   -1.6434 H   0  0  0  0  0  0  0  0  0  0  0  0
   -0.5176    2.8148    0.7595 H   0  0  0  0  0  0  0  0  0  0  0  0
   -0.2043    2.4574   -0.9882 H   0  0  0  0  0  0  0  0  0  0  0  0
   -2.7709    1.6239    0.5181 H   0  0  0  0  0  0  0  0  0  0  0  0
   -2.3572    1.3175   -1.1735 H   0  0  0  0  0  0  0  0  0  0  0  0
   -0.7015    0.3941    1.2590 H   0  0  0  0  0  0  0  0  0  0  0  0
    1.5952   -0.3377   -2.6777 H   0  0  0  0  0  0  0  0  0  0  0  0
    3.9933   -0.3308   -2.4807 H   0  0  0  0  0  0  0  0  0  0  0  0
    3.7239    0.4255    1.7266 H   0  0  0  0  0  0  0  0  0  0  0  0
    1.3222    0.4161    1.5154 H   0  0  0  0  0  0  0  0  0  0  0  0
   -2.1821   -1.1032   -1.7726 H   0  0  0  0  0  0  0  0  0  0  0  0
   -3.6756   -3.1057   -1.6726 H   0  0  0  0  0  0  0  0  0  0  0  0
   -4.3123   -4.0520    0.5616 H   0  0  0  0  0  0  0  0  0  0  0  0
   -3.4698   -3.0125    2.6393 H   0  0  0  0  0  0  0  0  0  0  0  0
   -2.0096   -1.0490    2.4113 H   0  0  0  0  0  0  0  0  0  0  0  0
  1  2  1  0
  2  3  1  0
  3  4  1  0
  4  5  1  0
  5  6  1  0
  6  7  2  0
  7  8  1  0
  8  9  2  0
  9 10  1  0
 10 11  2  0
  9 12  1  0
 12 13  1  0
 12 14  1  0
 12 15  1  0
  4 16  1  0
 16 17  2  0
 17 18  1  0
 18 19  2  0
 19 20  1  0
 20 21  2  0
 11  6  1  0
 21 16  1  0
  1 22  1  0
  1 23  1  0
  2 24  1  0
  2 25  1  0
  3 26  1  0
  3 27  1  0
  4 28  1  1
  7 29  1  0
  8 30  1  0
 10 31  1  0
 11 32  1  0
 17 33  1  0
 18 34  1  0
 19 35  1  0
 20 36  1  0
 21 37  1  0
M  END
$$$$
