@<TRIPOS>MOLECULE
*****
 37 38 0 0 0
SMALL
GASTEIGER

@<TRIPOS>ATOM
      1 N          -1.7311    3.8095   -0.6173 N.3     1  UNL1       -0.3298
      2 C          -0.9801    2.6273   -0.2173 C.3     1  UNL1       -0.0032
      3 C          -1.9381    1.4546   -0.1602 C.3     1  UNL1        0.0008
      4 C          -1.1284    0.2208    0.2627 C.3     1  UNL1        0.1263
      5 O          -0.1418    0.0357   -0.7059 O.3     1  UNL1       -0.4842
      6 C           1.2161    0.0491   -0.5416 C.ar    1  UNL1        0.1214
      7 C           1.9986   -0.1624   -1.6717 C.ar    1  UNL1       -0.0194
      8 C           3.3784   -0.1674   -1.6083 C.ar    1  UNL1       -0.0467
      9 C           4.0329    0.0420   -0.3957 C.ar    1  UNL1        0.0550
     10 C           3.2759    0.2539    0.7381 C.ar    1  UNL1       -0.0467
     11 C           1.9010    0.2522    0.6383 C.ar    1  UNL1       -0.0194
     12 C           5.5102    0.0546   -0.2277 C.3     1  UNL1        0.4174
     13 F           5.8177   -0.9690    0.6658 F       1  UNL1       -0.1659
     14 F           6.0692   -0.2350   -1.4503 F       1  UNL1       -0.1659
     15 F           5.9481    1.2688    0.2325 F       1  UNL1       -0.1659
     16 C          -2.0162   -0.9698    0.3279 C.ar    1  UNL1       -0.0073
     17 C          -2.4901   -1.5550   -0.8304 C.ar    1  UNL1       -0.0551
     18 C          -3.3045   -2.6480   -0.7536 C.ar    1  UNL1       -0.0614
     19 C          -3.6615   -3.1771    0.4668 C.ar    1  UNL1       -0.0617
     20 C          -3.2135   -2.6286    1.6723 C.ar    1  UNL1       -0.0614
     21 C          -2.3954   -1.5282    1.5344 C.ar    1  UNL1       -0.0551
     22 H          -2.6600    3.8079   -0.1250 H       1  UNL1        0.1182
     23 H          -1.9212    3.7056   -1.6434 H       1  UNL1        0.1182
     24 H          -0.5176    2.8148    0.7595 H       1  UNL1        0.0423
     25 H          -0.2043    2.4574   -0.9882 H       1  UNL1        0.0423
     26 H          -2.7709    1.6239    0.5181 H       1  UNL1        0.0316
     27 H          -2.3572    1.3175   -1.1735 H       1  UNL1        0.0316
     28 H          -0.7015    0.3941    1.2590 H       1  UNL1        0.0785
     29 H           1.5952   -0.3377   -2.6777 H       1  UNL1        0.0654
     30 H           3.9933   -0.3308   -2.4807 H       1  UNL1        0.0624
     31 H           3.7239    0.4255    1.7266 H       1  UNL1        0.0624
     32 H           1.3222    0.4161    1.5154 H       1  UNL1        0.0654
     33 H          -2.1821   -1.1032   -1.7726 H       1  UNL1        0.0621
     34 H          -3.6756   -3.1057   -1.6726 H       1  UNL1        0.0618
     35 H          -4.3123   -4.0520    0.5616 H       1  UNL1        0.0618
     36 H          -3.4698   -3.0125    2.6393 H       1  UNL1        0.0618
     37 H          -2.0096   -1.0490    2.4113 H       1  UNL1        0.0621
@<TRIPOS>BOND
     1     1     2    1
     2     2     3    1
     3     3     4    1
     4     4     5    1
     5     5     6    1
     6     6     7   ar
     7     7     8   ar
     8     8     9   ar
     9     9    10   ar
    10    10    11   ar
    11     9    12    1
    12    12    13    1
    13    12    14    1
    14    12    15    1
    15     4    16    1
    16    16    17   ar
    17    17    18   ar
    18    18    19   ar
    19    19    20   ar
    20    20    21   ar
    21    11     6   ar
    22    21    16   ar
    23     1    22    1
    24     1    23    1
    25     2    24    1
    26     2    25    1
    27     3    26    1
    28     3    27    1
    29     4    28    1
    30     7    29    1
    31     8    30    1
    32    10    31    1
    33    11    32    1
    34    17    33    1
    35    18    34    1
    36    19    35    1
    37    20    36    1
    38    21    37    1
