@<TRIPOS>MOLECULE
*****
 71 78 0 0 0
SMALL
GASTEIGER

@<TRIPOS>ATOM
      1 C           7.0306    0.7039   -2.1787 C.3     1  UNL1       -0.0653
      2 C           6.2087   -0.3823   -1.5502 C.3     1  UNL1       -0.0559
      3 C           5.9462   -0.1201   -0.0732 C.3     1  UNL1       -0.0532
      4 C           5.2072    1.1793    0.0226 C.3     1  UNL1       -0.0500
      5 C           4.8420    1.6245    1.3667 C.3     1  UNL1       -0.0185
      6 C           3.9650    0.8395    2.2430 C.3     1  UNL1        0.0926
      7 O           2.6613    0.5812    1.8745 O.3     1  UNL1       -0.4625
      8 C           2.0696   -0.1096    0.8924 C.2     1  UNL1        0.3442
      9 O           2.7874   -0.7101    0.0589 O.2     1  UNL1       -0.2474
     10 C           0.5996   -0.2362    0.6899 C.3     1  UNL1        0.2144
     11 O          -0.0140    0.4804    1.7029 O.3     1  UNL1       -0.3737
     12 C           0.2247   -1.6815    0.7945 C.3     1  UNL1        0.0368
     13 C          -0.3133   -2.0008   -0.5559 C.3     1  UNL1        0.1420
     14 O          -0.0782   -0.9628   -1.4208 O.3     1  UNL1       -0.3273
     15 C           0.1534    0.2132   -0.6843 C.3     1  UNL1        0.1860
     16 C           1.2539    0.9894   -1.3421 C.3     1  UNL1       -0.0128
     17 N          -1.1126    0.8867   -0.5266 N.ar    1  UNL1       -0.3064
     18 C          -1.3528    2.2214   -0.5141 C.ar    1  UNL1        0.0527
     19 C          -0.5237    3.3120   -0.6063 C.ar    1  UNL1       -0.0375
     20 C          -1.0514    4.5776   -0.5522 C.ar    1  UNL1       -0.0598
     21 C          -2.4242    4.7792   -0.4034 C.ar    1  UNL1       -0.0611
     22 C          -3.2164    3.6631   -0.3140 C.ar    1  UNL1       -0.0520
     23 C          -2.7250    2.3811   -0.3642 C.ar    1  UNL1        0.0081
     24 C          -3.3214    1.1512   -0.2814 C.ar    1  UNL1        0.0151
     25 C          -4.6092    0.6784   -0.1173 C.ar    1  UNL1       -0.0078
     26 C          -4.9253   -0.6761   -0.0482 C.ar    1  UNL1        0.0518
     27 C          -3.9021   -1.5836   -0.1483 C.ar    1  UNL1        0.0221
     28 C          -3.8003   -2.9539   -0.1158 C.ar    1  UNL1        0.0085
     29 C          -4.7302   -3.9592    0.0249 C.ar    1  UNL1       -0.0520
     30 C          -4.3119   -5.2882    0.0200 C.ar    1  UNL1       -0.0611
     31 C          -2.9823   -5.5889   -0.1243 C.ar    1  UNL1       -0.0598
     32 C          -2.0402   -4.6104   -0.2655 C.ar    1  UNL1       -0.0375
     33 C          -2.4603   -3.2847   -0.2603 C.ar    1  UNL1        0.0524
     34 N          -1.7768   -2.1642   -0.3762 N.ar    1  UNL1       -0.3114
     35 C          -2.5949   -1.1103   -0.3158 C.ar    1  UNL1        0.0774
     36 C          -2.3024    0.2332   -0.3832 C.ar    1  UNL1        0.0772
     37 C          -6.3506   -0.8272    0.1236 C.2     1  UNL1        0.2453
     38 O          -7.0647   -1.8715    0.2322 O.2     1  UNL1       -0.2702
     39 N          -6.8983    0.5078    0.1570 N.am    1  UNL1       -0.3072
     40 C          -5.8569    1.4668    0.0128 C.3     1  UNL1        0.0385
     41 H           6.3835    1.4890   -2.6440 H       1  UNL1        0.0230
     42 H           7.6496    1.1674   -1.3649 H       1  UNL1        0.0230
     43 H           7.6762    0.2433   -2.9424 H       1  UNL1        0.0230
     44 H           6.7444   -1.3448   -1.6310 H       1  UNL1        0.0263
     45 H           5.2227   -0.5089   -2.0353 H       1  UNL1        0.0263
     46 H           6.9743   -0.0253    0.3785 H       1  UNL1        0.0265
     47 H           5.4565   -0.9999    0.3223 H       1  UNL1        0.0265
     48 H           4.4125    1.1999   -0.7433 H       1  UNL1        0.0266
     49 H           5.9591    1.9388   -0.4170 H       1  UNL1        0.0266
     50 H           5.8013    1.9283    1.9093 H       1  UNL1        0.0298
     51 H           4.3480    2.6494    1.2484 H       1  UNL1        0.0298
     52 H           4.4770   -0.0865    2.6578 H       1  UNL1        0.0697
     53 H           3.8659    1.4519    3.2071 H       1  UNL1        0.0697
     54 H           0.5455    0.5664    2.5078 H       1  UNL1        0.2111
     55 H           1.1080   -2.3186    1.0090 H       1  UNL1        0.0344
     56 H          -0.4956   -1.8781    1.6211 H       1  UNL1        0.0344
     57 H           0.0625   -2.9309   -0.9871 H       1  UNL1        0.0840
     58 H           1.9523    0.2459   -1.8975 H       1  UNL1        0.0277
     59 H           1.9725    1.4692   -0.6652 H       1  UNL1        0.0277
     60 H           0.9008    1.5765   -2.2063 H       1  UNL1        0.0277
     61 H           0.5307    3.2055   -0.7012 H       1  UNL1        0.0638
     62 H          -0.4448    5.4557   -0.6205 H       1  UNL1        0.0618
     63 H          -2.8602    5.7657   -0.3588 H       1  UNL1        0.0618
     64 H          -4.2840    3.8014   -0.1977 H       1  UNL1        0.0624
     65 H          -5.7650   -3.7711    0.1388 H       1  UNL1        0.0624
     66 H          -5.0479   -6.0693    0.1309 H       1  UNL1        0.0618
     67 H          -2.6543   -6.6383   -0.1279 H       1  UNL1        0.0618
     68 H          -0.9655   -4.8053   -0.3836 H       1  UNL1        0.0638
     69 H          -7.9280    0.6996    0.2732 H       1  UNL1        0.1493
     70 H          -6.0045    1.9741   -0.9738 H       1  UNL1        0.0512
     71 H          -5.8039    2.2006    0.8429 H       1  UNL1        0.0512
@<TRIPOS>BOND
     1     1     2    1
     2     2     3    1
     3     3     4    1
     4     4     5    1
     5     5     6    1
     6     6     7    1
     7     7     8    1
     8     8     9    2
     9     8    10    1
    10    10    11    1
    11    10    12    1
    12    12    13    1
    13    13    14    1
    14    14    15    1
    15    15    16    1
    16    15    17    1
    17    17    18   ar
    18    18    19   ar
    19    19    20   ar
    20    20    21   ar
    21    21    22   ar
    22    22    23   ar
    23    23    24   ar
    24    24    25   ar
    25    25    26   ar
    26    26    27   ar
    27    27    28   ar
    28    28    29   ar
    29    29    30   ar
    30    30    31   ar
    31    31    32   ar
    32    32    33   ar
    33    33    34   ar
    34    34    35   ar
    35    35    36   ar
    36    26    37    1
    37    37    38    2
    38    37    39   am
    39    39    40    1
    40    15    10    1
    41    36    17   ar
    42    34    13    1
    43    23    18   ar
    44    36    24   ar
    45    40    25    1
    46    35    27   ar
    47    33    28   ar
    48     1    41    1
    49     1    42    1
    50     1    43    1
    51     2    44    1
    52     2    45    1
    53     3    46    1
    54     3    47    1
    55     4    48    1
    56     4    49    1
    57     5    50    1
    58     5    51    1
    59     6    52    1
    60     6    53    1
    61    11    54    1
    62    12    55    1
    63    12    56    1
    64    13    57    1
    65    16    58    1
    66    16    59    1
    67    16    60    1
    68    19    61    1
    69    20    62    1
    70    21    63    1
    71    22    64    1
    72    29    65    1
    73    30    66    1
    74    31    67    1
    75    32    68    1
    76    39    69    1
    77    40    70    1
    78    40    71    1
