@<TRIPOS>MOLECULE
*****
 52 55 0 0 0
SMALL
GASTEIGER

@<TRIPOS>ATOM
      1 N           3.9083    2.2904   -1.5404 N.3     1  UNL1       -0.3265
      2 C           3.0145    1.5805   -0.6404 C.3     1  UNL1        0.0172
      3 C           1.9456    0.8086   -1.3568 C.3     1  UNL1        0.0396
      4 C           1.0527    0.0982   -0.3987 C.2     1  UNL1        0.2176
      5 O           1.4254   -1.0517   -0.0273 O.2     1  UNL1       -0.2755
      6 N          -0.1450    0.6461    0.0861 N.am    1  UNL1       -0.2912
      7 C          -0.7287    1.9330   -0.2156 C.3     1  UNL1        0.0155
      8 C          -1.0925    2.4267    1.1737 C.3     1  UNL1       -0.0350
      9 C          -1.5930    1.1695    1.8406 C.3     1  UNL1       -0.0256
     10 C          -1.0572    0.0108    1.0066 C.3     1  UNL1        0.0890
     11 C          -2.1869   -0.6516    0.2741 C.ar    1  UNL1        0.1920
     12 N          -2.1916   -1.4311   -0.7966 N.ar    1  UNL1       -0.0593
     13 O          -3.4359   -1.7596   -1.0581 O.2     1  UNL1       -0.3371
     14 C          -4.2560   -1.2238   -0.1966 C.ar    1  UNL1        0.2423
     15 C          -5.7376   -1.3392   -0.1295 C.3     1  UNL1        0.1438
     16 C          -6.4133   -2.1876   -1.1734 C.3     1  UNL1        0.4039
     17 F          -7.7805   -2.1417   -0.9060 F       1  UNL1       -0.1696
     18 F          -6.0388   -3.5182   -1.1025 F       1  UNL1       -0.1696
     19 F          -6.2438   -1.6655   -2.4390 F       1  UNL1       -0.1696
     20 C          -6.4144   -1.1463    1.2274 C.3     1  UNL1       -0.0292
     21 C          -6.4931   -0.0741    0.2042 C.3     1  UNL1       -0.0292
     22 N          -3.4742   -0.5228    0.6477 N.ar    1  UNL1       -0.1934
     23 C           3.6870    0.8728    0.4713 C.3     1  UNL1       -0.0092
     24 C           4.6512   -0.1541    0.1662 C.ar    1  UNL1       -0.0078
     25 C           5.1053   -0.4238   -1.0833 C.ar    1  UNL1       -0.0176
     26 C           6.0505   -1.4287   -1.3396 C.ar    1  UNL1        0.1588
     27 F           6.4780   -1.6691   -2.5878 F       1  UNL1       -0.2025
     28 C           6.5350   -2.1693   -0.2780 C.ar    1  UNL1        0.1611
     29 F           7.4537   -3.1632   -0.4340 F       1  UNL1       -0.2024
     30 C           6.0842   -1.9073    0.9938 C.ar    1  UNL1        0.0119
     31 C           5.1500   -0.9084    1.2172 C.ar    1  UNL1        0.1295
     32 F           4.7417   -0.6905    2.4748 F       1  UNL1       -0.2051
     33 H           3.4404    3.0898   -1.9869 H       1  UNL1        0.1185
     34 H           4.8041    2.5181   -1.0682 H       1  UNL1        0.1185
     35 H           2.4388    2.4368   -0.1378 H       1  UNL1        0.0466
     36 H           1.3731    1.5004   -2.0089 H       1  UNL1        0.0374
     37 H           2.3940    0.0620   -2.0135 H       1  UNL1        0.0374
     38 H          -1.6522    1.8776   -0.7992 H       1  UNL1        0.0465
     39 H          -0.0232    2.6148   -0.7296 H       1  UNL1        0.0465
     40 H          -1.8747    3.2291    1.1445 H       1  UNL1        0.0281
     41 H          -0.1547    2.7993    1.6718 H       1  UNL1        0.0281
     42 H          -2.7209    1.1364    1.8467 H       1  UNL1        0.0288
     43 H          -1.2162    1.0797    2.8953 H       1  UNL1        0.0288
     44 H          -0.5845   -0.7413    1.6618 H       1  UNL1        0.0583
     45 H          -5.7095   -1.0381    2.0936 H       1  UNL1        0.0278
     46 H          -7.2724   -1.8106    1.4457 H       1  UNL1        0.0278
     47 H          -7.4987    0.0956   -0.2680 H       1  UNL1        0.0278
     48 H          -5.8804    0.8256    0.3330 H       1  UNL1        0.0278
     49 H           2.8652    0.3868    1.0818 H       1  UNL1        0.0329
     50 H           4.0799    1.6603    1.1709 H       1  UNL1        0.0329
     51 H           4.7413    0.1460   -1.9162 H       1  UNL1        0.0651
     52 H           6.4504   -2.4771    1.8520 H       1  UNL1        0.0676
@<TRIPOS>BOND
     1     1     2    1
     2     2     3    1
     3     3     4    1
     4     4     5    2
     5     4     6   am
     6     6     7    1
     7     7     8    1
     8     8     9    1
     9     9    10    1
    10    10    11    1
    11    11    12   ar
    12    12    13   ar
    13    13    14   ar
    14    14    15    1
    15    15    16    1
    16    16    17    1
    17    16    18    1
    18    16    19    1
    19    15    20    1
    20    20    21    1
    21    14    22   ar
    22     2    23    1
    23    23    24    1
    24    24    25   ar
    25    25    26   ar
    26    26    27    1
    27    26    28   ar
    28    28    29    1
    29    28    30   ar
    30    30    31   ar
    31    31    32    1
    32    10     6    1
    33    22    11   ar
    34    31    24   ar
    35    21    15    1
    36     1    33    1
    37     1    34    1
    38     2    35    1
    39     3    36    1
    40     3    37    1
    41     7    38    1
    42     7    39    1
    43     8    40    1
    44     8    41    1
    45     9    42    1
    46     9    43    1
    47    10    44    1
    48    20    45    1
    49    20    46    1
    50    21    47    1
    51    21    48    1
    52    23    49    1
    53    23    50    1
    54    25    51    1
    55    30    52    1
