
     RDKit          3D

 52 55  0  0  0  0  0  0  0  0999 V2000
    3.9083    2.2904   -1.5404 N   0  0  0  0  0  0  0  0  0  0  0  0
    3.0145    1.5805   -0.6404 C   0  0  1  0  0  0  0  0  0  0  0  0
    1.9456    0.8086   -1.3568 C   0  0  0  0  0  0  0  0  0  0  0  0
    1.0527    0.0982   -0.3987 C   0  0  0  0  0  0  0  0  0  0  0  0
    1.4254   -1.0517   -0.0273 O   0  0  0  0  0  0  0  0  0  0  0  0
   -0.1450    0.6461    0.0861 N   0  0  0  0  0  0  0  0  0  0  0  0
   -0.7287    1.9330   -0.2156 C   0  0  0  0  0  0  0  0  0  0  0  0
   -1.0925    2.4267    1.1737 C   0  0  0  0  0  0  0  0  0  0  0  0
   -1.5930    1.1695    1.8406 C   0  0  0  0  0  0  0  0  0  0  0  0
   -1.0572    0.0108    1.0066 C   0  0  1  0  0  0  0  0  0  0  0  0
   -2.1869   -0.6516    0.2741 C   0  0  0  0  0  0  0  0  0  0  0  0
   -2.1916   -1.4311   -0.7966 N   0  0  0  0  0  0  0  0  0  0  0  0
   -3.4359   -1.7596   -1.0581 O   0  0  0  0  0  0  0  0  0  0  0  0
   -4.2560   -1.2238   -0.1966 C   0  0  0  0  0  0  0  0  0  0  0  0
   -5.7376   -1.3392   -0.1295 C   0  0  0  0  0  0  0  0  0  0  0  0
   -6.4133   -2.1876   -1.1734 C   0  0  0  0  0  0  0  0  0  0  0  0
   -7.7805   -2.1417   -0.9060 F   0  0  0  0  0  0  0  0  0  0  0  0
   -6.0388   -3.5182   -1.1025 F   0  0  0  0  0  0  0  0  0  0  0  0
   -6.2438   -1.6655   -2.4390 F   0  0  0  0  0  0  0  0  0  0  0  0
   -6.4144   -1.1463    1.2274 C   0  0  0  0  0  0  0  0  0  0  0  0
   -6.4931   -0.0741    0.2042 C   0  0  0  0  0  0  0  0  0  0  0  0
   -3.4742   -0.5228    0.6477 N   0  0  0  0  0  0  0  0  0  0  0  0
    3.6870    0.8728    0.4713 C   0  0  0  0  0  0  0  0  0  0  0  0
    4.6512   -0.1541    0.1662 C   0  0  0  0  0  0  0  0  0  0  0  0
    5.1053   -0.4238   -1.0833 C   0  0  0  0  0  0  0  0  0  0  0  0
    6.0505   -1.4287   -1.3396 C   0  0  0  0  0  0  0  0  0  0  0  0
    6.4780   -1.6691   -2.5878 F   0  0  0  0  0  0  0  0  0  0  0  0
    6.5350   -2.1693   -0.2780 C   0  0  0  0  0  0  0  0  0  0  0  0
    7.4537   -3.1632   -0.4340 F   0  0  0  0  0  0  0  0  0  0  0  0
    6.0842   -1.9073    0.9938 C   0  0  0  0  0  0  0  0  0  0  0  0
    5.1500   -0.9084    1.2172 C   0  0  0  0  0  0  0  0  0  0  0  0
    4.7417   -0.6905    2.4748 F   0  0  0  0  0  0  0  0  0  0  0  0
    3.4404    3.0898   -1.9869 H   0  0  0  0  0  0  0  0  0  0  0  0
    4.8041    2.5181   -1.0682 H   0  0  0  0  0  0  0  0  0  0  0  0
    2.4388    2.4368   -0.1378 H   0  0  0  0  0  0  0  0  0  0  0  0
    1.3731    1.5004   -2.0089 H   0  0  0  0  0  0  0  0  0  0  0  0
    2.3940    0.0620   -2.0135 H   0  0  0  0  0  0  0  0  0  0  0  0
   -1.6522    1.8776   -0.7992 H   0  0  0  0  0  0  0  0  0  0  0  0
   -0.0232    2.6148   -0.7296 H   0  0  0  0  0  0  0  0  0  0  0  0
   -1.8747    3.2291    1.1445 H   0  0  0  0  0  0  0  0  0  0  0  0
   -0.1547    2.7993    1.6718 H   0  0  0  0  0  0  0  0  0  0  0  0
   -2.7209    1.1364    1.8467 H   0  0  0  0  0  0  0  0  0  0  0  0
   -1.2162    1.0797    2.8953 H   0  0  0  0  0  0  0  0  0  0  0  0
   -0.5845   -0.7413    1.6618 H   0  0  0  0  0  0  0  0  0  0  0  0
   -5.7095   -1.0381    2.0936 H   0  0  0  0  0  0  0  0  0  0  0  0
   -7.2724   -1.8106    1.4457 H   0  0  0  0  0  0  0  0  0  0  0  0
   -7.4987    0.0956   -0.2680 H   0  0  0  0  0  0  0  0  0  0  0  0
   -5.8804    0.8256    0.3330 H   0  0  0  0  0  0  0  0  0  0  0  0
    2.8652    0.3868    1.0818 H   0  0  0  0  0  0  0  0  0  0  0  0
    4.0799    1.6603    1.1709 H   0  0  0  0  0  0  0  0  0  0  0  0
    4.7413    0.1460   -1.9162 H   0  0  0  0  0  0  0  0  0  0  0  0
    6.4504   -2.4771    1.8520 H   0  0  0  0  0  0  0  0  0  0  0  0
  1  2  1  0
  2  3  1  0
  3  4  1  0
  4  5  2  0
  4  6  1  0
  6  7  1  0
  7  8  1  0
  8  9  1  0
  9 10  1  0
 10 11  1  0
 11 12  2  0
 12 13  1  0
 13 14  1  0
 14 15  1  0
 15 16  1  0
 16 17  1  0
 16 18  1  0
 16 19  1  0
 15 20  1  0
 20 21  1  0
 14 22  2  0
  2 23  1  0
 23 24  1  0
 24 25  2  0
 25 26  1  0
 26 27  1  0
 26 28  2  0
 28 29  1  0
 28 30  1  0
 30 31  2  0
 31 32  1  0
 10  6  1  0
 22 11  1  0
 31 24  1  0
 21 15  1  0
  1 33  1  0
  1 34  1  0
  2 35  1  1
  3 36  1  0
  3 37  1  0
  7 38  1  0
  7 39  1  0
  8 40  1  0
  8 41  1  0
  9 42  1  0
  9 43  1  0
 10 44  1  1
 20 45  1  0
 20 46  1  0
 21 47  1  0
 21 48  1  0
 23 49  1  0
 23 50  1  0
 25 51  1  0
 30 52  1  0
M  END
$$$$
