@<TRIPOS>MOLECULE
*****
 56 58 0 0 0
SMALL
GASTEIGER

@<TRIPOS>ATOM
      1 C           9.2310   -3.3673    0.2272 C.3     1  UNL1        0.0820
      2 O           8.1379   -2.5501   -0.0738 O.3     1  UNL1       -0.4645
      3 C           7.7595   -1.4333    0.6581 C.2     1  UNL1        0.3389
      4 O           8.4352   -1.1349    1.6500 O.2     1  UNL1       -0.2450
      5 C           6.6039   -0.6287    0.2804 C.ar    1  UNL1        0.0596
      6 C           6.2597    0.4742    1.0331 C.ar    1  UNL1       -0.0472
      7 C           5.1774    1.2627    0.7144 C.ar    1  UNL1       -0.0532
      8 C           4.3795    0.9701   -0.3965 C.ar    1  UNL1       -0.0175
      9 C           3.3004    1.7784   -0.6921 C.ar    1  UNL1       -0.0476
     10 C           2.5193    1.4892   -1.7816 C.ar    1  UNL1       -0.0097
     11 C           1.3268    2.2880   -2.1797 C.3     1  UNL1        0.1191
     12 O           0.1333    1.7746   -1.6842 O.3     1  UNL1       -0.4455
     13 C          -0.2466    1.5825   -0.3885 C.2     1  UNL1        0.4033
     14 O           0.5594    1.8988    0.5137 O.2     1  UNL1       -0.2262
     15 N          -1.5081    1.0426   -0.0037 N.am    1  UNL1       -0.2644
     16 C          -2.5067    0.6476   -0.9814 C.3     1  UNL1        0.0336
     17 C          -3.4482   -0.3522   -0.3465 C.3     1  UNL1        0.0307
     18 N          -4.0715    0.2281    0.8303 N.am    1  UNL1       -0.2972
     19 C          -5.4022   -0.0947    1.1936 C.2     1  UNL1        0.2328
     20 O          -5.8905    0.4367    2.2213 O.2     1  UNL1       -0.2739
     21 C          -6.1518   -1.0477    0.3370 C.3     1  UNL1        0.0883
     22 N          -7.4912   -1.2711    0.8424 N.am    1  UNL1       -0.3060
     23 C          -8.3666   -0.1683    0.9535 C.2     1  UNL1        0.2239
     24 O          -7.9848    0.9784    0.6195 O.2     1  UNL1       -0.2749
     25 C          -9.7463   -0.3582    1.4670 C.3     1  UNL1        0.0798
     26 BR        -10.0447   -2.2159    1.8967 Br      1  UNL1       -0.0819
     27 C          -3.2884    1.1455    1.6167 C.3     1  UNL1        0.0307
     28 C          -1.8211    0.8761    1.3888 C.3     1  UNL1        0.0336
     29 C           2.8543    0.3792   -2.5513 C.ar    1  UNL1       -0.0548
     30 C           3.9278   -0.4138   -2.2464 C.ar    1  UNL1       -0.0536
     31 C           4.7193   -0.1321   -1.1530 C.ar    1  UNL1       -0.0171
     32 C           5.8151   -0.9090   -0.8087 C.ar    1  UNL1       -0.0400
     33 H          10.1981   -2.9842   -0.1127 H       1  UNL1        0.0661
     34 H           9.3264   -3.5819    1.3119 H       1  UNL1        0.0661
     35 H           9.0688   -4.3452   -0.3139 H       1  UNL1        0.0661
     36 H           6.8740    0.7221    1.9110 H       1  UNL1        0.0626
     37 H           4.8984    2.1320    1.2998 H       1  UNL1        0.0624
     38 H           3.0804    2.6384   -0.0724 H       1  UNL1        0.0627
     39 H           1.5179    3.3444   -1.8225 H       1  UNL1        0.0749
     40 H           1.3371    2.3540   -3.2870 H       1  UNL1        0.0749
     41 H          -3.0257    1.5565   -1.3189 H       1  UNL1        0.0481
     42 H          -1.9673    0.1509   -1.8077 H       1  UNL1        0.0481
     43 H          -4.1700   -0.7586   -1.0559 H       1  UNL1        0.0480
     44 H          -2.8187   -1.2149   -0.0045 H       1  UNL1        0.0480
     45 H          -5.5938   -2.0077    0.2558 H       1  UNL1        0.0558
     46 H          -6.2393   -0.6476   -0.7079 H       1  UNL1        0.0558
     47 H          -7.7675   -2.2400    1.1086 H       1  UNL1        0.1492
     48 H         -10.5059   -0.0246    0.7089 H       1  UNL1        0.0477
     49 H          -9.9371    0.2328    2.3845 H       1  UNL1        0.0477
     50 H          -3.5575    0.9748    2.6852 H       1  UNL1        0.0480
     51 H          -3.5450    2.2131    1.4185 H       1  UNL1        0.0480
     52 H          -1.6596   -0.2095    1.6242 H       1  UNL1        0.0481
     53 H          -1.1664    1.4510    2.0538 H       1  UNL1        0.0481
     54 H           2.2472    0.1328   -3.4203 H       1  UNL1        0.0622
     55 H           4.1661   -1.2851   -2.8758 H       1  UNL1        0.0624
     56 H           6.0684   -1.7785   -1.4206 H       1  UNL1        0.0632
@<TRIPOS>BOND
     1     1     2    1
     2     2     3    1
     3     3     4    2
     4     3     5    1
     5     5     6   ar
     6     6     7   ar
     7     7     8   ar
     8     8     9   ar
     9     9    10   ar
    10    10    11    1
    11    11    12    1
    12    12    13    1
    13    13    14    2
    14    13    15   am
    15    15    16    1
    16    16    17    1
    17    17    18    1
    18    18    19   am
    19    19    20    2
    20    19    21    1
    21    21    22    1
    22    22    23   am
    23    23    24    2
    24    23    25    1
    25    25    26    1
    26    18    27    1
    27    27    28    1
    28    10    29   ar
    29    29    30   ar
    30    30    31   ar
    31    31    32   ar
    32    32     5   ar
    33    31     8   ar
    34    28    15    1
    35     1    33    1
    36     1    34    1
    37     1    35    1
    38     6    36    1
    39     7    37    1
    40     9    38    1
    41    11    39    1
    42    11    40    1
    43    16    41    1
    44    16    42    1
    45    17    43    1
    46    17    44    1
    47    21    45    1
    48    21    46    1
    49    22    47    1
    50    25    48    1
    51    25    49    1
    52    27    50    1
    53    27    51    1
    54    28    52    1
    55    28    53    1
    56    29    54    1
    57    30    55    1
    58    32    56    1
