@<TRIPOS>MOLECULE
*****
 56 59 0 0 0
SMALL
GASTEIGER

@<TRIPOS>ATOM
      1 C          -5.7719    2.3330   -0.1620 C.3     1  UNL1       -0.0331
      2 C          -4.3542    2.0567   -0.0702 C.ar    1  UNL1       -0.0077
      3 S          -3.0689    3.3229   -0.2002 S.2     1  UNL1       -0.0750
      4 C          -1.6768    2.1931    0.0033 C.ar    1  UNL1        0.0969
      5 C          -2.2995    0.9458    0.1459 C.ar    1  UNL1        0.0349
      6 C          -3.6070    0.8658    0.1186 C.ar    1  UNL1       -0.0293
      7 C          -4.4221   -0.3931    0.4166 C.3     1  UNL1       -0.0383
      8 C          -1.3947   -0.2505    0.2548 C.2     1  UNL1        0.0763
      9 C          -1.7609   -1.4725   -0.3821 C.ar    1  UNL1        0.0007
     10 C          -1.0991   -2.6201   -0.0162 C.ar    1  UNL1       -0.0512
     11 C          -1.2787   -3.7889   -0.7025 C.ar    1  UNL1       -0.0428
     12 C          -2.1278   -3.8672   -1.7871 C.ar    1  UNL1        0.0410
     13 CL         -2.3583   -5.3751   -2.6688 Cl      1  UNL1       -0.0835
     14 C          -2.7800   -2.7037   -2.1370 C.ar    1  UNL1       -0.0428
     15 C          -2.5952   -1.5291   -1.4437 C.ar    1  UNL1       -0.0512
     16 N          -0.2608   -0.2788    0.9057 N.2     1  UNL1       -0.2710
     17 C           0.4177    0.7393    1.6467 C.3     1  UNL1        0.1213
     18 C           1.7219    0.1985    2.1924 C.3     1  UNL1        0.0743
     19 C           2.6171   -0.2568    1.0987 C.2     1  UNL1        0.3101
     20 O           2.2139   -0.1482   -0.0891 O.2     1  UNL1       -0.2507
     21 O           3.8609   -0.7911    1.2938 O.3     1  UNL1       -0.4588
     22 C           4.7113   -1.2238    0.2535 C.3     1  UNL1        0.1052
     23 C           4.0913   -2.3215   -0.5773 C.3     1  UNL1       -0.0254
     24 C           5.9521   -1.8029    0.9026 C.3     1  UNL1       -0.0254
     25 C           5.1379   -0.1192   -0.6645 C.3     1  UNL1       -0.0254
     26 C           0.6650    1.9607    0.8316 C.ar    1  UNL1        0.1635
     27 N           1.7557    2.6762    0.6450 N.ar    1  UNL1       -0.1318
     28 N           1.4637    3.7181   -0.1611 N.ar    1  UNL1       -0.1342
     29 C           0.1748    3.6869   -0.5062 C.ar    1  UNL1        0.1353
     30 C          -0.6400    4.6081   -1.3647 C.3     1  UNL1       -0.0041
     31 N          -0.3156    2.6049    0.1040 N.ar    1  UNL1       -0.2746
     32 H          -6.2563    2.4984    0.8407 H       1  UNL1        0.0283
     33 H          -6.0223    3.1838   -0.8310 H       1  UNL1        0.0283
     34 H          -6.3577    1.4706   -0.5994 H       1  UNL1        0.0283
     35 H          -5.1857   -0.1011    1.2183 H       1  UNL1        0.0278
     36 H          -3.7790   -1.0780    0.9493 H       1  UNL1        0.0278
     37 H          -5.0300   -0.7120   -0.4064 H       1  UNL1        0.0278
     38 H          -0.4037   -2.6246    0.8449 H       1  UNL1        0.0625
     39 H          -0.7589   -4.7200   -0.4267 H       1  UNL1        0.0632
     40 H          -3.4558   -2.7662   -3.0004 H       1  UNL1        0.0632
     41 H          -3.1286   -0.6634   -1.8512 H       1  UNL1        0.0625
     42 H          -0.2302    0.9787    2.5346 H       1  UNL1        0.0631
     43 H           2.2062    0.9345    2.8665 H       1  UNL1        0.0403
     44 H           1.4843   -0.6905    2.8117 H       1  UNL1        0.0403
     45 H           3.5702   -3.0863    0.0400 H       1  UNL1        0.0268
     46 H           3.4453   -1.9232   -1.3864 H       1  UNL1        0.0268
     47 H           4.9263   -2.8491   -1.0849 H       1  UNL1        0.0268
     48 H           5.6968   -2.7568    1.4409 H       1  UNL1        0.0268
     49 H           6.2588   -1.0891    1.6966 H       1  UNL1        0.0268
     50 H           6.7712   -1.9669    0.1647 H       1  UNL1        0.0268
     51 H           4.3443    0.1183   -1.4175 H       1  UNL1        0.0268
     52 H           6.0780   -0.4608   -1.1793 H       1  UNL1        0.0268
     53 H           5.4276    0.7739   -0.0737 H       1  UNL1        0.0268
     54 H          -0.0061    5.3571   -1.8358 H       1  UNL1        0.0308
     55 H          -1.1834    4.0445   -2.1391 H       1  UNL1        0.0308
     56 H          -1.3830    5.1604   -0.7197 H       1  UNL1        0.0308
@<TRIPOS>BOND
     1     1     2    1
     2     2     3   ar
     3     3     4   ar
     4     4     5   ar
     5     5     6   ar
     6     6     7    1
     7     5     8    1
     8     8     9    1
     9     9    10   ar
    10    10    11   ar
    11    11    12   ar
    12    12    13    1
    13    12    14   ar
    14    14    15   ar
    15     8    16    2
    16    16    17    1
    17    17    18    1
    18    18    19    1
    19    19    20    2
    20    19    21    1
    21    21    22    1
    22    22    23    1
    23    22    24    1
    24    22    25    1
    25    17    26    1
    26    26    27   ar
    27    27    28   ar
    28    28    29   ar
    29    29    30    1
    30    29    31   ar
    31     6     2   ar
    32    15     9   ar
    33    31    26   ar
    34    31     4    1
    35     1    32    1
    36     1    33    1
    37     1    34    1
    38     7    35    1
    39     7    36    1
    40     7    37    1
    41    10    38    1
    42    11    39    1
    43    14    40    1
    44    15    41    1
    45    17    42    1
    46    18    43    1
    47    18    44    1
    48    23    45    1
    49    23    46    1
    50    23    47    1
    51    24    48    1
    52    24    49    1
    53    24    50    1
    54    25    51    1
    55    25    52    1
    56    25    53    1
    57    30    54    1
    58    30    55    1
    59    30    56    1
