
     RDKit          3D

 56 59  0  0  0  0  0  0  0  0999 V2000
   -5.7719    2.3330   -0.1620 C   0  0  0  0  0  0  0  0  0  0  0  0
   -4.3542    2.0567   -0.0702 C   0  0  0  0  0  0  0  0  0  0  0  0
   -3.0689    3.3229   -0.2002 S   0  0  0  0  0  0  0  0  0  0  0  0
   -1.6768    2.1931    0.0033 C   0  0  0  0  0  0  0  0  0  0  0  0
   -2.2995    0.9458    0.1459 C   0  0  0  0  0  0  0  0  0  0  0  0
   -3.6070    0.8658    0.1186 C   0  0  0  0  0  0  0  0  0  0  0  0
   -4.4221   -0.3931    0.4166 C   0  0  0  0  0  0  0  0  0  0  0  0
   -1.3947   -0.2505    0.2548 C   0  0  0  0  0  0  0  0  0  0  0  0
   -1.7609   -1.4725   -0.3821 C   0  0  0  0  0  0  0  0  0  0  0  0
   -1.0991   -2.6201   -0.0162 C   0  0  0  0  0  0  0  0  0  0  0  0
   -1.2787   -3.7889   -0.7025 C   0  0  0  0  0  0  0  0  0  0  0  0
   -2.1278   -3.8672   -1.7871 C   0  0  0  0  0  0  0  0  0  0  0  0
   -2.3583   -5.3751   -2.6688 Cl  0  0  0  0  0  0  0  0  0  0  0  0
   -2.7800   -2.7037   -2.1370 C   0  0  0  0  0  0  0  0  0  0  0  0
   -2.5952   -1.5291   -1.4437 C   0  0  0  0  0  0  0  0  0  0  0  0
   -0.2608   -0.2788    0.9057 N   0  0  0  0  0  0  0  0  0  0  0  0
    0.4177    0.7393    1.6467 C   0  0  1  0  0  0  0  0  0  0  0  0
    1.7219    0.1985    2.1924 C   0  0  0  0  0  0  0  0  0  0  0  0
    2.6171   -0.2568    1.0987 C   0  0  0  0  0  0  0  0  0  0  0  0
    2.2139   -0.1482   -0.0891 O   0  0  0  0  0  0  0  0  0  0  0  0
    3.8609   -0.7911    1.2938 O   0  0  0  0  0  0  0  0  0  0  0  0
    4.7113   -1.2238    0.2535 C   0  0  0  0  0  0  0  0  0  0  0  0
    4.0913   -2.3215   -0.5773 C   0  0  0  0  0  0  0  0  0  0  0  0
    5.9521   -1.8029    0.9026 C   0  0  0  0  0  0  0  0  0  0  0  0
    5.1379   -0.1192   -0.6645 C   0  0  0  0  0  0  0  0  0  0  0  0
    0.6650    1.9607    0.8316 C   0  0  0  0  0  0  0  0  0  0  0  0
    1.7557    2.6762    0.6450 N   0  0  0  0  0  0  0  0  0  0  0  0
    1.4637    3.7181   -0.1611 N   0  0  0  0  0  0  0  0  0  0  0  0
    0.1748    3.6869   -0.5062 C   0  0  0  0  0  0  0  0  0  0  0  0
   -0.6400    4.6081   -1.3647 C   0  0  0  0  0  0  0  0  0  0  0  0
   -0.3156    2.6049    0.1040 N   0  0  0  0  0  0  0  0  0  0  0  0
   -6.2563    2.4984    0.8407 H   0  0  0  0  0  0  0  0  0  0  0  0
   -6.0223    3.1838   -0.8310 H   0  0  0  0  0  0  0  0  0  0  0  0
   -6.3577    1.4706   -0.5994 H   0  0  0  0  0  0  0  0  0  0  0  0
   -5.1857   -0.1011    1.2183 H   0  0  0  0  0  0  0  0  0  0  0  0
   -3.7790   -1.0780    0.9493 H   0  0  0  0  0  0  0  0  0  0  0  0
   -5.0300   -0.7120   -0.4064 H   0  0  0  0  0  0  0  0  0  0  0  0
   -0.4037   -2.6246    0.8449 H   0  0  0  0  0  0  0  0  0  0  0  0
   -0.7589   -4.7200   -0.4267 H   0  0  0  0  0  0  0  0  0  0  0  0
   -3.4558   -2.7662   -3.0004 H   0  0  0  0  0  0  0  0  0  0  0  0
   -3.1286   -0.6634   -1.8512 H   0  0  0  0  0  0  0  0  0  0  0  0
   -0.2302    0.9787    2.5346 H   0  0  0  0  0  0  0  0  0  0  0  0
    2.2062    0.9345    2.8665 H   0  0  0  0  0  0  0  0  0  0  0  0
    1.4843   -0.6905    2.8117 H   0  0  0  0  0  0  0  0  0  0  0  0
    3.5702   -3.0863    0.0400 H   0  0  0  0  0  0  0  0  0  0  0  0
    3.4453   -1.9232   -1.3864 H   0  0  0  0  0  0  0  0  0  0  0  0
    4.9263   -2.8491   -1.0849 H   0  0  0  0  0  0  0  0  0  0  0  0
    5.6968   -2.7568    1.4409 H   0  0  0  0  0  0  0  0  0  0  0  0
    6.2588   -1.0891    1.6966 H   0  0  0  0  0  0  0  0  0  0  0  0
    6.7712   -1.9669    0.1647 H   0  0  0  0  0  0  0  0  0  0  0  0
    4.3443    0.1183   -1.4175 H   0  0  0  0  0  0  0  0  0  0  0  0
    6.0780   -0.4608   -1.1793 H   0  0  0  0  0  0  0  0  0  0  0  0
    5.4276    0.7739   -0.0737 H   0  0  0  0  0  0  0  0  0  0  0  0
   -0.0061    5.3571   -1.8358 H   0  0  0  0  0  0  0  0  0  0  0  0
   -1.1834    4.0445   -2.1391 H   0  0  0  0  0  0  0  0  0  0  0  0
   -1.3830    5.1604   -0.7197 H   0  0  0  0  0  0  0  0  0  0  0  0
  1  2  1  0
  2  3  1  0
  3  4  1  0
  4  5  2  0
  5  6  1  0
  6  7  1  0
  5  8  1  0
  8  9  1  0
  9 10  2  0
 10 11  1  0
 11 12  2  0
 12 13  1  0
 12 14  1  0
 14 15  2  0
  8 16  2  0
 16 17  1  0
 17 18  1  0
 18 19  1  0
 19 20  2  0
 19 21  1  0
 21 22  1  0
 22 23  1  0
 22 24  1  0
 22 25  1  0
 17 26  1  0
 26 27  2  0
 27 28  1  0
 28 29  2  0
 29 30  1  0
 29 31  1  0
  6  2  2  0
 15  9  1  0
 31 26  1  0
 31  4  1  0
  1 32  1  0
  1 33  1  0
  1 34  1  0
  7 35  1  0
  7 36  1  0
  7 37  1  0
 10 38  1  0
 11 39  1  0
 14 40  1  0
 15 41  1  0
 17 42  1  1
 18 43  1  0
 18 44  1  0
 23 45  1  0
 23 46  1  0
 23 47  1  0
 24 48  1  0
 24 49  1  0
 24 50  1  0
 25 51  1  0
 25 52  1  0
 25 53  1  0
 30 54  1  0
 30 55  1  0
 30 56  1  0
M  END
$$$$
