@<TRIPOS>MOLECULE
*****
 53 55 0 0 0
SMALL
GASTEIGER

@<TRIPOS>ATOM
      1 C          -2.9873    3.8450   -0.6754 C.2     1  UNL1       -0.0951
      2 C          -1.8975    3.1703   -0.2562 C.2     1  UNL1       -0.0472
      3 C          -0.6566    3.9612   -0.3203 C.3     1  UNL1       -0.0396
      4 C          -2.0046    1.7815    0.0987 C.ar    1  UNL1        0.0166
      5 C          -3.1439    1.0834   -0.3821 C.ar    1  UNL1        0.0374
      6 N          -3.4241   -0.1588   -0.0922 N.ar    1  UNL1       -0.2542
      7 C          -2.6082   -0.8974    0.7231 C.ar    1  UNL1        0.0755
      8 C          -3.0135   -2.2636    0.9775 C.ar    1  UNL1        0.0369
      9 C          -4.1695   -2.7750    0.4147 C.ar    1  UNL1       -0.0314
     10 C          -4.6027   -4.0586    0.6195 C.ar    1  UNL1        0.0418
     11 CL         -6.0616   -4.6969   -0.0935 Cl      1  UNL1       -0.0835
     12 C          -3.8595   -4.8928    1.4241 C.ar    1  UNL1       -0.0406
     13 C          -2.7079   -4.4315    2.0031 C.ar    1  UNL1       -0.0244
     14 C          -2.2963   -3.1036    1.7673 C.ar    1  UNL1        0.1326
     15 F          -1.1433   -2.7574    2.3911 F       1  UNL1       -0.2048
     16 C          -1.5186   -0.2566    1.1926 C.ar    1  UNL1       -0.0138
     17 C          -1.1598    1.1044    0.9102 C.ar    1  UNL1        0.0423
     18 N          -0.0085    1.5690    1.5507 N.pl3   1  UNL1       -0.3133
     19 C           1.2103    2.1464    1.3302 C.ar    1  UNL1        0.0465
     20 C           1.5214    3.3140    2.0859 C.ar    1  UNL1       -0.0217
     21 C           2.6986    3.9870    1.9670 C.ar    1  UNL1        0.0293
     22 N           3.5903    3.5052    1.0884 N.ar    1  UNL1       -0.2624
     23 C           3.3354    2.4048    0.3546 C.ar    1  UNL1        0.0415
     24 C           2.1514    1.6903    0.4437 C.ar    1  UNL1        0.0759
     25 C           1.9552    0.5069   -0.4273 C.2     1  UNL1        0.2492
     26 O           0.9047   -0.1493   -0.4816 O.2     1  UNL1       -0.2700
     27 N           2.9862    0.0299   -1.2826 N.am    1  UNL1       -0.2861
     28 C           2.7792   -1.1450   -2.1426 C.3     1  UNL1        0.1213
     29 O           3.0788   -0.8128   -3.4668 O.3     1  UNL1       -0.3744
     30 C           3.8134   -2.1673   -1.6826 C.3     1  UNL1       -0.0129
     31 C           3.7461   -3.4419   -2.4590 C.3     1  UNL1       -0.0614
     32 H          -2.8943    4.8504   -1.0112 H       1  UNL1        0.0538
     33 H          -3.9374    3.3876   -0.6511 H       1  UNL1        0.0538
     34 H          -0.4189    4.4548    0.6315 H       1  UNL1        0.0278
     35 H           0.1977    3.4452   -0.7814 H       1  UNL1        0.0278
     36 H          -0.8251    4.8457   -1.0613 H       1  UNL1        0.0278
     37 H          -3.7958    1.6196   -1.0447 H       1  UNL1        0.0836
     38 H          -4.7727   -2.1309   -0.2258 H       1  UNL1        0.0639
     39 H          -4.1822   -5.9131    1.6010 H       1  UNL1        0.0633
     40 H          -2.1304   -5.0866    2.6309 H       1  UNL1        0.0647
     41 H          -0.8293   -0.7587    1.8340 H       1  UNL1        0.0658
     42 H          -0.1213    1.4017    2.6859 H       1  UNL1        0.1522
     43 H           0.7829    3.6890    2.7946 H       1  UNL1        0.0651
     44 H           2.8953    4.8684    2.5586 H       1  UNL1        0.0830
     45 H           4.0993    2.0550   -0.3508 H       1  UNL1        0.0838
     46 H           3.9092    0.4617   -1.3479 H       1  UNL1        0.1515
     47 H           1.7808   -1.5691   -2.0337 H       1  UNL1        0.0805
     48 H           3.9750   -0.4285   -3.4987 H       1  UNL1        0.2117
     49 H           4.8061   -1.6426   -1.7979 H       1  UNL1        0.0304
     50 H           3.6312   -2.3344   -0.5993 H       1  UNL1        0.0304
     51 H           3.9978   -4.2747   -1.7541 H       1  UNL1        0.0231
     52 H           4.5676   -3.4621   -3.2327 H       1  UNL1        0.0231
     53 H           2.7569   -3.5689   -2.9258 H       1  UNL1        0.0231
@<TRIPOS>BOND
     1     1     2    2
     2     2     3    1
     3     2     4    1
     4     4     5   ar
     5     5     6   ar
     6     6     7   ar
     7     7     8    1
     8     8     9   ar
     9     9    10   ar
    10    10    11    1
    11    10    12   ar
    12    12    13   ar
    13    13    14   ar
    14    14    15    1
    15     7    16   ar
    16    16    17   ar
    17    17    18    1
    18    18    19    1
    19    19    20   ar
    20    20    21   ar
    21    21    22   ar
    22    22    23   ar
    23    23    24   ar
    24    24    25    1
    25    25    26    2
    26    25    27   am
    27    27    28    1
    28    28    29    1
    29    28    30    1
    30    30    31    1
    31    17     4   ar
    32    24    19   ar
    33    14     8   ar
    34     1    32    1
    35     1    33    1
    36     3    34    1
    37     3    35    1
    38     3    36    1
    39     5    37    1
    40     9    38    1
    41    12    39    1
    42    13    40    1
    43    16    41    1
    44    18    42    1
    45    20    43    1
    46    21    44    1
    47    23    45    1
    48    27    46    1
    49    28    47    1
    50    29    48    1
    51    30    49    1
    52    30    50    1
    53    31    51    1
    54    31    52    1
    55    31    53    1
