
     RDKit          3D

 53 55  0  0  0  0  0  0  0  0999 V2000
   -2.9873    3.8450   -0.6754 C   0  0  0  0  0  0  0  0  0  0  0  0
   -1.8975    3.1703   -0.2562 C   0  0  0  0  0  0  0  0  0  0  0  0
   -0.6566    3.9612   -0.3203 C   0  0  0  0  0  0  0  0  0  0  0  0
   -2.0046    1.7815    0.0987 C   0  0  0  0  0  0  0  0  0  0  0  0
   -3.1439    1.0834   -0.3821 C   0  0  0  0  0  0  0  0  0  0  0  0
   -3.4241   -0.1588   -0.0922 N   0  0  0  0  0  0  0  0  0  0  0  0
   -2.6082   -0.8974    0.7231 C   0  0  0  0  0  0  0  0  0  0  0  0
   -3.0135   -2.2636    0.9775 C   0  0  0  0  0  0  0  0  0  0  0  0
   -4.1695   -2.7750    0.4147 C   0  0  0  0  0  0  0  0  0  0  0  0
   -4.6027   -4.0586    0.6195 C   0  0  0  0  0  0  0  0  0  0  0  0
   -6.0616   -4.6969   -0.0935 Cl  0  0  0  0  0  0  0  0  0  0  0  0
   -3.8595   -4.8928    1.4241 C   0  0  0  0  0  0  0  0  0  0  0  0
   -2.7079   -4.4315    2.0031 C   0  0  0  0  0  0  0  0  0  0  0  0
   -2.2963   -3.1036    1.7673 C   0  0  0  0  0  0  0  0  0  0  0  0
   -1.1433   -2.7574    2.3911 F   0  0  0  0  0  0  0  0  0  0  0  0
   -1.5186   -0.2566    1.1926 C   0  0  0  0  0  0  0  0  0  0  0  0
   -1.1598    1.1044    0.9102 C   0  0  0  0  0  0  0  0  0  0  0  0
   -0.0085    1.5690    1.5507 N   0  0  0  0  0  0  0  0  0  0  0  0
    1.2103    2.1464    1.3302 C   0  0  0  0  0  0  0  0  0  0  0  0
    1.5214    3.3140    2.0859 C   0  0  0  0  0  0  0  0  0  0  0  0
    2.6986    3.9870    1.9670 C   0  0  0  0  0  0  0  0  0  0  0  0
    3.5903    3.5052    1.0884 N   0  0  0  0  0  0  0  0  0  0  0  0
    3.3354    2.4048    0.3546 C   0  0  0  0  0  0  0  0  0  0  0  0
    2.1514    1.6903    0.4437 C   0  0  0  0  0  0  0  0  0  0  0  0
    1.9552    0.5069   -0.4273 C   0  0  0  0  0  0  0  0  0  0  0  0
    0.9047   -0.1493   -0.4816 O   0  0  0  0  0  0  0  0  0  0  0  0
    2.9862    0.0299   -1.2826 N   0  0  0  0  0  0  0  0  0  0  0  0
    2.7792   -1.1450   -2.1426 C   0  0  1  0  0  0  0  0  0  0  0  0
    3.0788   -0.8128   -3.4668 O   0  0  0  0  0  0  0  0  0  0  0  0
    3.8134   -2.1673   -1.6826 C   0  0  0  0  0  0  0  0  0  0  0  0
    3.7461   -3.4419   -2.4590 C   0  0  0  0  0  0  0  0  0  0  0  0
   -2.8943    4.8504   -1.0112 H   0  0  0  0  0  0  0  0  0  0  0  0
   -3.9374    3.3876   -0.6511 H   0  0  0  0  0  0  0  0  0  0  0  0
   -0.4189    4.4548    0.6315 H   0  0  0  0  0  0  0  0  0  0  0  0
    0.1977    3.4452   -0.7814 H   0  0  0  0  0  0  0  0  0  0  0  0
   -0.8251    4.8457   -1.0613 H   0  0  0  0  0  0  0  0  0  0  0  0
   -3.7958    1.6196   -1.0447 H   0  0  0  0  0  0  0  0  0  0  0  0
   -4.7727   -2.1309   -0.2258 H   0  0  0  0  0  0  0  0  0  0  0  0
   -4.1822   -5.9131    1.6010 H   0  0  0  0  0  0  0  0  0  0  0  0
   -2.1304   -5.0866    2.6309 H   0  0  0  0  0  0  0  0  0  0  0  0
   -0.8293   -0.7587    1.8340 H   0  0  0  0  0  0  0  0  0  0  0  0
   -0.1213    1.4017    2.6859 H   0  0  0  0  0  0  0  0  0  0  0  0
    0.7829    3.6890    2.7946 H   0  0  0  0  0  0  0  0  0  0  0  0
    2.8953    4.8684    2.5586 H   0  0  0  0  0  0  0  0  0  0  0  0
    4.0993    2.0550   -0.3508 H   0  0  0  0  0  0  0  0  0  0  0  0
    3.9092    0.4617   -1.3479 H   0  0  0  0  0  0  0  0  0  0  0  0
    1.7808   -1.5691   -2.0337 H   0  0  0  0  0  0  0  0  0  0  0  0
    3.9750   -0.4285   -3.4987 H   0  0  0  0  0  0  0  0  0  0  0  0
    4.8061   -1.6426   -1.7979 H   0  0  0  0  0  0  0  0  0  0  0  0
    3.6312   -2.3344   -0.5993 H   0  0  0  0  0  0  0  0  0  0  0  0
    3.9978   -4.2747   -1.7541 H   0  0  0  0  0  0  0  0  0  0  0  0
    4.5676   -3.4621   -3.2327 H   0  0  0  0  0  0  0  0  0  0  0  0
    2.7569   -3.5689   -2.9258 H   0  0  0  0  0  0  0  0  0  0  0  0
  1  2  2  3
  2  3  1  0
  2  4  1  0
  4  5  2  0
  5  6  1  0
  6  7  2  0
  7  8  1  0
  8  9  2  0
  9 10  1  0
 10 11  1  0
 10 12  2  0
 12 13  1  0
 13 14  2  0
 14 15  1  0
  7 16  1  0
 16 17  2  0
 17 18  1  0
 18 19  1  0
 19 20  2  0
 20 21  1  0
 21 22  2  0
 22 23  1  0
 23 24  2  0
 24 25  1  0
 25 26  2  0
 25 27  1  0
 27 28  1  0
 28 29  1  0
 28 30  1  0
 30 31  1  0
 17  4  1  0
 24 19  1  0
 14  8  1  0
  1 32  1  0
  1 33  1  0
  3 34  1  0
  3 35  1  0
  3 36  1  0
  5 37  1  0
  9 38  1  0
 12 39  1  0
 13 40  1  0
 16 41  1  0
 18 42  1  0
 20 43  1  0
 21 44  1  0
 23 45  1  0
 27 46  1  0
 28 47  1  6
 29 48  1  0
 30 49  1  0
 30 50  1  0
 31 51  1  0
 31 52  1  0
 31 53  1  0
M  END
$$$$
