
     RDKit          3D

 44 45  0  0  0  0  0  0  0  0999 V2000
    4.8482    1.6159    0.9972 C   0  0  0  0  0  0  0  0  0  0  0  0
    3.9900    0.8337    1.9325 C   0  0  0  0  0  0  0  0  0  0  0  0
    2.9900    0.0522    1.3246 O   0  0  0  0  0  0  0  0  0  0  0  0
    1.9571    0.4737    0.5412 C   0  0  0  0  0  0  0  0  0  0  0  0
    2.6019    1.4883    0.8689 O   0  0  0  0  0  0  0  0  0  0  0  0
    1.0025   -0.4765   -0.0134 C   0  0  0  0  0  0  0  0  0  0  0  0
    1.1293   -1.7671    0.2377 C   0  0  0  0  0  0  0  0  0  0  0  0
    2.1990   -2.3731    1.0682 C   0  0  0  0  0  0  0  0  0  0  0  0
    0.1347   -2.5484   -0.3642 N   0  0  0  0  0  0  0  0  0  0  0  0
   -0.9576   -2.1741   -1.1797 C   0  0  0  0  0  0  0  0  0  0  0  0
   -1.9487   -3.0772   -1.7637 C   0  0  0  0  0  0  0  0  0  0  0  0
   -1.0042   -0.8767   -1.3746 C   0  0  0  0  0  0  0  0  0  0  0  0
   -0.0664    0.1455   -0.8426 C   0  0  0  0  0  0  0  0  0  0  0  0
   -0.7908    1.1988   -0.0819 C   0  0  0  0  0  0  0  0  0  0  0  0
   -0.5040    2.5373   -0.2668 C   0  0  0  0  0  0  0  0  0  0  0  0
    0.7167    3.0672   -1.4031 Cl  0  0  0  0  0  0  0  0  0  0  0  0
   -1.2274    3.4324    0.4874 C   0  0  0  0  0  0  0  0  0  0  0  0
   -0.9658    5.1512    0.3492 Cl  0  0  0  0  0  0  0  0  0  0  0  0
   -2.1820    2.9800    1.3725 C   0  0  0  0  0  0  0  0  0  0  0  0
   -2.4608    1.6265    1.5492 C   0  0  0  0  0  0  0  0  0  0  0  0
   -1.7318    0.7210    0.7893 C   0  0  0  0  0  0  0  0  0  0  0  0
   -2.0004   -0.1710   -2.1646 C   0  0  0  0  0  0  0  0  0  0  0  0
   -2.7647    0.5662   -2.7957 O   0  0  0  0  0  0  0  0  0  0  0  0
   -2.9412   -0.9910   -2.7198 O   0  0  0  0  0  0  0  0  0  0  0  0
   -4.0293   -0.6672   -3.5257 C   0  0  0  0  0  0  0  0  0  0  0  0
    4.8180    1.0825    0.0144 H   0  0  0  0  0  0  0  0  0  0  0  0
    4.5656    2.6860    0.9297 H   0  0  0  0  0  0  0  0  0  0  0  0
    5.9137    1.5669    1.3797 H   0  0  0  0  0  0  0  0  0  0  0  0
    3.6235    1.4879    2.7521 H   0  0  0  0  0  0  0  0  0  0  0  0
    4.6367    0.0771    2.4775 H   0  0  0  0  0  0  0  0  0  0  0  0
    2.1685   -1.9790    2.1011 H   0  0  0  0  0  0  0  0  0  0  0  0
    2.0309   -3.4761    1.0941 H   0  0  0  0  0  0  0  0  0  0  0  0
    3.1903   -2.1469    0.5912 H   0  0  0  0  0  0  0  0  0  0  0  0
    0.2038   -3.5923   -0.1843 H   0  0  0  0  0  0  0  0  0  0  0  0
   -2.9775   -2.8738   -1.4142 H   0  0  0  0  0  0  0  0  0  0  0  0
   -1.7418   -4.1279   -1.4337 H   0  0  0  0  0  0  0  0  0  0  0  0
   -1.8785   -3.0198   -2.8687 H   0  0  0  0  0  0  0  0  0  0  0  0
    0.4301    0.6142   -1.7154 H   0  0  0  0  0  0  0  0  0  0  0  0
   -2.7510    3.6988    1.9655 H   0  0  0  0  0  0  0  0  0  0  0  0
   -3.2391    1.3618    2.2787 H   0  0  0  0  0  0  0  0  0  0  0  0
   -1.9496   -0.3151    0.9299 H   0  0  0  0  0  0  0  0  0  0  0  0
   -3.6665   -0.2277   -4.4949 H   0  0  0  0  0  0  0  0  0  0  0  0
   -4.7393   -0.0087   -3.0156 H   0  0  0  0  0  0  0  0  0  0  0  0
   -4.6319   -1.5755   -3.8007 H   0  0  0  0  0  0  0  0  0  0  0  0
  1  2  1  0
  2  3  1  0
  3  4  1  0
  4  5  2  0
  4  6  1  0
  6  7  2  0
  7  8  1  0
  7  9  1  0
  9 10  1  0
 10 11  1  0
 10 12  2  0
 12 13  1  0
 13 14  1  0
 14 15  2  0
 15 16  1  0
 15 17  1  0
 17 18  1  0
 17 19  2  0
 19 20  1  0
 20 21  2  0
 12 22  1  0
 22 23  2  0
 22 24  1  0
 24 25  1  0
 13  6  1  0
 21 14  1  0
  1 26  1  0
  1 27  1  0
  1 28  1  0
  2 29  1  0
  2 30  1  0
  8 31  1  0
  8 32  1  0
  8 33  1  0
  9 34  1  0
 11 35  1  0
 11 36  1  0
 11 37  1  0
 13 38  1  0
 19 39  1  0
 20 40  1  0
 21 41  1  0
 25 42  1  0
 25 43  1  0
 25 44  1  0
M  END
$$$$
