@<TRIPOS>MOLECULE
*****
 76 79 0 0 0
SMALL
GASTEIGER

@<TRIPOS>ATOM
      1 C          -2.2488    7.3734   -0.3034 C.3     1  UNL1       -0.0048
      2 C          -1.1890    6.3112   -0.3851 C.2     1  UNL1        0.1442
      3 O          -0.0161    6.6410   -0.4216 O.2     1  UNL1       -0.2963
      4 C          -1.5339    4.8698   -0.4225 C.3     1  UNL1        0.0571
      5 N          -0.3588    4.0645   -0.4084 N.3     1  UNL1       -0.2950
      6 C           0.3922    4.0488    0.7944 C.3     1  UNL1        0.0010
      7 C           1.7522    3.4494    0.4942 C.3     1  UNL1       -0.0213
      8 C           1.5547    2.0170    0.0436 C.3     1  UNL1        0.0309
      9 N           2.1372    1.0801    0.9750 N.am    1  UNL1       -0.2959
     10 C           3.2121    0.2483    0.5608 C.2     1  UNL1        0.3056
     11 O           3.6747    0.3146   -0.6289 O.2     1  UNL1       -0.2524
     12 N           3.7820   -0.6687    1.4775 N.am    1  UNL1       -0.2485
     13 C           4.8832   -1.4768    0.9576 C.ar    1  UNL1        0.1664
     14 N           5.5272   -1.6879    0.0271 N.ar    1  UNL1       -0.2291
     15 C           6.5172   -2.5330   -0.1520 C.ar    1  UNL1        0.0580
     16 C           7.2641   -2.6804   -1.4621 C.3     1  UNL1       -0.0211
     17 C           6.8336   -3.2879    0.9558 C.ar    1  UNL1        0.0784
     18 C           7.8320   -4.3102    1.1986 C.2     1  UNL1        0.1685
     19 C           8.7977   -4.7719    0.1928 C.3     1  UNL1       -0.0008
     20 O           7.8556   -4.8278    2.3665 O.2     1  UNL1       -0.2917
     21 S           5.6543   -2.7004    2.1760 S.2     1  UNL1       -0.0489
     22 C           0.0940    1.7156   -0.2211 C.3     1  UNL1        0.0030
     23 C           0.0172    0.3614   -0.8726 C.3     1  UNL1        0.0046
     24 N          -1.3090   -0.0600   -1.1843 N.3     1  UNL1       -0.3017
     25 C          -1.2282   -1.3707   -1.7980 C.3     1  UNL1       -0.0011
     26 C          -1.4284   -2.4894   -0.7770 C.3     1  UNL1       -0.0399
     27 C          -2.8762   -2.5161   -0.3033 C.3     1  UNL1       -0.0476
     28 C          -3.3512   -1.0936   -0.3019 C.3     1  UNL1       -0.0242
     29 C          -4.3986   -0.7934    0.7174 C.3     1  UNL1       -0.0237
     30 C          -5.6290   -1.5904    0.5579 C.ar    1  UNL1       -0.0469
     31 C          -6.6364   -1.1253   -0.2449 C.ar    1  UNL1       -0.0559
     32 C          -7.8153   -1.8045   -0.4434 C.ar    1  UNL1       -0.0262
     33 C          -8.0068   -3.0111    0.1889 C.ar    1  UNL1        0.1234
     34 F          -9.1567   -3.7220    0.0248 F       1  UNL1       -0.2055
     35 C          -7.0038   -3.4895    0.9978 C.ar    1  UNL1       -0.0262
     36 C          -5.8152   -2.7969    1.1930 C.ar    1  UNL1       -0.0559
     37 C          -2.1726   -0.1519   -0.0248 C.3     1  UNL1        0.0020
     38 C          -0.4476    2.8141   -1.0894 C.3     1  UNL1        0.0050
     39 H          -3.2257    6.8673   -0.4444 H       1  UNL1        0.0306
     40 H          -2.1810    7.8831    0.7003 H       1  UNL1        0.0306
     41 H          -2.0465    8.1117   -1.0934 H       1  UNL1        0.0306
     42 H          -2.1636    4.7145   -1.3161 H       1  UNL1        0.0504
     43 H          -2.2078    4.6550    0.4602 H       1  UNL1        0.0504
     44 H          -0.1102    3.5101    1.6266 H       1  UNL1        0.0427
     45 H           0.5626    5.0800    1.1507 H       1  UNL1        0.0427
     46 H           2.4449    3.4987    1.3436 H       1  UNL1        0.0295
     47 H           2.1866    4.0726   -0.3147 H       1  UNL1        0.0295
     48 H           2.0710    1.9241   -0.9433 H       1  UNL1        0.0503
     49 H           1.7921    0.9922    1.9513 H       1  UNL1        0.1505
     50 H           3.4333   -0.7442    2.4338 H       1  UNL1        0.1583
     51 H           7.3955   -3.7209   -1.7485 H       1  UNL1        0.0293
     52 H           8.2041   -2.1168   -1.3755 H       1  UNL1        0.0293
     53 H           6.6848   -2.2032   -2.3033 H       1  UNL1        0.0293
     54 H           9.3078   -3.9490   -0.3494 H       1  UNL1        0.0309
     55 H           8.3028   -5.5090   -0.4830 H       1  UNL1        0.0309
     56 H           9.6258   -5.3157    0.7365 H       1  UNL1        0.0309
     57 H          -0.4259    1.6958    0.7582 H       1  UNL1        0.0343
     58 H           0.5167   -0.3585   -0.1806 H       1  UNL1        0.0430
     59 H           0.6143    0.3269   -1.8076 H       1  UNL1        0.0430
     60 H          -0.2169   -1.4954   -2.2309 H       1  UNL1        0.0426
     61 H          -1.9367   -1.4832   -2.6419 H       1  UNL1        0.0426
     62 H          -0.7173   -2.3916    0.0404 H       1  UNL1        0.0278
     63 H          -1.2505   -3.4363   -1.3133 H       1  UNL1        0.0278
     64 H          -3.5121   -3.0907   -1.0352 H       1  UNL1        0.0269
     65 H          -2.9903   -3.0203    0.6554 H       1  UNL1        0.0269
     66 H          -3.7930   -0.8701   -1.3012 H       1  UNL1        0.0316
     67 H          -4.0001   -0.8816    1.7661 H       1  UNL1        0.0316
     68 H          -4.6800    0.2755    0.5996 H       1  UNL1        0.0316
     69 H          -6.5281   -0.1715   -0.7676 H       1  UNL1        0.0621
     70 H          -8.5885   -1.4169   -1.0785 H       1  UNL1        0.0646
     71 H          -7.1371   -4.4291    1.4984 H       1  UNL1        0.0646
     72 H          -5.0547   -3.1909    1.8283 H       1  UNL1        0.0621
     73 H          -2.6298    0.8478    0.1283 H       1  UNL1        0.0429
     74 H          -1.6623   -0.5453    0.8621 H       1  UNL1        0.0429
     75 H           0.2238    2.8727   -1.9875 H       1  UNL1        0.0430
     76 H          -1.4673    2.6629   -1.4365 H       1  UNL1        0.0430
@<TRIPOS>BOND
     1     1     2    1
     2     2     3    2
     3     2     4    1
     4     4     5    1
     5     5     6    1
     6     6     7    1
     7     7     8    1
     8     8     9    1
     9     9    10   am
    10    10    11    2
    11    10    12   am
    12    12    13    1
    13    13    14   ar
    14    14    15   ar
    15    15    16    1
    16    15    17   ar
    17    17    18    1
    18    18    19    1
    19    18    20    2
    20    17    21   ar
    21     8    22    1
    22    22    23    1
    23    23    24    1
    24    24    25    1
    25    25    26    1
    26    26    27    1
    27    27    28    1
    28    28    29    1
    29    29    30    1
    30    30    31   ar
    31    31    32   ar
    32    32    33   ar
    33    33    34    1
    34    33    35   ar
    35    35    36   ar
    36    28    37    1
    37    22    38    1
    38    38     5    1
    39    21    13   ar
    40    37    24    1
    41    36    30   ar
    42     1    39    1
    43     1    40    1
    44     1    41    1
    45     4    42    1
    46     4    43    1
    47     6    44    1
    48     6    45    1
    49     7    46    1
    50     7    47    1
    51     8    48    1
    52     9    49    1
    53    12    50    1
    54    16    51    1
    55    16    52    1
    56    16    53    1
    57    19    54    1
    58    19    55    1
    59    19    56    1
    60    22    57    1
    61    23    58    1
    62    23    59    1
    63    25    60    1
    64    25    61    1
    65    26    62    1
    66    26    63    1
    67    27    64    1
    68    27    65    1
    69    28    66    1
    70    29    67    1
    71    29    68    1
    72    31    69    1
    73    32    70    1
    74    35    71    1
    75    36    72    1
    76    37    73    1
    77    37    74    1
    78    38    75    1
    79    38    76    1
