@<TRIPOS>MOLECULE
*****
 26 27 0 0 0
SMALL
GASTEIGER

@<TRIPOS>ATOM
      1 O           4.8785    1.2402    0.1438 O.3     1  UNL1        0.0000
      2 B           4.2001   -0.0606    0.1874 B       1  UNL1        0.0000
      3 O           4.8560   -1.2763   -0.2917 O.3     1  UNL1        0.0000
      4 C           2.6351   -0.0444    0.1554 C.ar    1  UNL1        0.0000
      5 C           1.9429   -0.4697    1.2715 C.ar    1  UNL1        0.0000
      6 C           0.5587   -0.4444    1.2145 C.ar    1  UNL1        0.0000
      7 C          -0.1333   -0.0206    0.1106 C.ar    1  UNL1        0.0000
      8 C          -1.6051   -0.0141    0.1038 C.ar    1  UNL1        0.0000
      9 C          -2.2996   -0.2241   -1.0824 C.ar    1  UNL1        0.0000
     10 C          -3.6920   -0.2281   -1.1445 C.ar    1  UNL1        0.0000
     11 C          -4.4100   -0.0169    0.0078 C.ar    1  UNL1        0.0000
     12 C          -3.7286    0.1918    1.1862 C.ar    1  UNL1        0.0000
     13 C          -2.3432    0.1932    1.2339 C.ar    1  UNL1        0.0000
     14 C           0.6114    0.3938   -0.9777 C.ar    1  UNL1        0.0000
     15 C           1.9890    0.3889   -0.9736 C.ar    1  UNL1        0.0000
     16 H           4.2488    1.9918    0.0260 H       1  UNL1        0.0000
     17 H           4.7504   -1.4021   -1.2685 H       1  UNL1        0.0000
     18 H           2.5012   -0.7972    2.1248 H       1  UNL1        0.0000
     19 H           0.0225   -0.7786    2.0915 H       1  UNL1        0.0000
     20 H          -1.7347   -0.3900   -1.9893 H       1  UNL1        0.0000
     21 H          -4.2271   -0.3927   -2.0720 H       1  UNL1        0.0000
     22 H          -5.4798   -0.0154   -0.0150 H       1  UNL1        0.0000
     23 H          -4.2501    0.3630    2.1238 H       1  UNL1        0.0000
     24 H          -1.8457    0.3591    2.1689 H       1  UNL1        0.0000
     25 H           0.0462    0.7325   -1.8592 H       1  UNL1        0.0000
     26 H           2.5081    0.7210   -1.8453 H       1  UNL1        0.0000
@<TRIPOS>BOND
     1     1     2    1
     2     2     3    1
     3     2     4    1
     4     4     5   ar
     5     5     6   ar
     6     6     7   ar
     7     7     8    1
     8     8     9   ar
     9     9    10   ar
    10    10    11   ar
    11    11    12   ar
    12    12    13   ar
    13     7    14   ar
    14    14    15   ar
    15    15     4   ar
    16    13     8   ar
    17     1    16    1
    18     3    17    1
    19     5    18    1
    20     6    19    1
    21     9    20    1
    22    10    21    1
    23    11    22    1
    24    12    23    1
    25    13    24    1
    26    14    25    1
    27    15    26    1
