
     RDKit          3D

 48 51  0  0  0  0  0  0  0  0999 V2000
   -4.3302   -1.4695    0.2866 C   0  0  0  0  0  0  0  0  0  0  0  0
   -2.9712   -2.1367    0.2866 C   0  0  0  0  0  0  0  0  0  0  0  0
   -3.1896   -3.6047    0.5974 C   0  0  0  0  0  0  0  0  0  0  0  0
   -2.0847   -1.5763    1.3867 C   0  0  0  0  0  0  0  0  0  0  0  0
   -1.8692   -0.1500    1.2279 N   0  0  0  0  0  0  0  0  0  0  0  0
   -2.6415    0.8091    1.7559 C   0  0  0  0  0  0  0  0  0  0  0  0
   -2.0945    1.9669    1.3696 N   0  0  0  0  0  0  0  0  0  0  0  0
   -0.9998    1.7747    0.6135 C   0  0  0  0  0  0  0  0  0  0  0  0
   -0.1541    2.7955    0.0213 C   0  0  0  0  0  0  0  0  0  0  0  0
    1.1558    2.9798    0.3990 C   0  0  0  0  0  0  0  0  0  0  0  0
    1.9451    3.9717   -0.1936 C   0  0  0  0  0  0  0  0  0  0  0  0
    1.4272    4.7840   -1.1670 C   0  0  0  0  0  0  0  0  0  0  0  0
    2.2517    5.7235   -1.6957 F   0  0  0  0  0  0  0  0  0  0  0  0
    0.1353    4.6111   -1.5477 C   0  0  0  0  0  0  0  0  0  0  0  0
   -0.6591    3.6232   -0.9609 C   0  0  0  0  0  0  0  0  0  0  0  0
   -0.8440    0.4091    0.5149 C   0  0  0  0  0  0  0  0  0  0  0  0
    0.1949   -0.2798   -0.1997 C   0  0  0  0  0  0  0  0  0  0  0  0
   -0.0142   -0.7940   -1.4552 C   0  0  0  0  0  0  0  0  0  0  0  0
    1.0359   -1.4641   -2.1133 C   0  0  0  0  0  0  0  0  0  0  0  0
    2.2591   -1.5955   -1.4905 C   0  0  0  0  0  0  0  0  0  0  0  0
    3.4337   -2.1587   -1.8289 N   0  0  0  0  0  0  0  0  0  0  0  0
    4.3305   -2.0174   -0.8643 C   0  0  0  0  0  0  0  0  0  0  0  0
    3.7074   -1.3151    0.1794 C   0  0  0  0  0  0  0  0  0  0  0  0
    4.3426   -0.9459    1.4379 C   0  0  0  0  0  0  0  0  0  0  0  0
    3.6190   -0.2380    2.4171 N   0  0  0  0  0  0  0  0  0  0  0  0
    5.5257   -1.2546    1.6516 O   0  0  0  0  0  0  0  0  0  0  0  0
    2.4459   -1.0865   -0.2627 N   0  0  0  0  0  0  0  0  0  0  0  0
    1.4266   -0.4432    0.3612 C   0  0  0  0  0  0  0  0  0  0  0  0
   -5.0723   -2.1098   -0.2307 H   0  0  0  0  0  0  0  0  0  0  0  0
   -4.6528   -1.4123    1.3536 H   0  0  0  0  0  0  0  0  0  0  0  0
   -4.3183   -0.4962   -0.2156 H   0  0  0  0  0  0  0  0  0  0  0  0
   -2.5134   -2.0635   -0.7091 H   0  0  0  0  0  0  0  0  0  0  0  0
   -3.0428   -3.8289    1.6684 H   0  0  0  0  0  0  0  0  0  0  0  0
   -2.4663   -4.2276    0.0368 H   0  0  0  0  0  0  0  0  0  0  0  0
   -4.2134   -3.8914    0.2894 H   0  0  0  0  0  0  0  0  0  0  0  0
   -1.1134   -2.1056    1.3005 H   0  0  0  0  0  0  0  0  0  0  0  0
   -2.5722   -1.7575    2.3466 H   0  0  0  0  0  0  0  0  0  0  0  0
   -3.5308    0.6602    2.3721 H   0  0  0  0  0  0  0  0  0  0  0  0
    1.5473    2.3377    1.1639 H   0  0  0  0  0  0  0  0  0  0  0  0
    2.9701    4.0680    0.1464 H   0  0  0  0  0  0  0  0  0  0  0  0
   -0.2795    5.2479   -2.3143 H   0  0  0  0  0  0  0  0  0  0  0  0
   -1.6884    3.4956   -1.2732 H   0  0  0  0  0  0  0  0  0  0  0  0
   -0.9605   -0.7088   -1.9724 H   0  0  0  0  0  0  0  0  0  0  0  0
    0.8987   -1.8794   -3.1032 H   0  0  0  0  0  0  0  0  0  0  0  0
    5.3723   -2.3525   -0.8125 H   0  0  0  0  0  0  0  0  0  0  0  0
    3.1065   -0.6734    3.2141 H   0  0  0  0  0  0  0  0  0  0  0  0
    3.5676    0.8182    2.3751 H   0  0  0  0  0  0  0  0  0  0  0  0
    1.5774   -0.0395    1.3448 H   0  0  0  0  0  0  0  0  0  0  0  0
  1  2  1  0
  2  3  1  0
  2  4  1  0
  4  5  1  0
  5  6  1  0
  6  7  2  0
  7  8  1  0
  8  9  1  0
  9 10  2  0
 10 11  1  0
 11 12  2  0
 12 13  1  0
 12 14  1  0
 14 15  2  0
  8 16  2  0
 16 17  1  0
 17 18  1  0
 18 19  2  0
 19 20  1  0
 20 21  2  0
 21 22  1  0
 22 23  2  0
 23 24  1  0
 24 25  1  0
 24 26  2  0
 23 27  1  0
 27 28  1  0
 16  5  1  0
 28 17  2  0
 15  9  1  0
 27 20  1  0
  1 29  1  0
  1 30  1  0
  1 31  1  0
  2 32  1  0
  3 33  1  0
  3 34  1  0
  3 35  1  0
  4 36  1  0
  4 37  1  0
  6 38  1  0
 10 39  1  0
 11 40  1  0
 14 41  1  0
 15 42  1  0
 18 43  1  0
 19 44  1  0
 22 45  1  0
 25 46  1  0
 25 47  1  0
 28 48  1  0
M  END
$$$$
