@<TRIPOS>MOLECULE
*****
 48 51 0 0 0
SMALL
GASTEIGER

@<TRIPOS>ATOM
      1 C          -4.3302   -1.4695    0.2866 C.3     1  UNL1       -0.0610
      2 C          -2.9712   -2.1367    0.2866 C.3     1  UNL1       -0.0287
      3 C          -3.1896   -3.6047    0.5974 C.3     1  UNL1       -0.0610
      4 C          -2.0847   -1.5763    1.3867 C.3     1  UNL1        0.0270
      5 N          -1.8692   -0.1500    1.2279 N.ar    1  UNL1       -0.3293
      6 C          -2.6415    0.8091    1.7559 C.ar    1  UNL1        0.0971
      7 N          -2.0945    1.9669    1.3696 N.ar    1  UNL1       -0.2351
      8 C          -0.9998    1.7747    0.6135 C.ar    1  UNL1        0.0967
      9 C          -0.1541    2.7955    0.0213 C.ar    1  UNL1        0.0026
     10 C           1.1558    2.9798    0.3990 C.ar    1  UNL1       -0.0498
     11 C           1.9451    3.9717   -0.1936 C.ar    1  UNL1       -0.0258
     12 C           1.4272    4.7840   -1.1670 C.ar    1  UNL1        0.1234
     13 F           2.2517    5.7235   -1.6957 F       1  UNL1       -0.2055
     14 C           0.1353    4.6111   -1.5477 C.ar    1  UNL1       -0.0258
     15 C          -0.6591    3.6232   -0.9609 C.ar    1  UNL1       -0.0498
     16 C          -0.8440    0.4091    0.5149 C.ar    1  UNL1        0.0778
     17 C           0.1949   -0.2798   -0.1997 C.ar    1  UNL1        0.0173
     18 C          -0.0142   -0.7940   -1.4552 C.ar    1  UNL1       -0.0477
     19 C           1.0359   -1.4641   -2.1133 C.ar    1  UNL1       -0.0182
     20 C           2.2591   -1.5955   -1.4905 C.ar    1  UNL1        0.1381
     21 N           3.4337   -2.1587   -1.8289 N.ar    1  UNL1       -0.2353
     22 C           4.3305   -2.0174   -0.8643 C.ar    1  UNL1        0.0588
     23 C           3.7074   -1.3151    0.1794 C.ar    1  UNL1        0.1280
     24 C           4.3426   -0.9459    1.4379 C.2     1  UNL1        0.2599
     25 N           3.6190   -0.2380    2.4171 N.am    1  UNL1       -0.3241
     26 O           5.5257   -1.2546    1.6516 O.2     1  UNL1       -0.2687
     27 N           2.4459   -1.0865   -0.2627 N.ar    1  UNL1       -0.2949
     28 C           1.4266   -0.4432    0.3612 C.ar    1  UNL1        0.0211
     29 H          -5.0723   -2.1098   -0.2307 H       1  UNL1        0.0233
     30 H          -4.6528   -1.4123    1.3536 H       1  UNL1        0.0233
     31 H          -4.3183   -0.4962   -0.2156 H       1  UNL1        0.0233
     32 H          -2.5134   -2.0635   -0.7091 H       1  UNL1        0.0313
     33 H          -3.0428   -3.8289    1.6684 H       1  UNL1        0.0233
     34 H          -2.4663   -4.2276    0.0368 H       1  UNL1        0.0233
     35 H          -4.2134   -3.8914    0.2894 H       1  UNL1        0.0233
     36 H          -1.1134   -2.1056    1.3005 H       1  UNL1        0.0495
     37 H          -2.5722   -1.7575    2.3466 H       1  UNL1        0.0495
     38 H          -3.5308    0.6602    2.3721 H       1  UNL1        0.1029
     39 H           1.5473    2.3377    1.1639 H       1  UNL1        0.0625
     40 H           2.9701    4.0680    0.1464 H       1  UNL1        0.0646
     41 H          -0.2795    5.2479   -2.3143 H       1  UNL1        0.0646
     42 H          -1.6884    3.4956   -1.2732 H       1  UNL1        0.0625
     43 H          -0.9605   -0.7088   -1.9724 H       1  UNL1        0.0626
     44 H           0.8987   -1.8794   -3.1032 H       1  UNL1        0.0654
     45 H           5.3723   -2.3525   -0.8125 H       1  UNL1        0.0853
     46 H           3.1065   -0.6734    3.2141 H       1  UNL1        0.1453
     47 H           3.5676    0.8182    2.3751 H       1  UNL1        0.1453
     48 H           1.5774   -0.0395    1.3448 H       1  UNL1        0.0820
@<TRIPOS>BOND
     1     1     2    1
     2     2     3    1
     3     2     4    1
     4     4     5    1
     5     5     6   ar
     6     6     7   ar
     7     7     8   ar
     8     8     9    1
     9     9    10   ar
    10    10    11   ar
    11    11    12   ar
    12    12    13    1
    13    12    14   ar
    14    14    15   ar
    15     8    16   ar
    16    16    17    1
    17    17    18   ar
    18    18    19   ar
    19    19    20   ar
    20    20    21   ar
    21    21    22   ar
    22    22    23   ar
    23    23    24    1
    24    24    25   am
    25    24    26    2
    26    23    27   ar
    27    27    28   ar
    28    16     5   ar
    29    28    17   ar
    30    15     9   ar
    31    27    20   ar
    32     1    29    1
    33     1    30    1
    34     1    31    1
    35     2    32    1
    36     3    33    1
    37     3    34    1
    38     3    35    1
    39     4    36    1
    40     4    37    1
    41     6    38    1
    42    10    39    1
    43    11    40    1
    44    14    41    1
    45    15    42    1
    46    18    43    1
    47    19    44    1
    48    22    45    1
    49    25    46    1
    50    25    47    1
    51    28    48    1
