@<TRIPOS>MOLECULE
*****
 42 45 0 0 0
SMALL
GASTEIGER

@<TRIPOS>ATOM
      1 N          -4.2827   -2.5116   -2.3499 N.pl3   1  UNL1       -0.3289
      2 C          -4.1481   -1.2426   -1.7192 C.ar    1  UNL1        0.1952
      3 N          -5.0326   -0.2727   -2.0165 N.ar    1  UNL1       -0.1756
      4 C          -4.9548    0.9586   -1.4462 C.ar    1  UNL1        0.3021
      5 O          -5.7624    1.8823   -1.7019 O.2     1  UNL1       -0.2633
      6 C          -3.9075    1.1044   -0.5594 C.ar    1  UNL1        0.1721
      7 C          -2.9915    0.1211   -0.2428 C.ar    1  UNL1        0.1483
      8 N          -3.1314   -1.0850   -0.8516 N.ar    1  UNL1       -0.3122
      9 N          -2.1052    0.6239    0.6646 N.ar    1  UNL1       -0.2869
     10 C          -2.4542    1.8979    0.9156 C.ar    1  UNL1        0.1004
     11 N          -3.5535    2.1804    0.1647 N.ar    1  UNL1       -0.2286
     12 C          -1.0201   -0.2234    1.1707 C.3     1  UNL1        0.1670
     13 O          -0.3854    0.4529    2.1779 O.3     1  UNL1       -0.3456
     14 C           0.7818    1.0022    1.6901 C.3     1  UNL1        0.1129
     15 C           1.1027    2.3604    2.2274 C.3     1  UNL1        0.0730
     16 O           1.2222    2.2121    3.6248 O.3     1  UNL1       -0.3924
     17 C           0.7541    0.9041    0.1969 C.3     1  UNL1        0.1203
     18 O           1.9539    0.5470   -0.3635 O.3     1  UNL1       -0.3421
     19 C           2.0263   -0.8292   -0.4258 C.3     1  UNL1        0.1712
     20 C           3.3452   -1.3008    0.1968 C.3     1  UNL1        0.1003
     21 P           4.7071   -0.5666   -0.7351 P.3     1  UNL1        0.3327
     22 O           4.7321   -1.0755   -2.3270 O.3     1  UNL1       -0.3239
     23 O           6.1792   -0.9781   -0.0148 O.3     1  UNL1       -0.3239
     24 O           4.5705    0.9236   -0.6701 O.2     1  UNL1       -0.2587
     25 O           0.9336   -1.3335    0.2599 O.3     1  UNL1       -0.3403
     26 C          -0.0440   -0.3973    0.0382 C.3     1  UNL1        0.1353
     27 H          -3.9742   -3.1163   -3.1420 H       1  UNL1        0.1451
     28 H          -4.9415   -3.2403   -1.9449 H       1  UNL1        0.1451
     29 H          -2.4595   -1.8596   -0.6415 H       1  UNL1        0.1700
     30 H          -1.8706    2.4760    1.6151 H       1  UNL1        0.1030
     31 H          -1.3969   -1.2054    1.5285 H       1  UNL1        0.0866
     32 H           1.6096    0.3247    2.0502 H       1  UNL1        0.0647
     33 H           0.4067    3.1530    1.9558 H       1  UNL1        0.0584
     34 H           2.1187    2.6200    1.8429 H       1  UNL1        0.0584
     35 H           1.8881    1.4635    3.7409 H       1  UNL1        0.2095
     36 H           0.2386    1.7546   -0.2739 H       1  UNL1        0.0651
     37 H           2.0197   -1.2078   -1.4710 H       1  UNL1        0.0916
     38 H           3.3706   -2.4166    0.1752 H       1  UNL1        0.0438
     39 H           3.4448   -0.9947    1.2427 H       1  UNL1        0.0438
     40 H           4.6269   -0.3156   -2.9788 H       1  UNL1        0.2198
     41 H           6.9157   -0.7827   -0.6513 H       1  UNL1        0.2198
     42 H          -0.5318   -0.4590   -0.9515 H       1  UNL1        0.0669
@<TRIPOS>BOND
     1     1     2    1
     2     2     3   ar
     3     3     4   ar
     4     4     5    2
     5     4     6   ar
     6     6     7   ar
     7     7     8   ar
     8     7     9   ar
     9     9    10   ar
    10    10    11   ar
    11     9    12    1
    12    12    13    1
    13    13    14    1
    14    14    15    1
    15    15    16    1
    16    14    17    1
    17    17    18    1
    18    18    19    1
    19    19    20    1
    20    20    21    1
    21    21    22    1
    22    21    23    1
    23    21    24    2
    24    19    25    1
    25    25    26    1
    26     8     2   ar
    27    26    12    1
    28    11     6   ar
    29    26    17    1
    30     1    27    1
    31     1    28    1
    32     8    29    1
    33    10    30    1
    34    12    31    1
    35    14    32    1
    36    15    33    1
    37    15    34    1
    38    16    35    1
    39    17    36    1
    40    19    37    1
    41    20    38    1
    42    20    39    1
    43    22    40    1
    44    23    41    1
    45    26    42    1
