
     RDKit          3D

 42 45  0  0  0  0  0  0  0  0999 V2000
   -4.2827   -2.5116   -2.3499 N   0  0  0  0  0  0  0  0  0  0  0  0
   -4.1481   -1.2426   -1.7192 C   0  0  0  0  0  0  0  0  0  0  0  0
   -5.0326   -0.2727   -2.0165 N   0  0  0  0  0  0  0  0  0  0  0  0
   -4.9548    0.9586   -1.4462 C   0  0  0  0  0  0  0  0  0  0  0  0
   -5.7624    1.8823   -1.7019 O   0  0  0  0  0  0  0  0  0  0  0  0
   -3.9075    1.1044   -0.5594 C   0  0  0  0  0  0  0  0  0  0  0  0
   -2.9915    0.1211   -0.2428 C   0  0  0  0  0  0  0  0  0  0  0  0
   -3.1314   -1.0850   -0.8516 N   0  0  0  0  0  0  0  0  0  0  0  0
   -2.1052    0.6239    0.6646 N   0  0  0  0  0  0  0  0  0  0  0  0
   -2.4542    1.8979    0.9156 C   0  0  0  0  0  0  0  0  0  0  0  0
   -3.5535    2.1804    0.1647 N   0  0  0  0  0  0  0  0  0  0  0  0
   -1.0201   -0.2234    1.1707 C   0  0  2  0  0  0  0  0  0  0  0  0
   -0.3854    0.4529    2.1779 O   0  0  0  0  0  0  0  0  0  0  0  0
    0.7818    1.0022    1.6901 C   0  0  2  0  0  0  0  0  0  0  0  0
    1.1027    2.3604    2.2274 C   0  0  0  0  0  0  0  0  0  0  0  0
    1.2222    2.2121    3.6248 O   0  0  0  0  0  0  0  0  0  0  0  0
    0.7541    0.9041    0.1969 C   0  0  1  0  0  0  0  0  0  0  0  0
    1.9539    0.5470   -0.3635 O   0  0  0  0  0  0  0  0  0  0  0  0
    2.0263   -0.8292   -0.4258 C   0  0  1  0  0  0  0  0  0  0  0  0
    3.3452   -1.3008    0.1968 C   0  0  0  0  0  0  0  0  0  0  0  0
    4.7071   -0.5666   -0.7351 P   0  0  0  0  0  0  0  0  0  0  0  0
    4.7321   -1.0755   -2.3270 O   0  0  0  0  0  0  0  0  0  0  0  0
    6.1792   -0.9781   -0.0148 O   0  0  0  0  0  0  0  0  0  0  0  0
    4.5705    0.9236   -0.6701 O   0  0  0  0  0  0  0  0  0  0  0  0
    0.9336   -1.3335    0.2599 O   0  0  0  0  0  0  0  0  0  0  0  0
   -0.0440   -0.3973    0.0382 C   0  0  1  0  0  0  0  0  0  0  0  0
   -3.9742   -3.1163   -3.1420 H   0  0  0  0  0  0  0  0  0  0  0  0
   -4.9415   -3.2403   -1.9449 H   0  0  0  0  0  0  0  0  0  0  0  0
   -2.4595   -1.8596   -0.6415 H   0  0  0  0  0  0  0  0  0  0  0  0
   -1.8706    2.4760    1.6151 H   0  0  0  0  0  0  0  0  0  0  0  0
   -1.3969   -1.2054    1.5285 H   0  0  0  0  0  0  0  0  0  0  0  0
    1.6096    0.3247    2.0502 H   0  0  0  0  0  0  0  0  0  0  0  0
    0.4067    3.1530    1.9558 H   0  0  0  0  0  0  0  0  0  0  0  0
    2.1187    2.6200    1.8429 H   0  0  0  0  0  0  0  0  0  0  0  0
    1.8881    1.4635    3.7409 H   0  0  0  0  0  0  0  0  0  0  0  0
    0.2386    1.7546   -0.2739 H   0  0  0  0  0  0  0  0  0  0  0  0
    2.0197   -1.2078   -1.4710 H   0  0  0  0  0  0  0  0  0  0  0  0
    3.3706   -2.4166    0.1752 H   0  0  0  0  0  0  0  0  0  0  0  0
    3.4448   -0.9947    1.2427 H   0  0  0  0  0  0  0  0  0  0  0  0
    4.6269   -0.3156   -2.9788 H   0  0  0  0  0  0  0  0  0  0  0  0
    6.9157   -0.7827   -0.6513 H   0  0  0  0  0  0  0  0  0  0  0  0
   -0.5318   -0.4590   -0.9515 H   0  0  0  0  0  0  0  0  0  0  0  0
  1  2  1  0
  2  3  2  0
  3  4  1  0
  4  5  2  0
  4  6  1  0
  6  7  2  0
  7  8  1  0
  7  9  1  0
  9 10  1  0
 10 11  2  0
  9 12  1  0
 12 13  1  0
 13 14  1  0
 14 15  1  0
 15 16  1  0
 14 17  1  0
 17 18  1  0
 18 19  1  0
 19 20  1  0
 20 21  1  0
 21 22  1  0
 21 23  1  0
 21 24  2  0
 19 25  1  0
 25 26  1  0
  8  2  1  0
 26 12  1  0
 11  6  1  0
 26 17  1  0
  1 27  1  0
  1 28  1  0
  8 29  1  0
 10 30  1  0
 12 31  1  1
 14 32  1  1
 15 33  1  0
 15 34  1  0
 16 35  1  0
 17 36  1  6
 19 37  1  6
 20 38  1  0
 20 39  1  0
 22 40  1  0
 23 41  1  0
 26 42  1  6
M  END
$$$$
