
     RDKit          3D

 54 54  0  0  0  0  0  0  0  0999 V2000
   -5.1119    0.4995    1.0799 C   0  0  1  0  0  0  0  0  0  0  0  0
   -4.8843    1.5851    1.9295 O   0  0  0  0  0  0  0  0  0  0  0  0
   -5.4524    0.9118   -0.3088 C   0  0  1  0  0  0  0  0  0  0  0  0
   -5.4760    2.2968   -0.4741 O   0  0  0  0  0  0  0  0  0  0  0  0
   -4.5950    0.2232   -1.3151 C   0  0  1  0  0  0  0  0  0  0  0  0
   -4.9270    0.8714   -2.6688 C   0  0  0  0  0  0  0  0  0  0  0  0
   -4.2813    0.2292   -3.6989 O   0  0  0  0  0  0  0  0  0  0  0  0
   -3.2405    0.2913   -1.0964 O   0  0  0  0  0  0  0  0  0  0  0  0
   -2.8188   -0.0396    0.1670 C   0  0  1  0  0  0  0  0  0  0  0  0
   -2.0544    1.0104    0.6296 O   0  0  0  0  0  0  0  0  0  0  0  0
   -0.7137    0.6970    0.8442 C   0  0  0  0  0  0  0  0  0  0  0  0
   -0.0067    0.2380   -0.3823 C   0  0  0  0  0  0  0  0  0  0  0  0
    1.4337   -0.0631   -0.0508 C   0  0  0  0  0  0  0  0  0  0  0  0
    1.6377   -1.1228    0.9744 C   0  0  0  0  0  0  0  0  0  0  0  0
    3.1041   -1.3924    1.2673 C   0  0  0  0  0  0  0  0  0  0  0  0
    3.8777   -1.8490    0.0601 C   0  0  0  0  0  0  0  0  0  0  0  0
    5.3381   -2.1097    0.4040 C   0  0  0  0  0  0  0  0  0  0  0  0
    5.9973   -0.8437    0.9268 C   0  0  0  0  0  0  0  0  0  0  0  0
    5.9667    0.2489   -0.0702 C   0  0  0  0  0  0  0  0  0  0  0  0
    6.7809    0.3809   -1.0325 O   0  0  0  0  0  0  0  0  0  0  0  0
    5.1358    1.3390   -0.2420 O   0  0  0  0  0  0  0  0  0  0  0  0
    5.3539    2.2456   -1.3177 C   0  0  0  0  0  0  0  0  0  0  0  0
   -3.9347   -0.4153    1.0969 C   0  0  2  0  0  0  0  0  0  0  0  0
   -4.3503   -1.7155    0.7419 O   0  0  0  0  0  0  0  0  0  0  0  0
   -5.9815   -0.0406    1.5398 H   0  0  0  0  0  0  0  0  0  0  0  0
   -3.9165    1.8528    1.8224 H   0  0  0  0  0  0  0  0  0  0  0  0
   -6.5090    0.5884   -0.5328 H   0  0  0  0  0  0  0  0  0  0  0  0
   -5.8542    2.6709    0.3775 H   0  0  0  0  0  0  0  0  0  0  0  0
   -4.8884   -0.8497   -1.3544 H   0  0  0  0  0  0  0  0  0  0  0  0
   -4.5910    1.9382   -2.5579 H   0  0  0  0  0  0  0  0  0  0  0  0
   -6.0134    0.9154   -2.7959 H   0  0  0  0  0  0  0  0  0  0  0  0
   -4.9024   -0.4277   -4.0863 H   0  0  0  0  0  0  0  0  0  0  0  0
   -2.2141   -0.9872    0.0451 H   0  0  0  0  0  0  0  0  0  0  0  0
   -0.2188    1.6301    1.1781 H   0  0  0  0  0  0  0  0  0  0  0  0
   -0.6142   -0.0317    1.6693 H   0  0  0  0  0  0  0  0  0  0  0  0
    0.0012    0.9997   -1.1951 H   0  0  0  0  0  0  0  0  0  0  0  0
   -0.4186   -0.6761   -0.8538 H   0  0  0  0  0  0  0  0  0  0  0  0
    1.9676   -0.3774   -0.9885 H   0  0  0  0  0  0  0  0  0  0  0  0
    1.9313    0.8744    0.3253 H   0  0  0  0  0  0  0  0  0  0  0  0
    1.1968   -2.0945    0.6624 H   0  0  0  0  0  0  0  0  0  0  0  0
    1.2167   -0.7891    1.9654 H   0  0  0  0  0  0  0  0  0  0  0  0
    3.1120   -2.2285    2.0030 H   0  0  0  0  0  0  0  0  0  0  0  0
    3.5584   -0.5183    1.7499 H   0  0  0  0  0  0  0  0  0  0  0  0
    3.8745   -1.0276   -0.6931 H   0  0  0  0  0  0  0  0  0  0  0  0
    3.4285   -2.7436   -0.4046 H   0  0  0  0  0  0  0  0  0  0  0  0
    5.8786   -2.3518   -0.5332 H   0  0  0  0  0  0  0  0  0  0  0  0
    5.4423   -2.9042    1.1521 H   0  0  0  0  0  0  0  0  0  0  0  0
    5.5875   -0.5016    1.8862 H   0  0  0  0  0  0  0  0  0  0  0  0
    7.0811   -1.0494    1.1403 H   0  0  0  0  0  0  0  0  0  0  0  0
    4.9149    1.8154   -2.2335 H   0  0  0  0  0  0  0  0  0  0  0  0
    6.4361    2.4569   -1.4540 H   0  0  0  0  0  0  0  0  0  0  0  0
    4.8355    3.2038   -1.0875 H   0  0  0  0  0  0  0  0  0  0  0  0
   -3.5223   -0.5191    2.1242 H   0  0  0  0  0  0  0  0  0  0  0  0
   -3.5976   -2.3447    0.6409 H   0  0  0  0  0  0  0  0  0  0  0  0
  1  2  1  0
  1  3  1  0
  3  4  1  0
  3  5  1  0
  5  6  1  0
  6  7  1  0
  5  8  1  0
  8  9  1  0
  9 10  1  0
 10 11  1  0
 11 12  1  0
 12 13  1  0
 13 14  1  0
 14 15  1  0
 15 16  1  0
 16 17  1  0
 17 18  1  0
 18 19  1  0
 19 20  2  0
 19 21  1  0
 21 22  1  0
  9 23  1  0
 23 24  1  0
 23  1  1  0
  1 25  1  1
  2 26  1  0
  3 27  1  6
  4 28  1  0
  5 29  1  6
  6 30  1  0
  6 31  1  0
  7 32  1  0
  9 33  1  6
 11 34  1  0
 11 35  1  0
 12 36  1  0
 12 37  1  0
 13 38  1  0
 13 39  1  0
 14 40  1  0
 14 41  1  0
 15 42  1  0
 15 43  1  0
 16 44  1  0
 16 45  1  0
 17 46  1  0
 17 47  1  0
 18 48  1  0
 18 49  1  0
 22 50  1  0
 22 51  1  0
 22 52  1  0
 23 53  1  1
 24 54  1  0
M  END
$$$$
