@<TRIPOS>MOLECULE
*****
 54 54 0 0 0
SMALL
GASTEIGER

@<TRIPOS>ATOM
      1 C          -5.1119    0.4995    1.0799 C.3     1  UNL1        0.1141
      2 O          -4.8843    1.5851    1.9295 O.3     1  UNL1       -0.3864
      3 C          -5.4524    0.9118   -0.3088 C.3     1  UNL1        0.1119
      4 O          -5.4760    2.2968   -0.4741 O.3     1  UNL1       -0.3865
      5 C          -4.5950    0.2232   -1.3151 C.3     1  UNL1        0.1130
      6 C          -4.9270    0.8714   -2.6688 C.3     1  UNL1        0.0730
      7 O          -4.2813    0.2292   -3.6989 O.3     1  UNL1       -0.3924
      8 O          -3.2405    0.2913   -1.0964 O.3     1  UNL1       -0.3405
      9 C          -2.8188   -0.0396    0.1670 C.3     1  UNL1        0.1879
     10 O          -2.0544    1.0104    0.6296 O.3     1  UNL1       -0.3487
     11 C          -0.7137    0.6970    0.8442 C.3     1  UNL1        0.0508
     12 C          -0.0067    0.2380   -0.3823 C.3     1  UNL1       -0.0294
     13 C           1.4337   -0.0631   -0.0508 C.3     1  UNL1       -0.0510
     14 C           1.6377   -1.1228    0.9744 C.3     1  UNL1       -0.0530
     15 C           3.1041   -1.3924    1.2673 C.3     1  UNL1       -0.0530
     16 C           3.8777   -1.8490    0.0601 C.3     1  UNL1       -0.0526
     17 C           5.3381   -2.1097    0.4040 C.3     1  UNL1       -0.0430
     18 C           5.9973   -0.8437    0.9268 C.3     1  UNL1        0.0449
     19 C           5.9667    0.2489   -0.0702 C.2     1  UNL1        0.3068
     20 O           6.7809    0.3809   -1.0325 O.2     1  UNL1       -0.2509
     21 O           5.1358    1.3390   -0.2420 O.3     1  UNL1       -0.4679
     22 C           5.3539    2.2456   -1.3177 C.3     1  UNL1        0.0817
     23 C          -3.9347   -0.4153    1.0969 C.3     1  UNL1        0.1341
     24 O          -4.3503   -1.7155    0.7419 O.3     1  UNL1       -0.3841
     25 H          -5.9815   -0.0406    1.5398 H       1  UNL1        0.0648
     26 H          -3.9165    1.8528    1.8224 H       1  UNL1        0.2100
     27 H          -6.5090    0.5884   -0.5328 H       1  UNL1        0.0647
     28 H          -5.8542    2.6709    0.3775 H       1  UNL1        0.2100
     29 H          -4.8884   -0.8497   -1.3544 H       1  UNL1        0.0647
     30 H          -4.5910    1.9382   -2.5579 H       1  UNL1        0.0584
     31 H          -6.0134    0.9154   -2.7959 H       1  UNL1        0.0584
     32 H          -4.9024   -0.4277   -4.0863 H       1  UNL1        0.2095
     33 H          -2.2141   -0.9872    0.0451 H       1  UNL1        0.0937
     34 H          -0.2188    1.6301    1.1781 H       1  UNL1        0.0561
     35 H          -0.6142   -0.0317    1.6693 H       1  UNL1        0.0561
     36 H           0.0012    0.9997   -1.1951 H       1  UNL1        0.0287
     37 H          -0.4186   -0.6761   -0.8538 H       1  UNL1        0.0287
     38 H           1.9676   -0.3774   -0.9885 H       1  UNL1        0.0266
     39 H           1.9313    0.8744    0.3253 H       1  UNL1        0.0266
     40 H           1.1968   -2.0945    0.6624 H       1  UNL1        0.0265
     41 H           1.2167   -0.7891    1.9654 H       1  UNL1        0.0265
     42 H           3.1120   -2.2285    2.0030 H       1  UNL1        0.0265
     43 H           3.5584   -0.5183    1.7499 H       1  UNL1        0.0265
     44 H           3.8745   -1.0276   -0.6931 H       1  UNL1        0.0265
     45 H           3.4285   -2.7436   -0.4046 H       1  UNL1        0.0265
     46 H           5.8786   -2.3518   -0.5332 H       1  UNL1        0.0270
     47 H           5.4423   -2.9042    1.1521 H       1  UNL1        0.0270
     48 H           5.5875   -0.5016    1.8862 H       1  UNL1        0.0377
     49 H           7.0811   -1.0494    1.1403 H       1  UNL1        0.0377
     50 H           4.9149    1.8154   -2.2335 H       1  UNL1        0.0661
     51 H           6.4361    2.4569   -1.4540 H       1  UNL1        0.0661
     52 H           4.8355    3.2038   -1.0875 H       1  UNL1        0.0661
     53 H          -3.5223   -0.5191    2.1242 H       1  UNL1        0.0671
     54 H          -3.5976   -2.3447    0.6409 H       1  UNL1        0.2101
@<TRIPOS>BOND
     1     1     2    1
     2     1     3    1
     3     3     4    1
     4     3     5    1
     5     5     6    1
     6     6     7    1
     7     5     8    1
     8     8     9    1
     9     9    10    1
    10    10    11    1
    11    11    12    1
    12    12    13    1
    13    13    14    1
    14    14    15    1
    15    15    16    1
    16    16    17    1
    17    17    18    1
    18    18    19    1
    19    19    20    2
    20    19    21    1
    21    21    22    1
    22     9    23    1
    23    23    24    1
    24    23     1    1
    25     1    25    1
    26     2    26    1
    27     3    27    1
    28     4    28    1
    29     5    29    1
    30     6    30    1
    31     6    31    1
    32     7    32    1
    33     9    33    1
    34    11    34    1
    35    11    35    1
    36    12    36    1
    37    12    37    1
    38    13    38    1
    39    13    39    1
    40    14    40    1
    41    14    41    1
    42    15    42    1
    43    15    43    1
    44    16    44    1
    45    16    45    1
    46    17    46    1
    47    17    47    1
    48    18    48    1
    49    18    49    1
    50    22    50    1
    51    22    51    1
    52    22    52    1
    53    23    53    1
    54    24    54    1
