@<TRIPOS>MOLECULE
*****
 49 53 0 0 0
SMALL
GASTEIGER

@<TRIPOS>ATOM
      1 C           7.5238   -1.0430   -2.1099 C.3     1  UNL1       -0.0281
      2 C           6.7123    0.0406   -1.4069 C.3     1  UNL1        0.0946
      3 C           7.6361    1.1687   -0.9591 C.3     1  UNL1       -0.0281
      4 O           6.0668   -0.4310   -0.2803 O.3     1  UNL1       -0.4894
      5 C           4.7064   -0.3704   -0.0768 C.ar    1  UNL1        0.1209
      6 C           4.1631   -0.8876    1.1158 C.ar    1  UNL1       -0.0194
      7 C           2.8224   -0.8673    1.3975 C.ar    1  UNL1       -0.0505
      8 C           1.9536   -0.3294    0.5031 C.ar    1  UNL1       -0.0148
      9 C           0.5169   -0.2863    0.7584 C.ar    1  UNL1        0.0184
     10 C          -0.2570    0.7352    0.2546 C.ar    1  UNL1        0.0391
     11 N          -1.5730    0.7307    0.5153 N.ar    1  UNL1       -0.2350
     12 C          -2.2017   -0.2000    1.2354 C.ar    1  UNL1        0.1632
     13 C          -3.5210   -0.3606    1.5965 C.ar    1  UNL1        0.0467
     14 C          -4.6584    0.4919    1.2728 C.ar    1  UNL1       -0.0022
     15 C          -5.0659    1.5491    2.0606 C.ar    1  UNL1       -0.0351
     16 C          -6.1520    2.3352    1.7184 C.ar    1  UNL1        0.0288
     17 N          -6.8428    2.0745    0.5865 N.ar    1  UNL1       -0.2549
     18 C          -6.4831    1.0579   -0.2093 C.ar    1  UNL1        0.0715
     19 C          -7.1899    0.7999   -1.3564 C.ar    1  UNL1       -0.0357
     20 C          -6.8186   -0.2469   -2.1745 C.ar    1  UNL1       -0.0597
     21 C          -5.7389   -1.0276   -1.8337 C.ar    1  UNL1       -0.0611
     22 C          -5.0059   -0.7998   -0.6916 C.ar    1  UNL1       -0.0520
     23 C          -5.3888    0.2592    0.1274 C.ar    1  UNL1        0.0082
     24 C          -3.5256   -1.5365    2.3517 C.ar    1  UNL1        0.0597
     25 N          -2.2766   -1.9968    2.4026 N.ar    1  UNL1       -0.1727
     26 N          -1.4393   -1.2074    1.7324 N.ar    1  UNL1       -0.2206
     27 C          -0.1153   -1.2575    1.5052 C.ar    1  UNL1        0.0406
     28 C           2.4398    0.1820   -0.6636 C.ar    1  UNL1       -0.0505
     29 C           3.8039    0.1683   -0.9646 C.ar    1  UNL1       -0.0194
     30 H           6.8413   -1.7330   -2.6071 H       1  UNL1        0.0265
     31 H           8.2400   -0.5292   -2.7527 H       1  UNL1        0.0265
     32 H           8.0861   -1.5961   -1.3257 H       1  UNL1        0.0265
     33 H           6.0589    0.4804   -2.1686 H       1  UNL1        0.0727
     34 H           8.1705    0.8298   -0.0717 H       1  UNL1        0.0265
     35 H           6.9520    2.0143   -0.6658 H       1  UNL1        0.0265
     36 H           8.2705    1.5259   -1.7844 H       1  UNL1        0.0265
     37 H           4.8568   -1.3062    1.8083 H       1  UNL1        0.0654
     38 H           2.4323   -1.2737    2.3262 H       1  UNL1        0.0625
     39 H           0.1417    1.5330   -0.3353 H       1  UNL1        0.0837
     40 H          -4.5235    1.7686    2.9670 H       1  UNL1        0.0639
     41 H          -6.4929    3.1697    2.3175 H       1  UNL1        0.0830
     42 H          -8.0268    1.4382   -1.5804 H       1  UNL1        0.0639
     43 H          -7.4169   -0.4032   -3.0707 H       1  UNL1        0.0618
     44 H          -5.4651   -1.8403   -2.4856 H       1  UNL1        0.0618
     45 H          -4.1624   -1.3949   -0.4085 H       1  UNL1        0.0624
     46 H          -4.3873   -1.9893    2.8108 H       1  UNL1        0.0855
     47 H           0.4310   -2.0775    1.9244 H       1  UNL1        0.0837
     48 H           1.7699    0.6210   -1.4028 H       1  UNL1        0.0625
     49 H           4.1327    0.5865   -1.9023 H       1  UNL1        0.0654
@<TRIPOS>BOND
     1     1     2    1
     2     2     3    1
     3     2     4    1
     4     4     5    1
     5     5     6   ar
     6     6     7   ar
     7     7     8   ar
     8     8     9    1
     9     9    10   ar
    10    10    11   ar
    11    11    12   ar
    12    12    13   ar
    13    13    14    1
    14    14    15   ar
    15    15    16   ar
    16    16    17   ar
    17    17    18   ar
    18    18    19   ar
    19    19    20   ar
    20    20    21   ar
    21    21    22   ar
    22    22    23   ar
    23    13    24   ar
    24    24    25   ar
    25    25    26   ar
    26    26    27   ar
    27     8    28   ar
    28    28    29   ar
    29    29     5   ar
    30    27     9   ar
    31    26    12   ar
    32    23    14   ar
    33    23    18   ar
    34     1    30    1
    35     1    31    1
    36     1    32    1
    37     2    33    1
    38     3    34    1
    39     3    35    1
    40     3    36    1
    41     6    37    1
    42     7    38    1
    43    10    39    1
    44    15    40    1
    45    16    41    1
    46    19    42    1
    47    20    43    1
    48    21    44    1
    49    22    45    1
    50    24    46    1
    51    27    47    1
    52    28    48    1
    53    29    49    1
