
     RDKit          3D

 29 30  0  0  0  0  0  0  0  0999 V2000
   -6.1105    0.4641   -0.1690 O   0  0  0  0  0  0  0  0  0  0  0  0
   -4.7226    0.4566   -0.0654 C   0  0  0  0  0  0  0  0  0  0  0  0
   -3.9824   -0.6172   -0.5124 C   0  0  0  0  0  0  0  0  0  0  0  0
   -2.5942   -0.6520   -0.4215 C   0  0  0  0  0  0  0  0  0  0  0  0
   -1.9671    0.4347    0.1370 C   0  0  0  0  0  0  0  0  0  0  0  0
   -0.5139    0.4639    0.2629 C   0  0  0  0  0  0  0  0  0  0  0  0
    0.2901   -0.4963   -0.1258 C   0  0  0  0  0  0  0  0  0  0  0  0
    1.7295   -0.3950    0.0329 C   0  0  0  0  0  0  0  0  0  0  0  0
    2.3470    0.6907    0.5902 C   0  0  0  0  0  0  0  0  0  0  0  0
    3.7402    0.7634    0.7318 C   0  0  0  0  0  0  0  0  0  0  0  0
    4.3552    1.8586    1.2935 O   0  0  0  0  0  0  0  0  0  0  0  0
    4.4989   -0.2940    0.2939 C   0  0  0  0  0  0  0  0  0  0  0  0
    3.8882   -1.4014   -0.2732 C   0  0  0  0  0  0  0  0  0  0  0  0
    4.6417   -2.4842   -0.7235 O   0  0  0  0  0  0  0  0  0  0  0  0
    2.5075   -1.4479   -0.4015 C   0  0  0  0  0  0  0  0  0  0  0  0
   -2.6988    1.5271    0.5934 C   0  0  0  0  0  0  0  0  0  0  0  0
   -4.0687    1.5381    0.4927 C   0  0  0  0  0  0  0  0  0  0  0  0
   -6.7071   -0.0836    0.4457 H   0  0  0  0  0  0  0  0  0  0  0  0
   -4.4884   -1.4739   -0.9536 H   0  0  0  0  0  0  0  0  0  0  0  0
   -2.0912   -1.5322   -0.7959 H   0  0  0  0  0  0  0  0  0  0  0  0
   -0.0854    1.3697    0.7212 H   0  0  0  0  0  0  0  0  0  0  0  0
   -0.1599   -1.3848   -0.5777 H   0  0  0  0  0  0  0  0  0  0  0  0
    1.8234    1.5539    0.9552 H   0  0  0  0  0  0  0  0  0  0  0  0
    5.0878    2.3731    0.8197 H   0  0  0  0  0  0  0  0  0  0  0  0
    5.5849   -0.2943    0.3775 H   0  0  0  0  0  0  0  0  0  0  0  0
    4.5037   -3.4334   -0.3710 H   0  0  0  0  0  0  0  0  0  0  0  0
    2.0177   -2.3050   -0.8417 H   0  0  0  0  0  0  0  0  0  0  0  0
   -2.2043    2.3939    1.0384 H   0  0  0  0  0  0  0  0  0  0  0  0
   -4.6214    2.4076    0.8582 H   0  0  0  0  0  0  0  0  0  0  0  0
  1  2  1  0
  2  3  2  0
  3  4  1  0
  4  5  2  0
  5  6  1  0
  6  7  2  0
  7  8  1  0
  8  9  2  0
  9 10  1  0
 10 11  1  0
 10 12  2  0
 12 13  1  0
 13 14  1  0
 13 15  2  0
  5 16  1  0
 16 17  2  0
 17  2  1  0
 15  8  1  0
  1 18  1  0
  3 19  1  0
  4 20  1  0
  6 21  1  0
  7 22  1  0
  9 23  1  0
 11 24  1  0
 12 25  1  0
 14 26  1  0
 15 27  1  0
 16 28  1  0
 17 29  1  0
M  END
$$$$
