@<TRIPOS>MOLECULE
*****
 29 30 0 0 0
SMALL
GASTEIGER

@<TRIPOS>ATOM
      1 O          -6.1105    0.4641   -0.1690 O.3     1  UNL1       -0.5068
      2 C          -4.7226    0.4566   -0.0654 C.ar    1  UNL1        0.1169
      3 C          -3.9824   -0.6172   -0.5124 C.ar    1  UNL1       -0.0196
      4 C          -2.5942   -0.6520   -0.4215 C.ar    1  UNL1       -0.0511
      5 C          -1.9671    0.4347    0.1370 C.ar    1  UNL1       -0.0248
      6 C          -0.5139    0.4639    0.2629 C.2     1  UNL1       -0.0540
      7 C           0.2901   -0.4963   -0.1258 C.2     1  UNL1       -0.0538
      8 C           1.7295   -0.3950    0.0329 C.ar    1  UNL1       -0.0181
      9 C           2.3470    0.6907    0.5902 C.ar    1  UNL1       -0.0128
     10 C           3.7402    0.7634    0.7318 C.ar    1  UNL1        0.1209
     11 O           4.3552    1.8586    1.2935 O.3     1  UNL1       -0.5066
     12 C           4.4989   -0.2940    0.2939 C.ar    1  UNL1        0.0213
     13 C           3.8882   -1.4014   -0.2732 C.ar    1  UNL1        0.1209
     14 O           4.6417   -2.4842   -0.7235 O.3     1  UNL1       -0.5066
     15 C           2.5075   -1.4479   -0.4015 C.ar    1  UNL1       -0.0128
     16 C          -2.6988    1.5271    0.5934 C.ar    1  UNL1       -0.0511
     17 C          -4.0687    1.5381    0.4927 C.ar    1  UNL1       -0.0196
     18 H          -6.7071   -0.0836    0.4457 H       1  UNL1        0.2921
     19 H          -4.4884   -1.4739   -0.9536 H       1  UNL1        0.0654
     20 H          -2.0912   -1.5322   -0.7959 H       1  UNL1        0.0625
     21 H          -0.0854    1.3697    0.7212 H       1  UNL1        0.0624
     22 H          -0.1599   -1.3848   -0.5777 H       1  UNL1        0.0624
     23 H           1.8234    1.5539    0.9552 H       1  UNL1        0.0660
     24 H           5.0878    2.3731    0.8197 H       1  UNL1        0.2921
     25 H           5.5849   -0.2943    0.3775 H       1  UNL1        0.0691
     26 H           4.5037   -3.4334   -0.3710 H       1  UNL1        0.2921
     27 H           2.0177   -2.3050   -0.8417 H       1  UNL1        0.0660
     28 H          -2.2043    2.3939    1.0384 H       1  UNL1        0.0625
     29 H          -4.6214    2.4076    0.8582 H       1  UNL1        0.0654
@<TRIPOS>BOND
     1     1     2    1
     2     2     3   ar
     3     3     4   ar
     4     4     5   ar
     5     5     6    1
     6     6     7    2
     7     7     8    1
     8     8     9   ar
     9     9    10   ar
    10    10    11    1
    11    10    12   ar
    12    12    13   ar
    13    13    14    1
    14    13    15   ar
    15     5    16   ar
    16    16    17   ar
    17    17     2   ar
    18    15     8   ar
    19     1    18    1
    20     3    19    1
    21     4    20    1
    22     6    21    1
    23     7    22    1
    24     9    23    1
    25    11    24    1
    26    12    25    1
    27    14    26    1
    28    15    27    1
    29    16    28    1
    30    17    29    1
