@<TRIPOS>MOLECULE
*****
 28 30 0 0 0
SMALL
GASTEIGER

@<TRIPOS>ATOM
      1 C          -5.0532    0.6380    0.4791 C.3     1  UNL1        0.0788
      2 O          -3.7906    1.2765    0.4485 O.3     1  UNL1       -0.4950
      3 C          -2.6505    0.4957    0.3281 C.ar    1  UNL1        0.1221
      4 C          -2.5144   -0.8736    0.2265 C.ar    1  UNL1       -0.0192
      5 C          -1.2547   -1.4212    0.1150 C.ar    1  UNL1       -0.0485
      6 C          -0.1262   -0.6276    0.1029 C.ar    1  UNL1        0.0077
      7 C          -0.2390    0.7276    0.2022 C.ar    1  UNL1        0.0510
      8 N           1.0172    1.2110    0.1614 N.ar    1  UNL1       -0.3526
      9 C           1.8886    0.2013    0.0411 C.ar    1  UNL1        0.0688
     10 C           1.2121   -1.0177   -0.0025 C.ar    1  UNL1        0.0106
     11 C           1.9114   -2.2008   -0.1245 C.ar    1  UNL1       -0.0338
     12 C           3.2929   -2.1252   -0.2005 C.ar    1  UNL1        0.0286
     13 N           3.9566   -0.9434   -0.1587 N.ar    1  UNL1       -0.2581
     14 C           3.2681    0.2288   -0.0381 C.ar    1  UNL1        0.0620
     15 C           4.0073    1.5230    0.0070 C.3     1  UNL1       -0.0203
     16 C          -1.5055    1.2960    0.3155 C.ar    1  UNL1        0.0040
     17 H          -5.7948    1.2804    0.9997 H       1  UNL1        0.0660
     18 H          -5.0075   -0.3090    1.0454 H       1  UNL1        0.0660
     19 H          -5.4196    0.5187   -0.5663 H       1  UNL1        0.0660
     20 H          -3.4678   -1.3838    0.2476 H       1  UNL1        0.0654
     21 H          -1.2185   -2.5006    0.0390 H       1  UNL1        0.0625
     22 H           1.2767    2.2215    0.2153 H       1  UNL1        0.1660
     23 H           1.3476   -3.1161   -0.1539 H       1  UNL1        0.0639
     24 H           3.8610   -3.0429   -0.2967 H       1  UNL1        0.0830
     25 H           4.9923    1.4591   -0.4814 H       1  UNL1        0.0293
     26 H           3.3780    2.3317   -0.4500 H       1  UNL1        0.0293
     27 H           4.1112    1.7612    1.0869 H       1  UNL1        0.0293
     28 H          -1.4786    2.3914    0.3889 H       1  UNL1        0.0675
@<TRIPOS>BOND
     1     1     2    1
     2     2     3    1
     3     3     4   ar
     4     4     5   ar
     5     5     6   ar
     6     6     7   ar
     7     7     8   ar
     8     8     9   ar
     9     9    10   ar
    10    10    11   ar
    11    11    12   ar
    12    12    13   ar
    13    13    14   ar
    14    14    15    1
    15     7    16   ar
    16    16     3   ar
    17    10     6   ar
    18    14     9   ar
    19     1    17    1
    20     1    18    1
    21     1    19    1
    22     4    20    1
    23     5    21    1
    24     8    22    1
    25    11    23    1
    26    12    24    1
    27    15    25    1
    28    15    26    1
    29    15    27    1
    30    16    28    1
