
     RDKit          3D

 28 30  0  0  0  0  0  0  0  0999 V2000
   -5.0532    0.6380    0.4791 C   0  0  0  0  0  0  0  0  0  0  0  0
   -3.7906    1.2765    0.4485 O   0  0  0  0  0  0  0  0  0  0  0  0
   -2.6505    0.4957    0.3281 C   0  0  0  0  0  0  0  0  0  0  0  0
   -2.5144   -0.8736    0.2265 C   0  0  0  0  0  0  0  0  0  0  0  0
   -1.2547   -1.4212    0.1150 C   0  0  0  0  0  0  0  0  0  0  0  0
   -0.1262   -0.6276    0.1029 C   0  0  0  0  0  0  0  0  0  0  0  0
   -0.2390    0.7276    0.2022 C   0  0  0  0  0  0  0  0  0  0  0  0
    1.0172    1.2110    0.1614 N   0  0  0  0  0  0  0  0  0  0  0  0
    1.8886    0.2013    0.0411 C   0  0  0  0  0  0  0  0  0  0  0  0
    1.2121   -1.0177   -0.0025 C   0  0  0  0  0  0  0  0  0  0  0  0
    1.9114   -2.2008   -0.1245 C   0  0  0  0  0  0  0  0  0  0  0  0
    3.2929   -2.1252   -0.2005 C   0  0  0  0  0  0  0  0  0  0  0  0
    3.9566   -0.9434   -0.1587 N   0  0  0  0  0  0  0  0  0  0  0  0
    3.2681    0.2288   -0.0381 C   0  0  0  0  0  0  0  0  0  0  0  0
    4.0073    1.5230    0.0070 C   0  0  0  0  0  0  0  0  0  0  0  0
   -1.5055    1.2960    0.3155 C   0  0  0  0  0  0  0  0  0  0  0  0
   -5.7948    1.2804    0.9997 H   0  0  0  0  0  0  0  0  0  0  0  0
   -5.0075   -0.3090    1.0454 H   0  0  0  0  0  0  0  0  0  0  0  0
   -5.4196    0.5187   -0.5663 H   0  0  0  0  0  0  0  0  0  0  0  0
   -3.4678   -1.3838    0.2476 H   0  0  0  0  0  0  0  0  0  0  0  0
   -1.2185   -2.5006    0.0390 H   0  0  0  0  0  0  0  0  0  0  0  0
    1.2767    2.2215    0.2153 H   0  0  0  0  0  0  0  0  0  0  0  0
    1.3476   -3.1161   -0.1539 H   0  0  0  0  0  0  0  0  0  0  0  0
    3.8610   -3.0429   -0.2967 H   0  0  0  0  0  0  0  0  0  0  0  0
    4.9923    1.4591   -0.4814 H   0  0  0  0  0  0  0  0  0  0  0  0
    3.3780    2.3317   -0.4500 H   0  0  0  0  0  0  0  0  0  0  0  0
    4.1112    1.7612    1.0869 H   0  0  0  0  0  0  0  0  0  0  0  0
   -1.4786    2.3914    0.3889 H   0  0  0  0  0  0  0  0  0  0  0  0
  1  2  1  0
  2  3  1  0
  3  4  2  0
  4  5  1  0
  5  6  2  0
  6  7  1  0
  7  8  1  0
  8  9  1  0
  9 10  2  0
 10 11  1  0
 11 12  2  0
 12 13  1  0
 13 14  2  0
 14 15  1  0
  7 16  2  0
 16  3  1  0
 10  6  1  0
 14  9  1  0
  1 17  1  0
  1 18  1  0
  1 19  1  0
  4 20  1  0
  5 21  1  0
  8 22  1  0
 11 23  1  0
 12 24  1  0
 15 25  1  0
 15 26  1  0
 15 27  1  0
 16 28  1  0
M  END
$$$$
