
     RDKit          3D

 36 38  0  0  0  0  0  0  0  0999 V2000
    5.8489    1.1225    0.5559 N   0  0  0  0  0  0  0  0  0  0  0  0
    4.6214    0.4123    0.6601 C   0  0  0  0  0  0  0  0  0  0  0  0
    4.2796   -0.5139   -0.2978 C   0  0  0  0  0  0  0  0  0  0  0  0
    3.0796   -1.2183   -0.2098 C   0  0  0  0  0  0  0  0  0  0  0  0
    2.1841   -1.0345    0.8164 C   0  0  0  0  0  0  0  0  0  0  0  0
    0.6674   -1.8931    0.9471 S   0  0  0  0  0  6  0  0  0  0  0  0
    0.5549   -2.3443    2.3811 O   0  0  0  0  0  0  0  0  0  0  0  0
    0.7511   -3.1430    0.0761 O   0  0  0  0  0  0  0  0  0  0  0  0
   -0.6893   -1.0209    0.4458 N   0  0  0  0  0  0  0  0  0  0  0  0
   -0.8526   -0.5575   -0.8732 C   0  0  0  0  0  0  0  0  0  0  0  0
   -0.0732   -0.6795   -1.9968 C   0  0  0  0  0  0  0  0  0  0  0  0
   -0.6965   -0.0264   -3.0363 C   0  0  0  0  0  0  0  0  0  0  0  0
   -1.8310    0.4793   -2.5466 N   0  0  0  0  0  0  0  0  0  0  0  0
   -1.9395    0.1740   -1.2660 N   0  0  0  0  0  0  0  0  0  0  0  0
   -3.0299    0.5570   -0.4362 C   0  0  0  0  0  0  0  0  0  0  0  0
   -4.1610   -0.2292   -0.4660 C   0  0  0  0  0  0  0  0  0  0  0  0
   -5.2742    0.0837    0.3224 C   0  0  0  0  0  0  0  0  0  0  0  0
   -5.2443    1.1940    1.1431 C   0  0  0  0  0  0  0  0  0  0  0  0
   -4.0932    1.9892    1.1697 C   0  0  0  0  0  0  0  0  0  0  0  0
   -3.0046    1.6635    0.3839 C   0  0  0  0  0  0  0  0  0  0  0  0
    2.5451   -0.0875    1.7862 C   0  0  0  0  0  0  0  0  0  0  0  0
    3.7325    0.6061    1.6948 C   0  0  0  0  0  0  0  0  0  0  0  0
    6.3279    1.1650   -0.3763 H   0  0  0  0  0  0  0  0  0  0  0  0
    6.2929    1.6037    1.3710 H   0  0  0  0  0  0  0  0  0  0  0  0
    4.9477   -0.6949   -1.1234 H   0  0  0  0  0  0  0  0  0  0  0  0
    2.8385   -1.9506   -0.9767 H   0  0  0  0  0  0  0  0  0  0  0  0
   -1.4321   -0.8302    1.1783 H   0  0  0  0  0  0  0  0  0  0  0  0
    0.8670   -1.2110   -2.0303 H   0  0  0  0  0  0  0  0  0  0  0  0
   -0.3517    0.0645   -4.0379 H   0  0  0  0  0  0  0  0  0  0  0  0
   -4.2119   -1.1041   -1.0991 H   0  0  0  0  0  0  0  0  0  0  0  0
   -6.1644   -0.5331    0.3005 H   0  0  0  0  0  0  0  0  0  0  0  0
   -6.1133    1.4247    1.7484 H   0  0  0  0  0  0  0  0  0  0  0  0
   -4.0946    2.8546    1.8217 H   0  0  0  0  0  0  0  0  0  0  0  0
   -2.1222    2.2813    0.4105 H   0  0  0  0  0  0  0  0  0  0  0  0
    1.8393    0.0580    2.5964 H   0  0  0  0  0  0  0  0  0  0  0  0
    4.0015    1.3385    2.4536 H   0  0  0  0  0  0  0  0  0  0  0  0
  1  2  1  0
  2  3  2  0
  3  4  1  0
  4  5  2  0
  5  6  1  0
  6  7  2  0
  6  8  2  0
  6  9  1  0
  9 10  1  0
 10 11  2  0
 11 12  1  0
 12 13  2  0
 13 14  1  0
 14 15  1  0
 15 16  2  0
 16 17  1  0
 17 18  2  0
 18 19  1  0
 19 20  2  0
  5 21  1  0
 21 22  2  0
 22  2  1  0
 14 10  1  0
 20 15  1  0
  1 23  1  0
  1 24  1  0
  3 25  1  0
  4 26  1  0
  9 27  1  0
 11 28  1  0
 12 29  1  0
 16 30  1  0
 17 31  1  0
 18 32  1  0
 19 33  1  0
 20 34  1  0
 21 35  1  0
 22 36  1  0
M  END
$$$$
