@<TRIPOS>MOLECULE
*****
 36 38 0 0 0
SMALL
GASTEIGER

@<TRIPOS>ATOM
      1 N           5.8489    1.1225    0.5559 N.pl3   1  UNL1       -0.3580
      2 C           4.6214    0.4123    0.6601 C.ar    1  UNL1        0.0247
      3 C           4.2796   -0.5139   -0.2978 C.ar    1  UNL1       -0.0392
      4 C           3.0796   -1.2183   -0.2098 C.ar    1  UNL1       -0.0333
      5 C           2.1841   -1.0345    0.8164 C.ar    1  UNL1        0.1087
      6 S           0.6674   -1.8931    0.9471 S.O2    1  UNL1        0.0735
      7 O           0.5549   -2.3443    2.3811 O.2     1  UNL1       -0.1499
      8 O           0.7511   -3.1430    0.0761 O.2     1  UNL1       -0.1499
      9 N          -0.6893   -1.0209    0.4458 N.pl3   1  UNL1       -0.1994
     10 C          -0.8526   -0.5575   -0.8732 C.ar    1  UNL1        0.1413
     11 C          -0.0732   -0.6795   -1.9968 C.ar    1  UNL1       -0.0006
     12 C          -0.6965   -0.0264   -3.0363 C.ar    1  UNL1        0.0517
     13 N          -1.8310    0.4793   -2.5466 N.ar    1  UNL1       -0.1730
     14 N          -1.9395    0.1740   -1.2660 N.ar    1  UNL1       -0.2173
     15 C          -3.0299    0.5570   -0.4362 C.ar    1  UNL1        0.0675
     16 C          -4.1610   -0.2292   -0.4660 C.ar    1  UNL1       -0.0362
     17 C          -5.2742    0.0837    0.3224 C.ar    1  UNL1       -0.0598
     18 C          -5.2443    1.1940    1.1431 C.ar    1  UNL1       -0.0616
     19 C          -4.0932    1.9892    1.1697 C.ar    1  UNL1       -0.0598
     20 C          -3.0046    1.6635    0.3839 C.ar    1  UNL1       -0.0362
     21 C           2.5451   -0.0875    1.7862 C.ar    1  UNL1       -0.0333
     22 C           3.7325    0.6061    1.6948 C.ar    1  UNL1       -0.0392
     23 H           6.3279    1.1650   -0.3763 H       1  UNL1        0.1423
     24 H           6.2929    1.6037    1.3710 H       1  UNL1        0.1423
     25 H           4.9477   -0.6949   -1.1234 H       1  UNL1        0.0636
     26 H           2.8385   -1.9506   -0.9767 H       1  UNL1        0.0638
     27 H          -1.4321   -0.8302    1.1783 H       1  UNL1        0.1752
     28 H           0.8670   -1.2110   -2.0303 H       1  UNL1        0.0668
     29 H          -0.3517    0.0645   -4.0379 H       1  UNL1        0.0848
     30 H          -4.2119   -1.1041   -1.0991 H       1  UNL1        0.0639
     31 H          -6.1644   -0.5331    0.3005 H       1  UNL1        0.0618
     32 H          -6.1133    1.4247    1.7484 H       1  UNL1        0.0618
     33 H          -4.0946    2.8546    1.8217 H       1  UNL1        0.0618
     34 H          -2.1222    2.2813    0.4105 H       1  UNL1        0.0639
     35 H           1.8393    0.0580    2.5964 H       1  UNL1        0.0638
     36 H           4.0015    1.3385    2.4536 H       1  UNL1        0.0636
@<TRIPOS>BOND
     1     1     2    1
     2     2     3   ar
     3     3     4   ar
     4     4     5   ar
     5     5     6    1
     6     6     7    2
     7     6     8    2
     8     6     9    1
     9     9    10    1
    10    10    11   ar
    11    11    12   ar
    12    12    13   ar
    13    13    14   ar
    14    14    15    1
    15    15    16   ar
    16    16    17   ar
    17    17    18   ar
    18    18    19   ar
    19    19    20   ar
    20     5    21   ar
    21    21    22   ar
    22    22     2   ar
    23    14    10   ar
    24    20    15   ar
    25     1    23    1
    26     1    24    1
    27     3    25    1
    28     4    26    1
    29     9    27    1
    30    11    28    1
    31    12    29    1
    32    16    30    1
    33    17    31    1
    34    18    32    1
    35    19    33    1
    36    20    34    1
    37    21    35    1
    38    22    36    1
