@<TRIPOS>MOLECULE
*****
 56 59 0 0 0
SMALL
GASTEIGER

@<TRIPOS>ATOM
      1 C           6.2933    0.9453    3.7675 C.3     1  UNL1        0.0790
      2 O           6.9341    0.5527    2.5682 O.3     1  UNL1       -0.4914
      3 C           6.1326    0.3302    1.4577 C.ar    1  UNL1        0.1623
      4 C           4.7587    0.4796    1.4976 C.ar    1  UNL1       -0.0056
      5 C           4.0343    0.2373    0.3429 C.ar    1  UNL1        0.0219
      6 C           2.6414    0.3757    0.3352 C.ar    1  UNL1       -0.0364
      7 C           1.9048    0.1390   -0.8030 C.ar    1  UNL1        0.0672
      8 C           0.4576    0.2947   -0.7672 C.ar    1  UNL1       -0.0110
      9 C          -0.3200   -0.1990    0.2542 C.ar    1  UNL1       -0.0535
     10 C          -1.7071   -0.0262    0.2480 C.ar    1  UNL1       -0.0568
     11 C          -2.3370    0.6414   -0.7772 C.ar    1  UNL1       -0.0333
     12 C          -3.8204    0.8542   -0.8322 C.3     1  UNL1        0.0241
     13 N          -4.5038   -0.1871   -1.4972 N.3     1  UNL1       -0.2970
     14 C          -4.1413   -0.4391   -2.8473 C.3     1  UNL1       -0.0121
     15 C          -4.9606   -1.2955   -0.7495 C.3     1  UNL1        0.0241
     16 C          -5.9392   -0.8598    0.2753 C.ar    1  UNL1       -0.0334
     17 C          -5.5649   -0.5647    1.5439 C.ar    1  UNL1       -0.0573
     18 C          -6.4665   -0.1437    2.5235 C.ar    1  UNL1       -0.0615
     19 C          -7.7850   -0.0297    2.1687 C.ar    1  UNL1       -0.0617
     20 C          -8.2109   -0.3213    0.8844 C.ar    1  UNL1       -0.0615
     21 C          -7.2942   -0.7331   -0.0543 C.ar    1  UNL1       -0.0573
     22 C          -1.5425    1.1338   -1.7999 C.ar    1  UNL1       -0.0568
     23 C          -0.1796    0.9606   -1.7879 C.ar    1  UNL1       -0.0535
     24 C           2.5972   -0.2393   -1.9320 C.ar    1  UNL1        0.3451
     25 O           1.9228   -0.4568   -2.9774 O.2     1  UNL1       -0.2445
     26 O           3.9125   -0.3722   -1.9329 O.2     1  UNL1       -0.4216
     27 C           4.6288   -0.1458   -0.8398 C.ar    1  UNL1        0.1428
     28 C           6.0079   -0.2881   -0.8512 C.ar    1  UNL1        0.0267
     29 C           6.7500   -0.0523    0.2857 C.ar    1  UNL1        0.1650
     30 O           8.1187   -0.1972    0.2608 O.3     1  UNL1       -0.4913
     31 C           8.8655   -0.5771   -0.8537 C.3     1  UNL1        0.0790
     32 H           5.6820    0.1070    4.1948 H       1  UNL1        0.0660
     33 H           5.5852    1.7801    3.5920 H       1  UNL1        0.0660
     34 H           7.0101    1.3072    4.5313 H       1  UNL1        0.0660
     35 H           4.2534    0.7784    2.4043 H       1  UNL1        0.0662
     36 H           2.1782    0.6721    1.2495 H       1  UNL1        0.0633
     37 H           0.1707   -0.7187    1.0520 H       1  UNL1        0.0624
     38 H          -2.2995   -0.4243    1.0641 H       1  UNL1        0.0621
     39 H          -4.1653    0.9991    0.2040 H       1  UNL1        0.0476
     40 H          -4.0562    1.8128   -1.3520 H       1  UNL1        0.0476
     41 H          -3.0368   -0.6446   -2.9473 H       1  UNL1        0.0391
     42 H          -4.6342   -1.3621   -3.2094 H       1  UNL1        0.0391
     43 H          -4.4110    0.4215   -3.4938 H       1  UNL1        0.0391
     44 H          -5.4395   -2.0247   -1.4526 H       1  UNL1        0.0476
     45 H          -4.0782   -1.7941   -0.2948 H       1  UNL1        0.0476
     46 H          -4.5390   -0.6522    1.8530 H       1  UNL1        0.0621
     47 H          -6.1053    0.0808    3.5318 H       1  UNL1        0.0618
     48 H          -8.4893    0.2968    2.9254 H       1  UNL1        0.0618
     49 H          -9.2722   -0.2234    0.6216 H       1  UNL1        0.0618
     50 H          -7.5880   -0.9737   -1.0808 H       1  UNL1        0.0621
     51 H          -2.0191    1.6517   -2.5977 H       1  UNL1        0.0621
     52 H           0.3884    1.3648   -2.6094 H       1  UNL1        0.0624
     53 H           6.4681   -0.5946   -1.8032 H       1  UNL1        0.0692
     54 H           8.6056   -1.5720   -1.2513 H       1  UNL1        0.0660
     55 H           9.9415   -0.5070   -0.5844 H       1  UNL1        0.0660
     56 H           8.6629    0.1824   -1.6576 H       1  UNL1        0.0660
@<TRIPOS>BOND
     1     1     2    1
     2     2     3    1
     3     3     4   ar
     4     4     5   ar
     5     5     6   ar
     6     6     7   ar
     7     7     8    1
     8     8     9   ar
     9     9    10   ar
    10    10    11   ar
    11    11    12    1
    12    12    13    1
    13    13    14    1
    14    13    15    1
    15    15    16    1
    16    16    17   ar
    17    17    18   ar
    18    18    19   ar
    19    19    20   ar
    20    20    21   ar
    21    11    22   ar
    22    22    23   ar
    23     7    24   ar
    24    24    25    2
    25    24    26   ar
    26    26    27   ar
    27    27    28   ar
    28    28    29   ar
    29    29    30    1
    30    30    31    1
    31    29     3   ar
    32    27     5   ar
    33    23     8   ar
    34    21    16   ar
    35     1    32    1
    36     1    33    1
    37     1    34    1
    38     4    35    1
    39     6    36    1
    40     9    37    1
    41    10    38    1
    42    12    39    1
    43    12    40    1
    44    14    41    1
    45    14    42    1
    46    14    43    1
    47    15    44    1
    48    15    45    1
    49    17    46    1
    50    18    47    1
    51    19    48    1
    52    20    49    1
    53    21    50    1
    54    22    51    1
    55    23    52    1
    56    28    53    1
    57    31    54    1
    58    31    55    1
    59    31    56    1
