
     RDKit          3D

 57 63  0  0  0  0  0  0  0  0999 V2000
    2.3954    0.8444   -1.9600 C   0  0  2  0  0  0  0  0  0  0  0  0
    2.0310    2.2716   -1.7151 C   0  0  0  0  0  0  0  0  0  0  0  0
    1.0035    1.1743   -1.7003 C   0  0  2  0  0  0  0  0  0  0  0  0
    0.4323    0.7362   -0.3735 C   0  0  1  0  0  0  0  0  0  0  0  0
   -1.0464    0.5292   -0.5514 C   0  0  2  0  0  0  0  0  0  0  0  0
   -1.8273    1.6872   -1.0060 C   0  0  2  0  0  0  0  0  0  0  0  0
   -2.6180    2.5912   -0.1604 C   0  0  0  0  0  0  0  0  0  0  0  0
   -3.2637    1.3299   -0.5669 C   0  0  2  0  0  0  0  0  0  0  0  0
   -3.1355    0.0680    0.2402 C   0  0  2  0  0  0  0  0  0  0  0  0
   -3.5815   -1.0580   -0.6876 C   0  0  0  0  0  0  0  0  0  0  0  0
   -5.0988   -0.9443   -0.4796 C   0  0  0  0  0  0  0  0  0  0  0  0
   -5.1058   -0.8712    1.0249 C   0  0  0  0  0  0  0  0  0  0  0  0
   -5.9230   -1.5307    1.7393 O   0  0  0  0  0  0  0  0  0  0  0  0
   -4.0686    0.0273    1.2892 O   0  0  0  0  0  0  0  0  0  0  0  0
   -1.7111   -0.0549    0.6747 C   0  0  2  0  0  0  0  0  0  0  0  0
   -1.4214    0.6407    1.9525 C   0  0  0  0  0  0  0  0  0  0  0  0
   -1.1948   -1.4659    0.7730 C   0  0  0  0  0  0  0  0  0  0  0  0
    0.3009   -1.3840    1.0062 C   0  0  0  0  0  0  0  0  0  0  0  0
    1.0099   -0.6023   -0.0574 C   0  0  2  0  0  0  0  0  0  0  0  0
    2.4444   -0.4320    0.3104 C   0  0  1  0  0  0  0  0  0  0  0  0
    2.5838    0.5603    1.4373 C   0  0  0  0  0  0  0  0  0  0  0  0
    3.0453   -1.7404    0.7663 C   0  0  0  0  0  0  0  0  0  0  0  0
    4.5240   -1.6330    0.9806 C   0  0  0  0  0  0  0  0  0  0  0  0
    5.1185   -0.9787   -0.2057 C   0  0  0  0  0  0  0  0  0  0  0  0
    6.3754   -1.1079   -0.3713 O   0  0  0  0  0  0  0  0  0  0  0  0
    4.3946   -0.2015   -1.1987 C   0  0  0  0  0  0  0  0  0  0  0  0
    3.1201    0.0549   -0.9452 C   0  0  0  0  0  0  0  0  0  0  0  0
    2.6883    0.6328   -3.0300 H   0  0  0  0  0  0  0  0  0  0  0  0
    2.2123    2.7720   -0.7591 H   0  0  0  0  0  0  0  0  0  0  0  0
    2.0425    2.9939   -2.5781 H   0  0  0  0  0  0  0  0  0  0  0  0
    0.3100    1.2102   -2.5909 H   0  0  0  0  0  0  0  0  0  0  0  0
    0.6715    1.5409    0.3385 H   0  0  0  0  0  0  0  0  0  0  0  0
   -1.1465   -0.2588   -1.3307 H   0  0  0  0  0  0  0  0  0  0  0  0
   -1.7085    1.9207   -2.1016 H   0  0  0  0  0  0  0  0  0  0  0  0
   -2.9946    3.5028   -0.6756 H   0  0  0  0  0  0  0  0  0  0  0  0
   -2.3606    2.8181    0.8853 H   0  0  0  0  0  0  0  0  0  0  0  0
   -4.0221    1.3488   -1.3780 H   0  0  0  0  0  0  0  0  0  0  0  0
   -3.3143   -2.0541   -0.3318 H   0  0  0  0  0  0  0  0  0  0  0  0
   -3.3125   -0.8306   -1.7247 H   0  0  0  0  0  0  0  0  0  0  0  0
   -5.5030   -0.0376   -0.9300 H   0  0  0  0  0  0  0  0  0  0  0  0
   -5.5171   -1.8722   -0.8679 H   0  0  0  0  0  0  0  0  0  0  0  0
   -0.6867    1.4480    1.9253 H   0  0  0  0  0  0  0  0  0  0  0  0
   -2.4190    0.9438    2.3865 H   0  0  0  0  0  0  0  0  0  0  0  0
   -1.0365   -0.0681    2.7433 H   0  0  0  0  0  0  0  0  0  0  0  0
   -1.6481   -2.0771    1.5508 H   0  0  0  0  0  0  0  0  0  0  0  0
   -1.2787   -1.9384   -0.2494 H   0  0  0  0  0  0  0  0  0  0  0  0
    0.5800   -1.1318    2.0367 H   0  0  0  0  0  0  0  0  0  0  0  0
    0.6534   -2.4428    0.8684 H   0  0  0  0  0  0  0  0  0  0  0  0
    0.9851   -1.2100   -0.9948 H   0  0  0  0  0  0  0  0  0  0  0  0
    1.6258    0.7689    1.9678 H   0  0  0  0  0  0  0  0  0  0  0  0
    3.2518    0.1583    2.2526 H   0  0  0  0  0  0  0  0  0  0  0  0
    3.0670    1.4969    1.0857 H   0  0  0  0  0  0  0  0  0  0  0  0
    2.5707   -1.9639    1.7454 H   0  0  0  0  0  0  0  0  0  0  0  0
    2.8579   -2.5669    0.0746 H   0  0  0  0  0  0  0  0  0  0  0  0
    4.9221   -2.6729    1.1031 H   0  0  0  0  0  0  0  0  0  0  0  0
    4.8285   -1.0814    1.8802 H   0  0  0  0  0  0  0  0  0  0  0  0
    4.8982    0.1402   -2.0964 H   0  0  0  0  0  0  0  0  0  0  0  0
  1  2  1  0
  2  3  1  0
  3  4  1  0
  4  5  1  0
  5  6  1  0
  6  7  1  0
  7  8  1  0
  8  9  1  0
  9 10  1  0
 10 11  1  0
 11 12  1  0
 12 13  2  0
 12 14  1  0
  9 15  1  0
 15 16  1  1
 15 17  1  0
 17 18  1  0
 18 19  1  0
 19 20  1  0
 20 21  1  1
 20 22  1  0
 22 23  1  0
 23 24  1  0
 24 25  2  0
 24 26  1  0
 26 27  2  0
  3  1  1  0
 19  4  1  0
 27 20  1  0
 27  1  1  0
 15  5  1  0
  8  6  1  0
  9 14  1  1
  1 28  1  6
  2 29  1  0
  2 30  1  0
  3 31  1  6
  4 32  1  1
  5 33  1  6
  6 34  1  6
  7 35  1  0
  7 36  1  0
  8 37  1  6
 10 38  1  0
 10 39  1  0
 11 40  1  0
 11 41  1  0
 16 42  1  0
 16 43  1  0
 16 44  1  0
 17 45  1  0
 17 46  1  0
 18 47  1  0
 18 48  1  0
 19 49  1  6
 21 50  1  0
 21 51  1  0
 21 52  1  0
 22 53  1  0
 22 54  1  0
 23 55  1  0
 23 56  1  0
 26 57  1  0
M  END
$$$$
