@<TRIPOS>MOLECULE
*****
 32 33 0 0 0
SMALL
GASTEIGER

@<TRIPOS>ATOM
      1 C           4.3346    1.3051    0.6729 C.3     1  UNL1       -0.0332
      2 C           3.4086    0.2408    0.2286 C.ar    1  UNL1        0.0302
      3 C           2.0674    0.5024    0.0359 C.ar    1  UNL1        0.0199
      4 N           1.1961   -0.4362   -0.3665 N.ar    1  UNL1       -0.2737
      5 C          -0.1723   -0.0919   -0.5437 C.3     1  UNL1        0.1420
      6 C          -1.1215   -1.2589   -0.4568 C.3     1  UNL1        0.0244
      7 C          -2.4398   -0.5391   -0.1401 C.3     1  UNL1        0.1617
      8 N          -3.3208   -0.5920   -1.3087 N.2     1  UNL1        0.0825
      9 N          -4.5219   -0.5450   -1.1407 N.2     1  UNL1       -0.0144
     10 N          -5.7463   -0.6223   -1.2322 N.2     1  UNL1       -0.3282
     11 C          -1.9895    0.8866    0.0939 C.3     1  UNL1        0.1131
     12 C          -2.8193    1.5629    1.1653 C.3     1  UNL1        0.0727
     13 O          -4.1266    1.6983    0.7232 O.3     1  UNL1       -0.3924
     14 O          -0.6640    0.7303    0.4960 O.3     1  UNL1       -0.3486
     15 C           1.6702   -1.6712   -0.5841 C.ar    1  UNL1        0.3313
     16 O           0.8999   -2.5784   -0.9592 O.2     1  UNL1       -0.2464
     17 N           2.9914   -1.9627   -0.4028 N.ar    1  UNL1       -0.2747
     18 C           3.8771   -1.0352   -0.0004 C.ar    1  UNL1        0.2568
     19 O           5.1100   -1.3262    0.1641 O.2     1  UNL1       -0.2674
     20 H           5.3622    1.0915    0.3464 H       1  UNL1        0.0280
     21 H           4.3368    1.3546    1.7757 H       1  UNL1        0.0280
     22 H           4.0488    2.2865    0.2023 H       1  UNL1        0.0280
     23 H           1.6968    1.5107    0.2168 H       1  UNL1        0.0816
     24 H          -0.3937    0.4456   -1.4803 H       1  UNL1        0.0840
     25 H          -1.2486   -1.7785   -1.4157 H       1  UNL1        0.0332
     26 H          -0.9147   -1.9176    0.4007 H       1  UNL1        0.0332
     27 H          -2.9432   -0.9727    0.7337 H       1  UNL1        0.0643
     28 H          -1.9718    1.4738   -0.8474 H       1  UNL1        0.0643
     29 H          -2.3959    2.5364    1.4625 H       1  UNL1        0.0584
     30 H          -2.7968    0.9172    2.0602 H       1  UNL1        0.0584
     31 H          -4.7745    1.7095    1.4820 H       1  UNL1        0.2095
     32 H           3.3613   -2.9244   -0.5721 H       1  UNL1        0.1734
@<TRIPOS>UNITY_ATOM_ATTR
9 1
charge 1
10 1
charge -1
@<TRIPOS>BOND
     1     1     2    1
     2     2     3   ar
     3     3     4   ar
     4     4     5    1
     5     5     6    1
     6     6     7    1
     7     7     8    1
     8     8     9    2
     9     9    10    2
    10     7    11    1
    11    11    12    1
    12    12    13    1
    13    11    14    1
    14     4    15   ar
    15    15    16    2
    16    15    17   ar
    17    17    18   ar
    18    18    19    2
    19    18     2   ar
    20    14     5    1
    21     1    20    1
    22     1    21    1
    23     1    22    1
    24     3    23    1
    25     5    24    1
    26     6    25    1
    27     6    26    1
    28     7    27    1
    29    11    28    1
    30    12    29    1
    31    12    30    1
    32    13    31    1
    33    17    32    1
