
     RDKit          3D

 32 33  0  0  0  0  0  0  0  0999 V2000
    4.3346    1.3051    0.6729 C   0  0  0  0  0  0  0  0  0  0  0  0
    3.4086    0.2408    0.2286 C   0  0  0  0  0  0  0  0  0  0  0  0
    2.0674    0.5024    0.0359 C   0  0  0  0  0  0  0  0  0  0  0  0
    1.1961   -0.4362   -0.3665 N   0  0  0  0  0  0  0  0  0  0  0  0
   -0.1723   -0.0919   -0.5437 C   0  0  1  0  0  0  0  0  0  0  0  0
   -1.1215   -1.2589   -0.4568 C   0  0  0  0  0  0  0  0  0  0  0  0
   -2.4398   -0.5391   -0.1401 C   0  0  2  0  0  0  0  0  0  0  0  0
   -3.3208   -0.5920   -1.3087 N   0  0  0  0  0  0  0  0  0  0  0  0
   -4.5219   -0.5450   -1.1407 N   0  0  0  0  0  4  0  0  0  0  0  0
   -5.7463   -0.6223   -1.2322 N   0  0  0  0  0  2  0  0  0  0  0  0
   -1.9895    0.8866    0.0939 C   0  0  1  0  0  0  0  0  0  0  0  0
   -2.8193    1.5629    1.1653 C   0  0  0  0  0  0  0  0  0  0  0  0
   -4.1266    1.6983    0.7232 O   0  0  0  0  0  0  0  0  0  0  0  0
   -0.6640    0.7303    0.4960 O   0  0  0  0  0  0  0  0  0  0  0  0
    1.6702   -1.6712   -0.5841 C   0  0  0  0  0  0  0  0  0  0  0  0
    0.8999   -2.5784   -0.9592 O   0  0  0  0  0  0  0  0  0  0  0  0
    2.9914   -1.9627   -0.4028 N   0  0  0  0  0  0  0  0  0  0  0  0
    3.8771   -1.0352   -0.0004 C   0  0  0  0  0  0  0  0  0  0  0  0
    5.1100   -1.3262    0.1641 O   0  0  0  0  0  0  0  0  0  0  0  0
    5.3622    1.0915    0.3464 H   0  0  0  0  0  0  0  0  0  0  0  0
    4.3368    1.3546    1.7757 H   0  0  0  0  0  0  0  0  0  0  0  0
    4.0488    2.2865    0.2023 H   0  0  0  0  0  0  0  0  0  0  0  0
    1.6968    1.5107    0.2168 H   0  0  0  0  0  0  0  0  0  0  0  0
   -0.3937    0.4456   -1.4803 H   0  0  0  0  0  0  0  0  0  0  0  0
   -1.2486   -1.7785   -1.4157 H   0  0  0  0  0  0  0  0  0  0  0  0
   -0.9147   -1.9176    0.4007 H   0  0  0  0  0  0  0  0  0  0  0  0
   -2.9432   -0.9727    0.7337 H   0  0  0  0  0  0  0  0  0  0  0  0
   -1.9718    1.4738   -0.8474 H   0  0  0  0  0  0  0  0  0  0  0  0
   -2.3959    2.5364    1.4625 H   0  0  0  0  0  0  0  0  0  0  0  0
   -2.7968    0.9172    2.0602 H   0  0  0  0  0  0  0  0  0  0  0  0
   -4.7745    1.7095    1.4820 H   0  0  0  0  0  0  0  0  0  0  0  0
    3.3613   -2.9244   -0.5721 H   0  0  0  0  0  0  0  0  0  0  0  0
  1  2  1  0
  2  3  2  0
  3  4  1  0
  4  5  1  0
  5  6  1  0
  6  7  1  0
  7  8  1  0
  8  9  2  0
  9 10  2  0
  7 11  1  0
 11 12  1  0
 12 13  1  0
 11 14  1  0
  4 15  1  0
 15 16  2  0
 15 17  1  0
 17 18  1  0
 18 19  2  0
 18  2  1  0
 14  5  1  0
  1 20  1  0
  1 21  1  0
  1 22  1  0
  3 23  1  0
  5 24  1  6
  6 25  1  0
  6 26  1  0
  7 27  1  1
 11 28  1  6
 12 29  1  0
 12 30  1  0
 13 31  1  0
 17 32  1  0
M  CHG  2   9   1  10  -1
M  END
$$$$
