@<TRIPOS>MOLECULE
*****
 39 40 0 0 0
SMALL
GASTEIGER

@<TRIPOS>ATOM
      1 C           2.6207    3.2027   -0.5691 C.3     1  UNL1       -0.0306
      2 C           3.1400    1.7824   -0.5702 C.3     1  UNL1        0.0897
      3 O           2.1617    0.8124   -0.7732 O.3     1  UNL1       -0.4643
      4 C           1.0949    0.6884    0.1041 C.2     1  UNL1        0.3178
      5 O           1.5750    1.6406    0.7638 O.2     1  UNL1       -0.2498
      6 C          -0.0707   -0.2295    0.1420 C.3     1  UNL1        0.0949
      7 C          -0.8605   -0.1117   -1.1413 C.3     1  UNL1       -0.0203
      8 C          -2.3338    0.0696   -0.8417 C.3     1  UNL1       -0.0001
      9 N          -2.4996    1.3157   -0.1498 N.3     1  UNL1       -0.3052
     10 C          -3.8570    1.6313    0.1796 C.3     1  UNL1       -0.0128
     11 C          -1.5458    1.5507    0.8892 C.3     1  UNL1       -0.0001
     12 C          -0.9349    0.2015    1.2821 C.3     1  UNL1       -0.0203
     13 C           0.4080   -1.6106    0.2412 C.ar    1  UNL1       -0.0305
     14 C           1.4417   -2.0785   -0.5426 C.ar    1  UNL1       -0.0575
     15 C           1.9222   -3.3902   -0.4714 C.ar    1  UNL1       -0.0615
     16 C           1.3469   -4.2720    0.4194 C.ar    1  UNL1       -0.0617
     17 C           0.3133   -3.8329    1.2146 C.ar    1  UNL1       -0.0615
     18 C          -0.1256   -2.5315    1.1084 C.ar    1  UNL1       -0.0575
     19 H           2.7372    3.6467    0.4526 H       1  UNL1        0.0262
     20 H           1.5610    3.2853   -0.8995 H       1  UNL1        0.0262
     21 H           3.2602    3.8332   -1.2449 H       1  UNL1        0.0262
     22 H           3.7247    1.6204    0.3781 H       1  UNL1        0.0694
     23 H           3.8977    1.6498   -1.3844 H       1  UNL1        0.0694
     24 H          -0.7781   -1.0086   -1.7899 H       1  UNL1        0.0291
     25 H          -0.4974    0.7575   -1.7258 H       1  UNL1        0.0291
     26 H          -2.8362    0.2021   -1.8428 H       1  UNL1        0.0427
     27 H          -2.7247   -0.8084   -0.3149 H       1  UNL1        0.0427
     28 H          -4.1938    2.4304   -0.5319 H       1  UNL1        0.0391
     29 H          -4.4947    0.7432    0.0156 H       1  UNL1        0.0391
     30 H          -3.9934    2.0475    1.2011 H       1  UNL1        0.0391
     31 H          -1.9468    2.0738    1.7768 H       1  UNL1        0.0427
     32 H          -0.6973    2.1539    0.5046 H       1  UNL1        0.0427
     33 H          -1.7963   -0.4516    1.4743 H       1  UNL1        0.0291
     34 H          -0.3802    0.3084    2.2332 H       1  UNL1        0.0291
     35 H           1.9489   -1.4557   -1.2674 H       1  UNL1        0.0621
     36 H           2.7316   -3.7551   -1.0858 H       1  UNL1        0.0618
     37 H           1.7170   -5.2848    0.4752 H       1  UNL1        0.0618
     38 H          -0.1082   -4.5510    1.8959 H       1  UNL1        0.0618
     39 H          -0.9277   -2.2754    1.7593 H       1  UNL1        0.0621
@<TRIPOS>BOND
     1     1     2    1
     2     2     3    1
     3     3     4    1
     4     4     5    2
     5     4     6    1
     6     6     7    1
     7     7     8    1
     8     8     9    1
     9     9    10    1
    10     9    11    1
    11    11    12    1
    12     6    13    1
    13    13    14   ar
    14    14    15   ar
    15    15    16   ar
    16    16    17   ar
    17    17    18   ar
    18    12     6    1
    19    18    13   ar
    20     1    19    1
    21     1    20    1
    22     1    21    1
    23     2    22    1
    24     2    23    1
    25     7    24    1
    26     7    25    1
    27     8    26    1
    28     8    27    1
    29    10    28    1
    30    10    29    1
    31    10    30    1
    32    11    31    1
    33    11    32    1
    34    12    33    1
    35    12    34    1
    36    14    35    1
    37    15    36    1
    38    16    37    1
    39    17    38    1
    40    18    39    1
