@<TRIPOS>MOLECULE
*****
 58 60 0 0 0
SMALL
GASTEIGER

@<TRIPOS>ATOM
      1 C          -6.5265    5.6577    0.7181 C.1     1  UNL1       -0.1139
      2 C          -6.2977    4.3767    0.5645 C.1     1  UNL1       -0.0696
      3 C          -6.0507    2.9790    0.4186 C.ar    1  UNL1        0.0264
      4 C          -7.2215    2.3460   -0.1213 C.ar    1  UNL1       -0.0462
      5 C          -7.2113    0.9233   -0.1311 C.ar    1  UNL1       -0.0589
      6 C          -6.0698    0.3039    0.3872 C.ar    1  UNL1       -0.0404
      7 C          -4.9698    0.9469    0.8834 C.ar    1  UNL1        0.0335
      8 N          -3.8210    0.2303    1.3921 N.pl3   1  UNL1       -0.2988
      9 C          -3.7103   -1.1528    1.0536 C.ar    1  UNL1        0.1340
     10 N          -4.6879   -1.9883    0.7676 N.ar    1  UNL1       -0.2200
     11 C          -4.6224   -3.2457    0.3836 C.ar    1  UNL1        0.1187
     12 N          -3.3473   -3.7991    0.2533 N.ar    1  UNL1       -0.2352
     13 C          -2.3047   -2.9956    0.5325 C.ar    1  UNL1        0.0797
     14 C          -1.0284   -3.4923    0.3895 C.ar    1  UNL1        0.0098
     15 C           0.1054   -2.7899    0.6387 C.ar    1  UNL1        0.1636
     16 O           1.3077   -3.4097    0.4603 O.3     1  UNL1       -0.4914
     17 C           1.4223   -4.7689    0.1447 C.3     1  UNL1        0.0790
     18 C           0.0552   -1.4050    1.0961 C.ar    1  UNL1        0.1627
     19 O           1.2121   -0.9102    1.3167 O.3     1  UNL1       -0.4883
     20 C           2.3922   -0.3974    1.5455 C.3     1  UNL1        0.0898
     21 C           3.5654   -1.2323    0.8107 C.3     1  UNL1       -0.0186
     22 C           3.2680   -1.0579   -0.6865 C.3     1  UNL1       -0.0500
     23 C           3.4649    0.3946   -1.0591 C.3     1  UNL1       -0.0525
     24 C           4.8302    0.9105   -0.9990 C.3     1  UNL1       -0.0447
     25 C           4.9335    2.3923   -1.2767 C.3     1  UNL1        0.0259
     26 C           6.4052    2.7845   -1.2788 C.2     1  UNL1        0.2354
     27 O           6.9218    2.3226   -0.0677 O.2     1  UNL1       -0.2737
     28 N           7.1664    3.3846   -2.1071 N.am    1  UNL1       -0.1975
     29 O           8.4907    3.6987   -2.0846 O.3     1  UNL1       -0.2952
     30 C          -1.2337   -0.9744    1.2037 C.ar    1  UNL1       -0.0038
     31 C          -2.4108   -1.6945    0.9359 C.ar    1  UNL1        0.0441
     32 C          -4.9963    2.3722    0.8878 C.ar    1  UNL1       -0.0251
     33 H          -6.7220    6.7382    0.8344 H       1  UNL1        0.1232
     34 H          -8.0411    2.8622   -0.5265 H       1  UNL1        0.0630
     35 H          -8.0011    0.3265   -0.5272 H       1  UNL1        0.0619
     36 H          -6.1660   -0.8024    0.4374 H       1  UNL1        0.0636
     37 H          -3.1184    0.7596    1.9863 H       1  UNL1        0.1536
     38 H          -5.4826   -3.8474    0.1304 H       1  UNL1        0.1048
     39 H          -0.9172   -4.5418    0.0793 H       1  UNL1        0.0677
     40 H           0.8420   -5.0684   -0.7293 H       1  UNL1        0.0660
     41 H           0.9901   -5.3736    1.0267 H       1  UNL1        0.0660
     42 H           2.5127   -4.9759    0.0529 H       1  UNL1        0.0660
     43 H           2.6760   -0.8119    2.6612 H       1  UNL1        0.0696
     44 H           2.6370    0.6391    1.5648 H       1  UNL1        0.0696
     45 H           3.5241   -2.2707    1.0843 H       1  UNL1        0.0298
     46 H           4.5194   -0.7543    1.0133 H       1  UNL1        0.0298
     47 H           3.8965   -1.6899   -1.2966 H       1  UNL1        0.0266
     48 H           2.1578   -1.2439   -0.8371 H       1  UNL1        0.0266
     49 H           3.0280    0.5471   -2.0830 H       1  UNL1        0.0265
     50 H           2.7460    1.0328   -0.4031 H       1  UNL1        0.0265
     51 H           5.3332    0.7241   -0.0392 H       1  UNL1        0.0270
     52 H           5.4784    0.3947   -1.8378 H       1  UNL1        0.0270
     53 H           4.5857    2.9021   -0.2611 H       1  UNL1        0.0359
     54 H           4.4120    2.8713   -2.0668 H       1  UNL1        0.0359
     55 H           6.7162    3.7802   -3.0759 H       1  UNL1        0.1822
     56 H           8.8054    4.1226   -2.9408 H       1  UNL1        0.2414
     57 H          -1.3307    0.0985    1.5046 H       1  UNL1        0.0663
     58 H          -4.1121    2.8710    1.3256 H       1  UNL1        0.0648
@<TRIPOS>BOND
     1     1     2    3
     2     2     3    1
     3     3     4   ar
     4     4     5   ar
     5     5     6   ar
     6     6     7   ar
     7     7     8    1
     8     8     9    1
     9     9    10   ar
    10    10    11   ar
    11    11    12   ar
    12    12    13   ar
    13    13    14   ar
    14    14    15   ar
    15    15    16    1
    16    16    17    1
    17    15    18   ar
    18    18    19    1
    19    19    20    1
    20    20    21    1
    21    21    22    1
    22    22    23    1
    23    23    24    1
    24    24    25    1
    25    25    26    1
    26    26    27    2
    27    26    28   am
    28    28    29    1
    29    18    30   ar
    30    30    31   ar
    31     7    32   ar
    32    32     3   ar
    33    31     9   ar
    34    31    13   ar
    35     1    33    1
    36     4    34    1
    37     5    35    1
    38     6    36    1
    39     8    37    1
    40    11    38    1
    41    14    39    1
    42    17    40    1
    43    17    41    1
    44    17    42    1
    45    20    43    1
    46    20    44    1
    47    21    45    1
    48    21    46    1
    49    22    47    1
    50    22    48    1
    51    23    49    1
    52    23    50    1
    53    24    51    1
    54    24    52    1
    55    25    53    1
    56    25    54    1
    57    28    55    1
    58    29    56    1
    59    30    57    1
    60    32    58    1
