
     RDKit          3D

 58 60  0  0  0  0  0  0  0  0999 V2000
   -6.5265    5.6577    0.7181 C   0  0  0  0  0  0  0  0  0  0  0  0
   -6.2977    4.3767    0.5645 C   0  0  0  0  0  0  0  0  0  0  0  0
   -6.0507    2.9790    0.4186 C   0  0  0  0  0  0  0  0  0  0  0  0
   -7.2215    2.3460   -0.1213 C   0  0  0  0  0  0  0  0  0  0  0  0
   -7.2113    0.9233   -0.1311 C   0  0  0  0  0  0  0  0  0  0  0  0
   -6.0698    0.3039    0.3872 C   0  0  0  0  0  0  0  0  0  0  0  0
   -4.9698    0.9469    0.8834 C   0  0  0  0  0  0  0  0  0  0  0  0
   -3.8210    0.2303    1.3921 N   0  0  0  0  0  0  0  0  0  0  0  0
   -3.7103   -1.1528    1.0536 C   0  0  0  0  0  0  0  0  0  0  0  0
   -4.6879   -1.9883    0.7676 N   0  0  0  0  0  0  0  0  0  0  0  0
   -4.6224   -3.2457    0.3836 C   0  0  0  0  0  0  0  0  0  0  0  0
   -3.3473   -3.7991    0.2533 N   0  0  0  0  0  0  0  0  0  0  0  0
   -2.3047   -2.9956    0.5325 C   0  0  0  0  0  0  0  0  0  0  0  0
   -1.0284   -3.4923    0.3895 C   0  0  0  0  0  0  0  0  0  0  0  0
    0.1054   -2.7899    0.6387 C   0  0  0  0  0  0  0  0  0  0  0  0
    1.3077   -3.4097    0.4603 O   0  0  0  0  0  0  0  0  0  0  0  0
    1.4223   -4.7689    0.1447 C   0  0  0  0  0  0  0  0  0  0  0  0
    0.0552   -1.4050    1.0961 C   0  0  0  0  0  0  0  0  0  0  0  0
    1.2121   -0.9102    1.3167 O   0  0  0  0  0  0  0  0  0  0  0  0
    2.3922   -0.3974    1.5455 C   0  0  0  0  0  0  0  0  0  0  0  0
    3.5654   -1.2323    0.8107 C   0  0  0  0  0  0  0  0  0  0  0  0
    3.2680   -1.0579   -0.6865 C   0  0  0  0  0  0  0  0  0  0  0  0
    3.4649    0.3946   -1.0591 C   0  0  0  0  0  0  0  0  0  0  0  0
    4.8302    0.9105   -0.9990 C   0  0  0  0  0  0  0  0  0  0  0  0
    4.9335    2.3923   -1.2767 C   0  0  0  0  0  0  0  0  0  0  0  0
    6.4052    2.7845   -1.2788 C   0  0  0  0  0  0  0  0  0  0  0  0
    6.9218    2.3226   -0.0677 O   0  0  0  0  0  0  0  0  0  0  0  0
    7.1664    3.3846   -2.1071 N   0  0  0  0  0  0  0  0  0  0  0  0
    8.4907    3.6987   -2.0846 O   0  0  0  0  0  0  0  0  0  0  0  0
   -1.2337   -0.9744    1.2037 C   0  0  0  0  0  0  0  0  0  0  0  0
   -2.4108   -1.6945    0.9359 C   0  0  0  0  0  0  0  0  0  0  0  0
   -4.9963    2.3722    0.8878 C   0  0  0  0  0  0  0  0  0  0  0  0
   -6.7220    6.7382    0.8344 H   0  0  0  0  0  0  0  0  0  0  0  0
   -8.0411    2.8622   -0.5265 H   0  0  0  0  0  0  0  0  0  0  0  0
   -8.0011    0.3265   -0.5272 H   0  0  0  0  0  0  0  0  0  0  0  0
   -6.1660   -0.8024    0.4374 H   0  0  0  0  0  0  0  0  0  0  0  0
   -3.1184    0.7596    1.9863 H   0  0  0  0  0  0  0  0  0  0  0  0
   -5.4826   -3.8474    0.1304 H   0  0  0  0  0  0  0  0  0  0  0  0
   -0.9172   -4.5418    0.0793 H   0  0  0  0  0  0  0  0  0  0  0  0
    0.8420   -5.0684   -0.7293 H   0  0  0  0  0  0  0  0  0  0  0  0
    0.9901   -5.3736    1.0267 H   0  0  0  0  0  0  0  0  0  0  0  0
    2.5127   -4.9759    0.0529 H   0  0  0  0  0  0  0  0  0  0  0  0
    2.6760   -0.8119    2.6612 H   0  0  0  0  0  0  0  0  0  0  0  0
    2.6370    0.6391    1.5648 H   0  0  0  0  0  0  0  0  0  0  0  0
    3.5241   -2.2707    1.0843 H   0  0  0  0  0  0  0  0  0  0  0  0
    4.5194   -0.7543    1.0133 H   0  0  0  0  0  0  0  0  0  0  0  0
    3.8965   -1.6899   -1.2966 H   0  0  0  0  0  0  0  0  0  0  0  0
    2.1578   -1.2439   -0.8371 H   0  0  0  0  0  0  0  0  0  0  0  0
    3.0280    0.5471   -2.0830 H   0  0  0  0  0  0  0  0  0  0  0  0
    2.7460    1.0328   -0.4031 H   0  0  0  0  0  0  0  0  0  0  0  0
    5.3332    0.7241   -0.0392 H   0  0  0  0  0  0  0  0  0  0  0  0
    5.4784    0.3947   -1.8378 H   0  0  0  0  0  0  0  0  0  0  0  0
    4.5857    2.9021   -0.2611 H   0  0  0  0  0  0  0  0  0  0  0  0
    4.4120    2.8713   -2.0668 H   0  0  0  0  0  0  0  0  0  0  0  0
    6.7162    3.7802   -3.0759 H   0  0  0  0  0  0  0  0  0  0  0  0
    8.8054    4.1226   -2.9408 H   0  0  0  0  0  0  0  0  0  0  0  0
   -1.3307    0.0985    1.5046 H   0  0  0  0  0  0  0  0  0  0  0  0
   -4.1121    2.8710    1.3256 H   0  0  0  0  0  0  0  0  0  0  0  0
  1  2  3  0
  2  3  1  0
  3  4  2  0
  4  5  1  0
  5  6  2  0
  6  7  1  0
  7  8  1  0
  8  9  1  0
  9 10  2  0
 10 11  1  0
 11 12  2  0
 12 13  1  0
 13 14  2  0
 14 15  1  0
 15 16  1  0
 16 17  1  0
 15 18  2  0
 18 19  1  0
 19 20  1  0
 20 21  1  0
 21 22  1  0
 22 23  1  0
 23 24  1  0
 24 25  1  0
 25 26  1  0
 26 27  2  0
 26 28  1  0
 28 29  1  0
 18 30  1  0
 30 31  2  0
  7 32  2  0
 32  3  1  0
 31  9  1  0
 31 13  1  0
  1 33  1  0
  4 34  1  0
  5 35  1  0
  6 36  1  0
  8 37  1  0
 11 38  1  0
 14 39  1  0
 17 40  1  0
 17 41  1  0
 17 42  1  0
 20 43  1  0
 20 44  1  0
 21 45  1  0
 21 46  1  0
 22 47  1  0
 22 48  1  0
 23 49  1  0
 23 50  1  0
 24 51  1  0
 24 52  1  0
 25 53  1  0
 25 54  1  0
 28 55  1  0
 29 56  1  0
 30 57  1  0
 32 58  1  0
M  END
$$$$
