@<TRIPOS>MOLECULE
*****
 76 80 0 0 0
SMALL
GASTEIGER

@<TRIPOS>ATOM
      1 C          -4.1443    3.6563   -2.9344 C.3     1  UNL1       -0.0454
      2 C          -3.5793    4.0498   -1.5908 C.3     1  UNL1        0.0410
      3 N          -4.2137    3.3717   -0.4877 N.ar    1  UNL1       -0.2441
      4 N          -5.2620    3.7903    0.1697 N.ar    1  UNL1       -0.0645
      5 N          -5.5851    2.9226    1.1287 N.ar    1  UNL1       -0.1276
      6 C          -4.7171    1.8901    1.1049 C.ar    1  UNL1        0.1340
      7 C          -4.5890    0.7437    1.8580 C.ar    1  UNL1        0.0663
      8 N          -5.4795    0.4287    2.9181 N.am    1  UNL1       -0.2693
      9 C          -6.6486    1.1717    3.3962 C.3     1  UNL1        0.0203
     10 C          -7.6413    0.0086    3.5475 C.3     1  UNL1       -0.0285
     11 C          -6.8323   -1.1158    4.1346 C.3     1  UNL1        0.0259
     12 C          -5.4353   -0.7146    3.7746 C.2     1  UNL1        0.2199
     13 O          -4.3785   -1.2916    4.1632 O.2     1  UNL1       -0.2753
     14 C          -3.5582   -0.0949    1.5380 C.ar    1  UNL1       -0.0259
     15 C          -2.6631    0.1510    0.5190 C.ar    1  UNL1        0.0406
     16 C          -1.5725   -0.7483    0.1996 C.2     1  UNL1        0.2445
     17 O          -1.4275   -1.7676    0.9236 O.2     1  UNL1       -0.2702
     18 N          -0.6750   -0.5494   -0.8634 N.am    1  UNL1       -0.3057
     19 C           0.4238   -1.5491   -1.0992 C.3     1  UNL1        0.0545
     20 C           0.1260   -2.1587   -2.4238 C.3     1  UNL1       -0.0067
     21 C           1.0154   -3.1858   -2.9531 C.ar    1  UNL1       -0.0455
     22 C           0.9021   -4.5028   -2.5365 C.ar    1  UNL1       -0.0585
     23 C           1.7079   -5.4697   -3.0880 C.ar    1  UNL1       -0.0615
     24 C           2.6430   -5.1548   -4.0632 C.ar    1  UNL1       -0.0617
     25 C           2.7538   -3.8502   -4.4744 C.ar    1  UNL1       -0.0615
     26 C           1.9507   -2.9042   -3.9205 C.ar    1  UNL1       -0.0585
     27 C           1.6747   -0.7132   -1.0837 C.3     1  UNL1        0.0862
     28 O           1.7574    0.1951   -2.1152 O.3     1  UNL1       -0.3887
     29 C           2.9426   -1.4319   -0.8620 C.3     1  UNL1        0.0240
     30 N           4.0064   -0.5097   -0.5260 N.3     1  UNL1       -0.3095
     31 C           3.9106    0.1076    0.7493 C.3     1  UNL1        0.0213
     32 C           5.0849    1.0129    1.0019 C.ar    1  UNL1       -0.0330
     33 C           5.0073    2.3293    0.6188 C.ar    1  UNL1       -0.0573
     34 C           6.0880    3.1666    0.8552 C.ar    1  UNL1       -0.0609
     35 C           7.2079    2.6631    1.4652 C.ar    1  UNL1       -0.0501
     36 C           7.2686    1.3412    1.8427 C.ar    1  UNL1        0.0551
     37 C           8.5188    0.8677    2.5014 C.3     1  UNL1        0.4174
     38 F           9.4575    0.4958    1.5420 F       1  UNL1       -0.1659
     39 F           8.2968   -0.2093    3.3250 F       1  UNL1       -0.1659
     40 F           9.0815    1.8859    3.2515 F       1  UNL1       -0.1659
     41 C           6.1938    0.4960    1.6107 C.ar    1  UNL1       -0.0457
     42 C          -2.8163    1.3020   -0.2144 C.ar    1  UNL1       -0.0223
     43 C          -3.8514    2.2016    0.0632 C.ar    1  UNL1        0.0915
     44 H          -4.4313    2.6002   -2.9648 H       1  UNL1        0.0247
     45 H          -5.0633    4.2629   -3.0895 H       1  UNL1        0.0247
     46 H          -3.4329    3.9450   -3.7300 H       1  UNL1        0.0247
     47 H          -3.7049    5.1677   -1.5108 H       1  UNL1        0.0507
     48 H          -2.4730    3.8386   -1.6179 H       1  UNL1        0.0507
     49 H          -6.4683    1.5473    4.4271 H       1  UNL1        0.0469
     50 H          -7.0144    1.9228    2.7048 H       1  UNL1        0.0469
     51 H          -8.5207    0.2790    4.1308 H       1  UNL1        0.0285
     52 H          -7.8850   -0.2864    2.4878 H       1  UNL1        0.0285
     53 H          -6.9735   -1.2295    5.2198 H       1  UNL1        0.0359
     54 H          -7.0215   -2.0876    3.5919 H       1  UNL1        0.0359
     55 H          -3.4124   -0.9954    2.0855 H       1  UNL1        0.0644
     56 H          -0.7291    0.2616   -1.5047 H       1  UNL1        0.1494
     57 H           0.3733   -2.3149   -0.3255 H       1  UNL1        0.0527
     58 H           0.1572   -1.2923   -3.1670 H       1  UNL1        0.0332
     59 H          -0.9117   -2.6004   -2.4535 H       1  UNL1        0.0332
     60 H           0.1757   -4.7923   -1.7687 H       1  UNL1        0.0620
     61 H           1.6157   -6.5131   -2.7560 H       1  UNL1        0.0618
     62 H           3.2914   -5.8978   -4.5158 H       1  UNL1        0.0618
     63 H           3.4803   -3.5640   -5.2418 H       1  UNL1        0.0618
     64 H           2.0510   -1.8816   -4.2556 H       1  UNL1        0.0620
     65 H           1.5625    0.0082   -0.1611 H       1  UNL1        0.0624
     66 H           2.1014    1.0726   -1.8809 H       1  UNL1        0.2099
     67 H           3.2926   -2.0033   -1.7464 H       1  UNL1        0.0450
     68 H           2.8596   -2.1184    0.0273 H       1  UNL1        0.0450
     69 H           4.9600   -0.9324   -0.6177 H       1  UNL1        0.1223
     70 H           2.9853    0.6788    0.9165 H       1  UNL1        0.0473
     71 H           3.9171   -0.7035    1.5370 H       1  UNL1        0.0473
     72 H           4.1157    2.7001    0.1410 H       1  UNL1        0.0621
     73 H           6.0261    4.2013    0.5534 H       1  UNL1        0.0618
     74 H           8.0434    3.3531    1.6368 H       1  UNL1        0.0623
     75 H           6.2538   -0.5375    1.9109 H       1  UNL1        0.0626
     76 H          -2.1699    1.5833   -1.0288 H       1  UNL1        0.0647
@<TRIPOS>BOND
     1     1     2    1
     2     2     3    1
     3     3     4   ar
     4     4     5   ar
     5     5     6   ar
     6     6     7   ar
     7     7     8    1
     8     8     9    1
     9     9    10    1
    10    10    11    1
    11    11    12    1
    12    12    13    2
    13     7    14   ar
    14    14    15   ar
    15    15    16    1
    16    16    17    2
    17    16    18   am
    18    18    19    1
    19    19    20    1
    20    20    21    1
    21    21    22   ar
    22    22    23   ar
    23    23    24   ar
    24    24    25   ar
    25    25    26   ar
    26    19    27    1
    27    27    28    1
    28    27    29    1
    29    29    30    1
    30    30    31    1
    31    31    32    1
    32    32    33   ar
    33    33    34   ar
    34    34    35   ar
    35    35    36   ar
    36    36    37    1
    37    37    38    1
    38    37    39    1
    39    37    40    1
    40    36    41   ar
    41    15    42   ar
    42    42    43   ar
    43    43     3   ar
    44    43     6   ar
    45    12     8   am
    46    26    21   ar
    47    41    32   ar
    48     1    44    1
    49     1    45    1
    50     1    46    1
    51     2    47    1
    52     2    48    1
    53     9    49    1
    54     9    50    1
    55    10    51    1
    56    10    52    1
    57    11    53    1
    58    11    54    1
    59    14    55    1
    60    18    56    1
    61    19    57    1
    62    20    58    1
    63    20    59    1
    64    22    60    1
    65    23    61    1
    66    24    62    1
    67    25    63    1
    68    26    64    1
    69    27    65    1
    70    28    66    1
    71    29    67    1
    72    29    68    1
    73    30    69    1
    74    31    70    1
    75    31    71    1
    76    33    72    1
    77    34    73    1
    78    35    74    1
    79    41    75    1
    80    42    76    1
