@<TRIPOS>MOLECULE
*****
 28 29 0 0 0
SMALL
GASTEIGER

@<TRIPOS>ATOM
      1 O           4.6519    0.6148    1.0301 O.3     1  UNL1       -0.4806
      2 C           3.6715    0.2878    0.1343 C.2     1  UNL1        0.3050
      3 O           4.0729    0.1022   -1.0392 O.2     1  UNL1       -0.2510
      4 C           2.2562    0.1773    0.5848 C.3     1  UNL1        0.0488
      5 C           1.3464   -0.1938   -0.5661 C.3     1  UNL1       -0.0148
      6 C          -0.0639   -0.3301   -0.2189 C.ar    1  UNL1       -0.0061
      7 CA         -0.6490   -1.4216    0.4089 C.ar    1  UNL1        0.1285
      8 N          -1.9605   -1.2465    0.6016 N.ar    1  UNL1       -0.3488
      9 C          -2.2477   -0.0334    0.0995 C.ar    1  UNL1        0.0501
     10 C          -1.1075    0.5406   -0.4043 C.ar    1  UNL1        0.0220
     11 C          -1.2215    1.7788   -0.9519 C.ar    1  UNL1        0.0518
     12 CL          0.1778    2.5958   -1.6113 Cl      1  UNL1       -0.0828
     13 C          -2.3985    2.4776   -1.0286 C.ar    1  UNL1       -0.0243
     14 C          -3.5434    1.9063   -0.5257 C.ar    1  UNL1        0.0443
     15 CL         -5.0782    2.7307   -0.5857 Cl      1  UNL1       -0.0834
     16 C          -3.4513    0.6555    0.0328 C.ar    1  UNL1       -0.0193
     17 C          -0.0282   -2.6497    0.8418 C.2     1  UNL1        0.3536
     18 O           1.2647   -3.1360    0.7924 O.3     1  UNL1       -0.4761
     19 OXT        -0.6762   -3.5702    1.4008 O.2     1  UNL1       -0.2435
     20 H           5.5888    0.9188    0.8291 H       1  UNL1        0.2951
     21 H           2.2159   -0.6394    1.3313 H       1  UNL1        0.0381
     22 H           2.0040    1.1520    1.0238 H       1  UNL1        0.0381
     23 H           1.5076    0.5427   -1.3669 H       1  UNL1        0.0319
     24 H           1.6474   -1.2139   -0.9768 H       1  UNL1        0.0319
     25 H          -2.6789   -1.8644    1.0380 H       1  UNL1        0.1661
     26 H          -2.4988    3.4784   -1.4693 H       1  UNL1        0.0647
     27 H          -4.3625    0.2136    0.4275 H       1  UNL1        0.0653
     28 H           1.5610   -3.8738    0.1680 H       1  UNL1        0.2955
@<TRIPOS>BOND
     1     1     2    1
     2     2     3    2
     3     2     4    1
     4     4     5    1
     5     5     6    1
     6     6     7   ar
     7     7     8   ar
     8     8     9   ar
     9     9    10   ar
    10    10    11   ar
    11    11    12    1
    12    11    13   ar
    13    13    14   ar
    14    14    15    1
    15    14    16   ar
    16     7    17    1
    17    17    18    1
    18    17    19    2
    19    10     6   ar
    20    16     9   ar
    21     1    20    1
    22     4    21    1
    23     4    22    1
    24     5    23    1
    25     5    24    1
    26     8    25    1
    27    13    26    1
    28    16    27    1
    29    18    28    1
