@<TRIPOS>MOLECULE
*****
 40 39 0 0 0
SMALL
GASTEIGER

@<TRIPOS>ATOM
      1 C          -3.4676   -0.8046   -0.1486 C.3     1  UNK1        0.1037
      2 N          -4.2301   -0.4739    1.0207 N.3     1  UNK1       -0.3184
      3 C          -2.3287   -1.7415    0.1215 C.3     1  UNK1       -0.0190
      4 C          -1.3178   -1.2434    1.0838 C.3     1  UNK1        0.0249
      5 C          -0.6435    0.0111    0.6822 C.2     1  UNK1        0.1833
      6 O          -1.3798    1.1507    0.4784 O.2     1  UNK1       -0.4956
      7 N           0.6027    0.1010    0.5105 N.2     1  UNK1       -0.2402
      8 C           1.3644    1.2486    0.1258 C.3     1  UNK1        0.1504
      9 C           1.3312    2.3878    1.0506 C.3     1  UNK1        0.1235
     10 S           2.2571    3.7767    0.4728 S.O2    1  UNK1        0.0823
     11 O           2.1500    5.0170    1.6060 O.3     1  UNK1       -0.2539
     12 O           3.6941    3.4655    0.2281 O.2     1  UNK1       -0.1473
     13 O           1.7073    4.2877   -0.8467 O.2     1  UNK1       -0.1473
     14 C           2.7872    0.7372    0.0138 C.2     1  UNK1        0.2101
     15 O           4.1624    0.8987   -0.1374 O.2     1  UNK1       -0.4941
     16 N           3.1836   -0.4812    0.0479 N.2     2  GLY2       -0.2415
     17 CA          2.3869   -1.6378    0.1981 C.3     2  GLY2        0.1398
     18 C           3.2933   -2.8235    0.0248 C.2     2  GLY2        0.3264
     19 O           4.6722   -2.7842   -0.2368 O.3     2  GLY2       -0.4793
     20 OXT         2.6612   -3.9041    0.1435 O.2     2  GLY2       -0.2489
     21 C          -4.4090   -1.4774   -1.0888 C.2     1  UNK1        0.3217
     22 O          -5.7730   -1.7187   -0.8335 O.3     1  UNK1       -0.4795
     23 O          -3.9722   -1.8704   -2.2076 O.2     1  UNK1       -0.2493
     24 H          -3.0759    0.0683   -0.7112 H       1  UNK1        0.0574
     25 H          -3.8412    0.2510    1.6301 H       1  UNK1        0.1190
     26 H          -5.2191   -0.2246    0.8044 H       1  UNK1        0.1190
     27 H          -1.8644   -2.0427   -0.8152 H       1  UNK1        0.0290
     28 H          -2.7744   -2.6534    0.5716 H       1  UNK1        0.0290
     29 H          -1.7178   -1.1336    2.1197 H       1  UNK1        0.0360
     30 H          -0.5692   -2.0735    1.1900 H       1  UNK1        0.0360
     31 H          -1.1977    1.8150   -0.2798 H       1  UNK1        0.2934
     32 H           1.0756    1.5296   -0.9045 H       1  UNK1        0.0660
     33 H           1.7988    2.1161    2.0451 H       1  UNK1        0.0552
     34 H           0.3212    2.7465    1.3279 H       1  UNK1        0.0552
     35 H           1.2322    5.4178    1.5812 H       1  UNK1        0.2445
     36 H           4.8114    1.0874    0.6453 H       1  UNK1        0.2935
     37 HA1         1.9359   -1.6838    1.2308 H       2  GLY2        0.0625
     38 HA2         1.5806   -1.7386   -0.5526 H       2  GLY2        0.0625
     39 H           5.1617   -3.6530   -0.3129 H       2  GLY2        0.2951
     40 H          -6.3900   -1.9495   -1.6280 H       1  UNK1        0.2951
@<TRIPOS>BOND
     1     1     2    1
     2     1     3    1
     3     3     4    1
     4     4     5    1
     5     5     6    1
     6     5     7    2
     7     7     8    1
     8     8     9    1
     9     9    10    1
    10    10    11    1
    11    10    12    2
    12    10    13    2
    13     8    14    1
    14    14    15    1
    15    14    16    2
    16    16    17    1
    17    17    18    1
    18    18    19    1
    19    18    20    2
    20     1    21    1
    21    21    22    1
    22    21    23    2
    23     1    24    1
    24     2    25    1
    25     2    26    1
    26     3    27    1
    27     3    28    1
    28     4    29    1
    29     4    30    1
    30     6    31    1
    31     8    32    1
    32     9    33    1
    33     9    34    1
    34    11    35    1
    35    15    36    1
    36    17    37    1
    37    17    38    1
    38    19    39    1
    39    22    40    1
