
     RDKit          3D

 40 39  0  0  0  0  0  0  0  0999 V2000
   -3.4676   -0.8046   -0.1486 C   0  0  1  0  0  0  0  0  0  0  0  0
   -4.2301   -0.4739    1.0207 N   0  0  0  0  0  0  0  0  0  0  0  0
   -2.3287   -1.7415    0.1215 C   0  0  0  0  0  0  0  0  0  0  0  0
   -1.3178   -1.2434    1.0838 C   0  0  0  0  0  0  0  0  0  0  0  0
   -0.6435    0.0111    0.6822 C   0  0  0  0  0  0  0  0  0  0  0  0
   -1.3798    1.1507    0.4784 O   0  0  0  0  0  0  0  0  0  0  0  0
    0.6027    0.1010    0.5105 N   0  0  0  0  0  0  0  0  0  0  0  0
    1.3644    1.2486    0.1258 C   0  0  1  0  0  0  0  0  0  0  0  0
    1.3312    2.3878    1.0506 C   0  0  0  0  0  0  0  0  0  0  0  0
    2.2571    3.7767    0.4728 S   0  0  0  0  0  0  0  0  0  0  0  0
    2.1500    5.0170    1.6060 O   0  0  0  0  0  0  0  0  0  0  0  0
    3.6941    3.4655    0.2281 O   0  0  0  0  0  0  0  0  0  0  0  0
    1.7073    4.2877   -0.8467 O   0  0  0  0  0  0  0  0  0  0  0  0
    2.7872    0.7372    0.0138 C   0  0  0  0  0  0  0  0  0  0  0  0
    4.1624    0.8987   -0.1374 O   0  0  0  0  0  0  0  0  0  0  0  0
    3.1836   -0.4812    0.0479 N   0  0  0  0  0  0  0  0  0  0  0  0
    2.3869   -1.6378    0.1981 C   0  0  0  0  0  0  0  0  0  0  0  0
    3.2933   -2.8235    0.0248 C   0  0  0  0  0  0  0  0  0  0  0  0
    4.6722   -2.7842   -0.2368 O   0  0  0  0  0  0  0  0  0  0  0  0
    2.6612   -3.9041    0.1435 O   0  0  0  0  0  0  0  0  0  0  0  0
   -4.4090   -1.4774   -1.0888 C   0  0  0  0  0  0  0  0  0  0  0  0
   -5.7730   -1.7187   -0.8335 O   0  0  0  0  0  0  0  0  0  0  0  0
   -3.9722   -1.8704   -2.2076 O   0  0  0  0  0  0  0  0  0  0  0  0
   -3.0759    0.0683   -0.7112 H   0  0  0  0  0  0  0  0  0  0  0  0
   -3.8412    0.2510    1.6301 H   0  0  0  0  0  0  0  0  0  0  0  0
   -5.2191   -0.2246    0.8044 H   0  0  0  0  0  0  0  0  0  0  0  0
   -1.8644   -2.0427   -0.8152 H   0  0  0  0  0  0  0  0  0  0  0  0
   -2.7744   -2.6534    0.5716 H   0  0  0  0  0  0  0  0  0  0  0  0
   -1.7178   -1.1336    2.1197 H   0  0  0  0  0  0  0  0  0  0  0  0
   -0.5692   -2.0735    1.1900 H   0  0  0  0  0  0  0  0  0  0  0  0
   -1.1977    1.8150   -0.2798 H   0  0  0  0  0  0  0  0  0  0  0  0
    1.0756    1.5296   -0.9045 H   0  0  0  0  0  0  0  0  0  0  0  0
    1.7988    2.1161    2.0451 H   0  0  0  0  0  0  0  0  0  0  0  0
    0.3212    2.7465    1.3279 H   0  0  0  0  0  0  0  0  0  0  0  0
    1.2322    5.4178    1.5812 H   0  0  0  0  0  0  0  0  0  0  0  0
    4.8114    1.0874    0.6453 H   0  0  0  0  0  0  0  0  0  0  0  0
    1.9359   -1.6838    1.2308 H   0  0  0  0  0  0  0  0  0  0  0  0
    1.5806   -1.7386   -0.5526 H   0  0  0  0  0  0  0  0  0  0  0  0
    5.1617   -3.6530   -0.3129 H   0  0  0  0  0  0  0  0  0  0  0  0
   -6.3900   -1.9495   -1.6280 H   0  0  0  0  0  0  0  0  0  0  0  0
  1  2  1  0
  1  3  1  0
  3  4  1  0
  4  5  1  0
  5  6  1  0
  5  7  2  3
  7  8  1  0
  8  9  1  0
  9 10  1  0
 10 11  1  0
 10 12  2  0
 10 13  2  0
  8 14  1  0
 14 15  1  0
 14 16  2  3
 16 17  1  0
 17 18  1  0
 18 19  1  0
 18 20  2  0
  1 21  1  0
 21 22  1  0
 21 23  2  0
  1 24  1  6
  2 25  1  0
  2 26  1  0
  3 27  1  0
  3 28  1  0
  4 29  1  0
  4 30  1  0
  6 31  1  0
  8 32  1  6
  9 33  1  0
  9 34  1  0
 11 35  1  0
 15 36  1  0
 17 37  1  0
 17 38  1  0
 19 39  1  0
 22 40  1  0
M  END
$$$$
