
     RDKit          3D

 48 50  0  0  0  0  0  0  0  0999 V2000
    2.5010   -1.4781    1.2873 C   0  0  0  0  0  0  0  0  0  0  0  0
    1.7840   -0.1826    0.7594 C   0  0  0  0  0  0  0  0  0  0  0  0
    2.6797    0.0198   -0.4855 C   0  0  0  0  0  0  0  0  0  0  0  0
    4.0470    0.2000   -0.1691 N   0  0  0  0  0  0  0  0  0  0  0  0
    4.7665    0.3784   -1.4401 C   0  0  0  0  0  0  0  0  0  0  0  0
    4.2615    1.3930    0.6254 C   0  0  0  0  0  0  0  0  0  0  0  0
    0.4297   -0.5041    0.5478 C   0  0  0  0  0  0  0  0  0  0  0  0
   -0.8355   -0.1952    0.1848 N   0  0  0  0  0  0  0  0  0  0  0  0
   -1.7617   -1.3154    0.0537 C   0  0  0  0  0  0  0  0  0  0  0  0
   -1.3532   -2.4267    0.7797 C   0  0  0  0  0  0  0  0  0  0  0  0
   -2.0314   -3.6244    0.8355 C   0  0  0  0  0  0  0  0  0  0  0  0
   -3.1944   -3.7548    0.1337 C   0  0  0  0  0  0  0  0  0  0  0  0
   -3.6510   -2.6959   -0.6023 C   0  0  0  0  0  0  0  0  0  0  0  0
   -2.9567   -1.5261   -0.6361 C   0  0  0  0  0  0  0  0  0  0  0  0
   -3.5300   -0.4144   -1.4804 C   0  0  0  0  0  0  0  0  0  0  0  0
   -3.8168    0.7957   -0.6234 C   0  0  0  0  0  0  0  0  0  0  0  0
   -2.6123    1.6329   -0.4212 C   0  0  0  0  0  0  0  0  0  0  0  0
   -2.8132    2.9829   -0.5968 C   0  0  0  0  0  0  0  0  0  0  0  0
   -1.7804    3.8820   -0.4277 C   0  0  0  0  0  0  0  0  0  0  0  0
   -0.5222    3.3916   -0.0731 C   0  0  0  0  0  0  0  0  0  0  0  0
   -0.4017    2.0308    0.0837 C   0  0  0  0  0  0  0  0  0  0  0  0
   -1.3969    1.0911   -0.0729 C   0  0  0  0  0  0  0  0  0  0  0  0
    3.5712   -1.3262    1.3072 H   0  0  0  0  0  0  0  0  0  0  0  0
    2.0714   -1.6643    2.3038 H   0  0  0  0  0  0  0  0  0  0  0  0
    2.1969   -2.3350    0.6586 H   0  0  0  0  0  0  0  0  0  0  0  0
    2.1064    0.5055    1.5957 H   0  0  0  0  0  0  0  0  0  0  0  0
    2.3357    0.9075   -1.0597 H   0  0  0  0  0  0  0  0  0  0  0  0
    2.5661   -0.8773   -1.1145 H   0  0  0  0  0  0  0  0  0  0  0  0
    5.3108    1.3402   -1.4522 H   0  0  0  0  0  0  0  0  0  0  0  0
    5.4454   -0.4959   -1.5706 H   0  0  0  0  0  0  0  0  0  0  0  0
    4.0821    0.3678   -2.3130 H   0  0  0  0  0  0  0  0  0  0  0  0
    4.9899    2.0879    0.1250 H   0  0  0  0  0  0  0  0  0  0  0  0
    4.7728    1.1139    1.5861 H   0  0  0  0  0  0  0  0  0  0  0  0
    3.3216    1.9584    0.8312 H   0  0  0  0  0  0  0  0  0  0  0  0
    0.1766   -0.6858    1.6644 H   0  0  0  0  0  0  0  0  0  0  0  0
    0.6241   -1.4770   -0.0176 H   0  0  0  0  0  0  0  0  0  0  0  0
   -0.4456   -2.4059    1.3541 H   0  0  0  0  0  0  0  0  0  0  0  0
   -1.6773   -4.4645    1.4140 H   0  0  0  0  0  0  0  0  0  0  0  0
   -3.7922   -4.6406    0.1125 H   0  0  0  0  0  0  0  0  0  0  0  0
   -4.5416   -2.6469   -1.2016 H   0  0  0  0  0  0  0  0  0  0  0  0
   -4.4685   -0.8058   -1.8646 H   0  0  0  0  0  0  0  0  0  0  0  0
   -2.7910   -0.1288   -2.2655 H   0  0  0  0  0  0  0  0  0  0  0  0
   -4.5526    1.4127   -1.1975 H   0  0  0  0  0  0  0  0  0  0  0  0
   -4.2579    0.5018    0.3574 H   0  0  0  0  0  0  0  0  0  0  0  0
   -3.7965    3.3350   -0.8708 H   0  0  0  0  0  0  0  0  0  0  0  0
   -1.9378    4.9421   -0.5657 H   0  0  0  0  0  0  0  0  0  0  0  0
    0.2970    4.0807    0.0634 H   0  0  0  0  0  0  0  0  0  0  0  0
    0.5810    1.7198    0.3618 H   0  0  0  0  0  0  0  0  0  0  0  0
  1  2  1  0
  2  3  1  0
  3  4  1  0
  4  5  1  0
  4  6  1  0
  2  7  1  0
  7  8  1  0
  8  9  1  0
  9 10  2  0
 10 11  1  0
 11 12  2  0
 12 13  1  0
 13 14  2  0
 14 15  1  0
 15 16  1  0
 16 17  1  0
 17 18  2  0
 18 19  1  0
 19 20  2  0
 20 21  1  0
 21 22  2  0
 22  8  1  0
 14  9  1  0
 22 17  1  0
  1 23  1  0
  1 24  1  0
  1 25  1  0
  2 26  1  0
  3 27  1  0
  3 28  1  0
  5 29  1  0
  5 30  1  0
  5 31  1  0
  6 32  1  0
  6 33  1  0
  6 34  1  0
  7 35  1  0
  7 36  1  0
 10 37  1  0
 11 38  1  0
 12 39  1  0
 13 40  1  0
 15 41  1  0
 15 42  1  0
 16 43  1  0
 16 44  1  0
 18 45  1  0
 19 46  1  0
 20 47  1  0
 21 48  1  0
M  END
$$$$
