@<TRIPOS>MOLECULE
*****
 57 60 0 0 0
SMALL
GASTEIGER

@<TRIPOS>ATOM
      1 C           2.1926   -3.0751   -2.2352 C.3     1  UNL1        0.0790
      2 O           3.3258   -2.4240   -1.7026 O.3     1  UNL1       -0.4913
      3 C           3.2360   -1.2731   -0.9309 C.ar    1  UNL1        0.1658
      4 C           2.0466   -0.6597   -0.6126 C.ar    1  UNL1       -0.0069
      5 C           1.9545    0.4871    0.1561 C.ar    1  UNL1        0.0077
      6 C           0.6404    1.0716    0.4444 C.ar    1  UNL1        0.0771
      7 C           0.4840    2.1950    1.1919 C.ar    1  UNL1       -0.0077
      8 C          -0.7625    2.7686    1.4783 C.ar    1  UNL1        0.0999
      9 N          -1.1908    3.8372    2.1664 N.ar    1  UNL1       -0.1712
     10 N          -2.5125    3.9198    2.1144 N.ar    1  UNL1       -0.2732
     11 C          -3.3729    4.9271    2.7260 C.3     1  UNL1        0.0302
     12 C          -2.9650    2.8885    1.3796 C.ar    1  UNL1        0.0380
     13 C          -1.8597    2.1418    0.9645 C.ar    1  UNL1        0.0812
     14 C          -1.6948    1.0015    0.2064 C.ar    1  UNL1        0.2265
     15 O          -2.8669    0.4232   -0.2807 O.3     1  UNL1       -0.4725
     16 C          -2.9164   -0.7276   -1.0635 C.3     1  UNL1        0.1037
     17 C          -3.5210   -0.4071   -2.3909 C.3     1  UNL1       -0.0274
     18 C          -3.6805   -1.7864   -0.3067 C.3     1  UNL1        0.0196
     19 C          -3.7900   -3.0818   -1.0789 C.3     1  UNL1        0.0182
     20 N          -4.1442   -4.0251   -0.0353 N.am    1  UNL1       -0.3149
     21 C          -3.6013   -3.5587    1.1981 C.2     1  UNL1        0.2135
     22 O          -3.6390   -4.1116    2.3384 O.2     1  UNL1       -0.2758
     23 C          -2.9372   -2.2346    0.9323 C.3     1  UNL1        0.0315
     24 N          -0.4846    0.4822   -0.0463 N.ar    1  UNL1       -0.2122
     25 C           3.1175    1.0399    0.6250 C.ar    1  UNL1       -0.0069
     26 C           4.3486    0.4612    0.3335 C.ar    1  UNL1        0.1658
     27 O           5.4788    1.0586    0.8299 O.3     1  UNL1       -0.4913
     28 C           5.3782    2.2262    1.6120 C.3     1  UNL1        0.0790
     29 C           4.3850   -0.6903   -0.4429 C.ar    1  UNL1        0.2035
     30 O           5.6467   -1.2156   -0.6957 O.3     1  UNL1       -0.4885
     31 C           6.3234   -0.7647   -1.8451 C.3     1  UNL1        0.0791
     32 H           1.6651   -3.6235   -1.4527 H       1  UNL1        0.0660
     33 H           1.5165   -2.2533   -2.6096 H       1  UNL1        0.0660
     34 H           2.4283   -3.7171   -3.0843 H       1  UNL1        0.0660
     35 H           1.1228   -1.0926   -0.9807 H       1  UNL1        0.0662
     36 H           1.3263    2.7248    1.6192 H       1  UNL1        0.0661
     37 H          -4.3508    4.4655    2.9689 H       1  UNL1        0.0473
     38 H          -3.5165    5.7810    2.0292 H       1  UNL1        0.0473
     39 H          -2.8427    5.2955    3.6357 H       1  UNL1        0.0473
     40 H          -3.9839    2.6306    1.1219 H       1  UNL1        0.0834
     41 H          -1.8760   -1.0876   -1.2224 H       1  UNL1        0.0734
     42 H          -4.6311   -0.3235   -2.3022 H       1  UNL1        0.0265
     43 H          -3.2179   -1.1383   -3.1614 H       1  UNL1        0.0265
     44 H          -3.1730    0.5864   -2.7442 H       1  UNL1        0.0265
     45 H          -4.6983   -1.4440   -0.0546 H       1  UNL1        0.0356
     46 H          -4.6194   -3.0610   -1.8152 H       1  UNL1        0.0466
     47 H          -2.8276   -3.3892   -1.4996 H       1  UNL1        0.0466
     48 H          -4.6958   -4.9074   -0.1069 H       1  UNL1        0.1487
     49 H          -1.8827   -2.4388    0.6559 H       1  UNL1        0.0363
     50 H          -3.0509   -1.5514    1.7804 H       1  UNL1        0.0363
     51 H           3.0887    1.9387    1.2309 H       1  UNL1        0.0662
     52 H           4.7632    2.0239    2.5287 H       1  UNL1        0.0660
     53 H           6.3882    2.5846    1.8900 H       1  UNL1        0.0660
     54 H           4.8538    3.0388    1.0547 H       1  UNL1        0.0660
     55 H           6.9643    0.1232   -1.6022 H       1  UNL1        0.0660
     56 H           5.6323   -0.5050   -2.6792 H       1  UNL1        0.0660
     57 H           6.9985   -1.5542   -2.2305 H       1  UNL1        0.0660
@<TRIPOS>BOND
     1     1     2    1
     2     2     3    1
     3     3     4   ar
     4     4     5   ar
     5     5     6    1
     6     6     7   ar
     7     7     8   ar
     8     8     9   ar
     9     9    10   ar
    10    10    11    1
    11    10    12   ar
    12    12    13   ar
    13    13    14   ar
    14    14    15    1
    15    15    16    1
    16    16    17    1
    17    16    18    1
    18    18    19    1
    19    19    20    1
    20    20    21   am
    21    21    22    2
    22    21    23    1
    23    14    24   ar
    24     5    25   ar
    25    25    26   ar
    26    26    27    1
    27    27    28    1
    28    26    29   ar
    29    29    30    1
    30    30    31    1
    31    29     3   ar
    32    24     6   ar
    33    13     8   ar
    34    23    18    1
    35     1    32    1
    36     1    33    1
    37     1    34    1
    38     4    35    1
    39     7    36    1
    40    11    37    1
    41    11    38    1
    42    11    39    1
    43    12    40    1
    44    16    41    1
    45    17    42    1
    46    17    43    1
    47    17    44    1
    48    18    45    1
    49    19    46    1
    50    19    47    1
    51    20    48    1
    52    23    49    1
    53    23    50    1
    54    25    51    1
    55    28    52    1
    56    28    53    1
    57    28    54    1
    58    31    55    1
    59    31    56    1
    60    31    57    1
