
     RDKit          3D

 57 60  0  0  0  0  0  0  0  0999 V2000
    2.1926   -3.0751   -2.2352 C   0  0  0  0  0  0  0  0  0  0  0  0
    3.3258   -2.4240   -1.7026 O   0  0  0  0  0  0  0  0  0  0  0  0
    3.2360   -1.2731   -0.9309 C   0  0  0  0  0  0  0  0  0  0  0  0
    2.0466   -0.6597   -0.6126 C   0  0  0  0  0  0  0  0  0  0  0  0
    1.9545    0.4871    0.1561 C   0  0  0  0  0  0  0  0  0  0  0  0
    0.6404    1.0716    0.4444 C   0  0  0  0  0  0  0  0  0  0  0  0
    0.4840    2.1950    1.1919 C   0  0  0  0  0  0  0  0  0  0  0  0
   -0.7625    2.7686    1.4783 C   0  0  0  0  0  0  0  0  0  0  0  0
   -1.1908    3.8372    2.1664 N   0  0  0  0  0  0  0  0  0  0  0  0
   -2.5125    3.9198    2.1144 N   0  0  0  0  0  0  0  0  0  0  0  0
   -3.3729    4.9271    2.7260 C   0  0  0  0  0  0  0  0  0  0  0  0
   -2.9650    2.8885    1.3796 C   0  0  0  0  0  0  0  0  0  0  0  0
   -1.8597    2.1418    0.9645 C   0  0  0  0  0  0  0  0  0  0  0  0
   -1.6948    1.0015    0.2064 C   0  0  0  0  0  0  0  0  0  0  0  0
   -2.8669    0.4232   -0.2807 O   0  0  0  0  0  0  0  0  0  0  0  0
   -2.9164   -0.7276   -1.0635 C   0  0  2  0  0  0  0  0  0  0  0  0
   -3.5210   -0.4071   -2.3909 C   0  0  0  0  0  0  0  0  0  0  0  0
   -3.6805   -1.7864   -0.3067 C   0  0  1  0  0  0  0  0  0  0  0  0
   -3.7900   -3.0818   -1.0789 C   0  0  0  0  0  0  0  0  0  0  0  0
   -4.1442   -4.0251   -0.0353 N   0  0  0  0  0  0  0  0  0  0  0  0
   -3.6013   -3.5587    1.1981 C   0  0  0  0  0  0  0  0  0  0  0  0
   -3.6390   -4.1116    2.3384 O   0  0  0  0  0  0  0  0  0  0  0  0
   -2.9372   -2.2346    0.9323 C   0  0  0  0  0  0  0  0  0  0  0  0
   -0.4846    0.4822   -0.0463 N   0  0  0  0  0  0  0  0  0  0  0  0
    3.1175    1.0399    0.6250 C   0  0  0  0  0  0  0  0  0  0  0  0
    4.3486    0.4612    0.3335 C   0  0  0  0  0  0  0  0  0  0  0  0
    5.4788    1.0586    0.8299 O   0  0  0  0  0  0  0  0  0  0  0  0
    5.3782    2.2262    1.6120 C   0  0  0  0  0  0  0  0  0  0  0  0
    4.3850   -0.6903   -0.4429 C   0  0  0  0  0  0  0  0  0  0  0  0
    5.6467   -1.2156   -0.6957 O   0  0  0  0  0  0  0  0  0  0  0  0
    6.3234   -0.7647   -1.8451 C   0  0  0  0  0  0  0  0  0  0  0  0
    1.6651   -3.6235   -1.4527 H   0  0  0  0  0  0  0  0  0  0  0  0
    1.5165   -2.2533   -2.6096 H   0  0  0  0  0  0  0  0  0  0  0  0
    2.4283   -3.7171   -3.0843 H   0  0  0  0  0  0  0  0  0  0  0  0
    1.1228   -1.0926   -0.9807 H   0  0  0  0  0  0  0  0  0  0  0  0
    1.3263    2.7248    1.6192 H   0  0  0  0  0  0  0  0  0  0  0  0
   -4.3508    4.4655    2.9689 H   0  0  0  0  0  0  0  0  0  0  0  0
   -3.5165    5.7810    2.0292 H   0  0  0  0  0  0  0  0  0  0  0  0
   -2.8427    5.2955    3.6357 H   0  0  0  0  0  0  0  0  0  0  0  0
   -3.9839    2.6306    1.1219 H   0  0  0  0  0  0  0  0  0  0  0  0
   -1.8760   -1.0876   -1.2224 H   0  0  0  0  0  0  0  0  0  0  0  0
   -4.6311   -0.3235   -2.3022 H   0  0  0  0  0  0  0  0  0  0  0  0
   -3.2179   -1.1383   -3.1614 H   0  0  0  0  0  0  0  0  0  0  0  0
   -3.1730    0.5864   -2.7442 H   0  0  0  0  0  0  0  0  0  0  0  0
   -4.6983   -1.4440   -0.0546 H   0  0  0  0  0  0  0  0  0  0  0  0
   -4.6194   -3.0610   -1.8152 H   0  0  0  0  0  0  0  0  0  0  0  0
   -2.8276   -3.3892   -1.4996 H   0  0  0  0  0  0  0  0  0  0  0  0
   -4.6958   -4.9074   -0.1069 H   0  0  0  0  0  0  0  0  0  0  0  0
   -1.8827   -2.4388    0.6559 H   0  0  0  0  0  0  0  0  0  0  0  0
   -3.0509   -1.5514    1.7804 H   0  0  0  0  0  0  0  0  0  0  0  0
    3.0887    1.9387    1.2309 H   0  0  0  0  0  0  0  0  0  0  0  0
    4.7632    2.0239    2.5287 H   0  0  0  0  0  0  0  0  0  0  0  0
    6.3882    2.5846    1.8900 H   0  0  0  0  0  0  0  0  0  0  0  0
    4.8538    3.0388    1.0547 H   0  0  0  0  0  0  0  0  0  0  0  0
    6.9643    0.1232   -1.6022 H   0  0  0  0  0  0  0  0  0  0  0  0
    5.6323   -0.5050   -2.6792 H   0  0  0  0  0  0  0  0  0  0  0  0
    6.9985   -1.5542   -2.2305 H   0  0  0  0  0  0  0  0  0  0  0  0
  1  2  1  0
  2  3  1  0
  3  4  2  0
  4  5  1  0
  5  6  1  0
  6  7  2  0
  7  8  1  0
  8  9  2  0
  9 10  1  0
 10 11  1  0
 10 12  1  0
 12 13  2  0
 13 14  1  0
 14 15  1  0
 15 16  1  0
 16 17  1  0
 16 18  1  0
 18 19  1  0
 19 20  1  0
 20 21  1  0
 21 22  2  0
 21 23  1  0
 14 24  2  0
  5 25  2  0
 25 26  1  0
 26 27  1  0
 27 28  1  0
 26 29  2  0
 29 30  1  0
 30 31  1  0
 29  3  1  0
 24  6  1  0
 13  8  1  0
 23 18  1  0
  1 32  1  0
  1 33  1  0
  1 34  1  0
  4 35  1  0
  7 36  1  0
 11 37  1  0
 11 38  1  0
 11 39  1  0
 12 40  1  0
 16 41  1  6
 17 42  1  0
 17 43  1  0
 17 44  1  0
 18 45  1  1
 19 46  1  0
 19 47  1  0
 20 48  1  0
 23 49  1  0
 23 50  1  0
 25 51  1  0
 28 52  1  0
 28 53  1  0
 28 54  1  0
 31 55  1  0
 31 56  1  0
 31 57  1  0
M  END
$$$$
