@<TRIPOS>MOLECULE
*****
 39 41 0 0 0
SMALL
GASTEIGER

@<TRIPOS>ATOM
      1 C           0.1216    0.1716   -0.5466 C.2     1  UNL1       -0.0745
      2 C           1.4857   -0.0237   -0.9208 C.3     1  UNL1       -0.0211
      3 C           2.4647    0.7301    0.0003 C.3     1  UNL1        0.0018
      4 N           3.8051    0.4859   -0.4357 N.3     1  UNL1       -0.3081
      5 C           4.7349    1.1910    0.4248 C.3     1  UNL1       -0.0130
      6 C           4.1968   -0.8930   -0.4267 C.3     1  UNL1       -0.0130
      7 C          -1.1215   -0.0051   -0.1658 C.2     1  UNL1       -0.0125
      8 C          -2.0455    1.1202   -0.0223 C.ar    1  UNL1       -0.0025
      9 C          -1.6361    2.4170   -0.2694 C.ar    1  UNL1       -0.0346
     10 C          -2.4113    3.5456   -0.1646 C.ar    1  UNL1        0.0416
     11 CL         -1.8602    5.1763   -0.4857 Cl      1  UNL1       -0.0835
     12 C          -3.7293    3.4069    0.2220 C.ar    1  UNL1       -0.0423
     13 C          -4.1891    2.1349    0.4809 C.ar    1  UNL1       -0.0460
     14 C          -3.3425    1.0683    0.3496 C.ar    1  UNL1        0.0205
     15 S          -4.0536   -0.4990    0.7084 S.3     1  UNL1       -0.0882
     16 C          -2.8133   -1.7480    0.4954 C.ar    1  UNL1        0.0205
     17 C          -1.5708   -1.3569    0.1030 C.ar    1  UNL1       -0.0039
     18 C          -0.7579   -2.4628   -0.0097 C.ar    1  UNL1       -0.0530
     19 C          -1.0922   -3.7765    0.2239 C.ar    1  UNL1       -0.0611
     20 C          -2.3842   -4.0532    0.6183 C.ar    1  UNL1       -0.0607
     21 C          -3.2676   -3.0096    0.7574 C.ar    1  UNL1       -0.0474
     22 H           0.3137    1.2116   -0.7415 H       1  UNL1        0.0579
     23 H           1.7777    0.2434   -1.9718 H       1  UNL1        0.0320
     24 H           1.8897   -1.0859   -0.8505 H       1  UNL1        0.0320
     25 H           2.2797    1.8031    0.0201 H       1  UNL1        0.0429
     26 H           2.3103    0.3224    1.0212 H       1  UNL1        0.0429
     27 H           4.9899    0.5784    1.3290 H       1  UNL1        0.0391
     28 H           4.3892    2.1610    0.7818 H       1  UNL1        0.0391
     29 H           5.6941    1.2471   -0.1610 H       1  UNL1        0.0391
     30 H           3.8450   -1.4919   -1.2672 H       1  UNL1        0.0391
     31 H           4.0102   -1.3715    0.5615 H       1  UNL1        0.0391
     32 H           5.3232   -0.8895   -0.5136 H       1  UNL1        0.0391
     33 H          -0.6408    2.6838   -0.5762 H       1  UNL1        0.0638
     34 H          -4.3839    4.2561    0.3210 H       1  UNL1        0.0632
     35 H          -5.2065    2.0366    0.7784 H       1  UNL1        0.0629
     36 H           0.2581   -2.3747   -0.3076 H       1  UNL1        0.0624
     37 H          -0.4287   -4.6184    0.1255 H       1  UNL1        0.0618
     38 H          -2.6865   -5.0660    0.8110 H       1  UNL1        0.0618
     39 H          -4.2682   -3.2658    1.0673 H       1  UNL1        0.0629
@<TRIPOS>BOND
     1     1     2    1
     2     2     3    1
     3     3     4    1
     4     4     5    1
     5     4     6    1
     6     1     7    2
     7     7     8    1
     8     8     9   ar
     9     9    10   ar
    10    10    11    1
    11    10    12   ar
    12    12    13   ar
    13    13    14   ar
    14    14    15    1
    15    15    16    1
    16    16    17   ar
    17    17    18   ar
    18    18    19   ar
    19    19    20   ar
    20    20    21   ar
    21    17     7    1
    22    14     8   ar
    23    21    16   ar
    24     1    22    1
    25     2    23    1
    26     2    24    1
    27     3    25    1
    28     3    26    1
    29     5    27    1
    30     5    28    1
    31     5    29    1
    32     6    30    1
    33     6    31    1
    34     6    32    1
    35     9    33    1
    36    12    34    1
    37    13    35    1
    38    18    36    1
    39    19    37    1
    40    20    38    1
    41    21    39    1
