@<TRIPOS>MOLECULE
*****
 67 72 0 0 0
SMALL
GASTEIGER

@<TRIPOS>ATOM
      1 C           6.2749    3.0841   -0.7655 C.3     1  UNL1        0.0032
      2 N           6.7813    2.3434    0.3957 N.am    1  UNL1       -0.3024
      3 C           8.1221    2.6425    0.8527 C.3     1  UNL1        0.0032
      4 C           5.9681    1.3784    1.0493 C.2     1  UNL1        0.2627
      5 O           6.5007    0.7788    2.0476 O.2     1  UNL1       -0.2684
      6 C           4.6150    1.0725    0.6343 C.ar    1  UNL1        0.1070
      7 C           3.5753    1.9556    0.8413 C.ar    1  UNL1       -0.0209
      8 C           2.4486    1.3369    0.3614 C.ar    1  UNL1        0.0378
      9 C           1.1110    1.7050    0.3096 C.ar    1  UNL1        0.0419
     10 N           0.2020    0.8630   -0.2088 N.ar    1  UNL1       -0.2219
     11 C           0.5777   -0.3288   -0.6776 C.ar    1  UNL1        0.2224
     12 N          -0.4091   -1.2597   -1.1717 N.pl3   1  UNL1       -0.2685
     13 C          -1.7371   -1.2102   -0.6678 C.ar    1  UNL1        0.1250
     14 C          -2.7103   -2.0553   -1.1182 C.ar    1  UNL1       -0.0208
     15 C          -3.9780   -2.0600   -0.5763 C.ar    1  UNL1       -0.0449
     16 C          -4.3029   -1.1959    0.4540 C.ar    1  UNL1        0.0551
     17 C          -5.6067   -1.2134    1.0903 C.2     1  UNL1        0.2483
     18 O          -5.6117   -1.8283    2.2278 O.2     1  UNL1       -0.2699
     19 N          -6.7698   -0.6418    0.5691 N.am    1  UNL1       -0.2940
     20 C          -8.0684   -0.7091    1.2624 C.3     1  UNL1        0.0205
     21 C          -8.9553    0.1736    0.4121 C.3     1  UNL1        0.0026
     22 C          -8.4290   -0.2361   -0.9647 C.3     1  UNL1       -0.0276
     23 C          -6.9552    0.0815   -0.6326 C.3     1  UNL1        0.0290
     24 C          -7.1369    1.5439   -0.2558 C.3     1  UNL1       -0.0078
     25 C          -8.4304    1.5663    0.5391 C.3     1  UNL1        0.0612
     26 O          -9.3077    2.4669   -0.0571 O.3     1  UNL1       -0.3914
     27 C          -3.2966   -0.3374    0.8986 C.ar    1  UNL1        0.0418
     28 N          -2.0800   -0.3698    0.3398 N.ar    1  UNL1       -0.2394
     29 N           1.8789   -0.6712   -0.6215 N.ar    1  UNL1       -0.1962
     30 C           2.8427    0.1222   -0.1133 C.ar    1  UNL1        0.1466
     31 N           4.1969   -0.0455    0.0567 N.ar    1  UNL1       -0.3180
     32 C           4.8673   -1.2365   -0.3386 C.3     1  UNL1        0.0366
     33 C           6.2484   -1.0880   -0.8672 C.3     1  UNL1       -0.0320
     34 C           6.6341   -2.5724   -1.0261 C.3     1  UNL1       -0.0511
     35 C           5.9441   -3.2705    0.1234 C.3     1  UNL1       -0.0511
     36 C           5.0598   -2.2318    0.7890 C.3     1  UNL1       -0.0320
     37 H           6.9969    3.0355   -1.6130 H       1  UNL1        0.0428
     38 H           6.2031    4.1447   -0.4332 H       1  UNL1        0.0428
     39 H           5.2979    2.7143   -1.0935 H       1  UNL1        0.0428
     40 H           8.7568    3.0279    0.0348 H       1  UNL1        0.0428
     41 H           8.0734    3.4116    1.6687 H       1  UNL1        0.0428
     42 H           8.6048    1.7542    1.3310 H       1  UNL1        0.0428
     43 H           3.5816    2.9359    1.2787 H       1  UNL1        0.0647
     44 H           0.8733    2.6875    0.7062 H       1  UNL1        0.0838
     45 H          -0.1879   -1.9743   -1.8905 H       1  UNL1        0.1564
     46 H          -2.4944   -2.7590   -1.9375 H       1  UNL1        0.0652
     47 H          -4.7710   -2.7058   -0.9059 H       1  UNL1        0.0627
     48 H          -7.9486   -0.3490    2.2998 H       1  UNL1        0.0468
     49 H          -8.4724   -1.7399    1.2223 H       1  UNL1        0.0468
     50 H         -10.0107    0.0488    0.5527 H       1  UNL1        0.0341
     51 H          -8.8293    0.4414   -1.7256 H       1  UNL1        0.0287
     52 H          -8.5878   -1.3074   -1.1444 H       1  UNL1        0.0287
     53 H          -6.2841   -0.1048   -1.4471 H       1  UNL1        0.0501
     54 H          -7.1650    2.2147   -1.1372 H       1  UNL1        0.0308
     55 H          -6.3054    1.7873    0.4445 H       1  UNL1        0.0308
     56 H          -8.2356    1.8477    1.6048 H       1  UNL1        0.0597
     57 H          -8.9143    2.9543   -0.8241 H       1  UNL1        0.2098
     58 H          -3.5051    0.3579    1.7029 H       1  UNL1        0.0838
     59 H           4.2873   -1.8047   -1.1275 H       1  UNL1        0.0528
     60 H           6.2929   -0.5829   -1.8608 H       1  UNL1        0.0285
     61 H           6.9839   -0.6844   -0.1763 H       1  UNL1        0.0285
     62 H           6.2532   -2.9554   -2.0138 H       1  UNL1        0.0266
     63 H           7.7252   -2.7177   -1.0088 H       1  UNL1        0.0266
     64 H           5.3169   -4.1269   -0.2665 H       1  UNL1        0.0266
     65 H           6.6845   -3.6458    0.8619 H       1  UNL1        0.0266
     66 H           4.0852   -2.6591    1.1154 H       1  UNL1        0.0285
     67 H           5.6311   -1.7999    1.6090 H       1  UNL1        0.0285
@<TRIPOS>BOND
     1     1     2    1
     2     2     3    1
     3     2     4   am
     4     4     5    2
     5     4     6    1
     6     6     7   ar
     7     7     8   ar
     8     8     9   ar
     9     9    10   ar
    10    10    11   ar
    11    11    12    1
    12    12    13    1
    13    13    14   ar
    14    14    15   ar
    15    15    16   ar
    16    16    17    1
    17    17    18    2
    18    17    19   am
    19    19    20    1
    20    20    21    1
    21    21    22    1
    22    22    23    1
    23    23    24    1
    24    24    25    1
    25    25    26    1
    26    16    27   ar
    27    27    28   ar
    28    11    29   ar
    29    29    30   ar
    30    30    31   ar
    31    31    32    1
    32    32    33    1
    33    33    34    1
    34    34    35    1
    35    35    36    1
    36    31     6   ar
    37    36    32    1
    38    30     8   ar
    39    28    13   ar
    40    23    19    1
    41    25    21    1
    42     1    37    1
    43     1    38    1
    44     1    39    1
    45     3    40    1
    46     3    41    1
    47     3    42    1
    48     7    43    1
    49     9    44    1
    50    12    45    1
    51    14    46    1
    52    15    47    1
    53    20    48    1
    54    20    49    1
    55    21    50    1
    56    22    51    1
    57    22    52    1
    58    23    53    1
    59    24    54    1
    60    24    55    1
    61    25    56    1
    62    26    57    1
    63    27    58    1
    64    32    59    1
    65    33    60    1
    66    33    61    1
    67    34    62    1
    68    34    63    1
    69    35    64    1
    70    35    65    1
    71    36    66    1
    72    36    67    1
