
     RDKit          3D

 67 72  0  0  0  0  0  0  0  0999 V2000
    6.2749    3.0841   -0.7655 C   0  0  0  0  0  0  0  0  0  0  0  0
    6.7813    2.3434    0.3957 N   0  0  0  0  0  0  0  0  0  0  0  0
    8.1221    2.6425    0.8527 C   0  0  0  0  0  0  0  0  0  0  0  0
    5.9681    1.3784    1.0493 C   0  0  0  0  0  0  0  0  0  0  0  0
    6.5007    0.7788    2.0476 O   0  0  0  0  0  0  0  0  0  0  0  0
    4.6150    1.0725    0.6343 C   0  0  0  0  0  0  0  0  0  0  0  0
    3.5753    1.9556    0.8413 C   0  0  0  0  0  0  0  0  0  0  0  0
    2.4486    1.3369    0.3614 C   0  0  0  0  0  0  0  0  0  0  0  0
    1.1110    1.7050    0.3096 C   0  0  0  0  0  0  0  0  0  0  0  0
    0.2020    0.8630   -0.2088 N   0  0  0  0  0  0  0  0  0  0  0  0
    0.5777   -0.3288   -0.6776 C   0  0  0  0  0  0  0  0  0  0  0  0
   -0.4091   -1.2597   -1.1717 N   0  0  0  0  0  0  0  0  0  0  0  0
   -1.7371   -1.2102   -0.6678 C   0  0  0  0  0  0  0  0  0  0  0  0
   -2.7103   -2.0553   -1.1182 C   0  0  0  0  0  0  0  0  0  0  0  0
   -3.9780   -2.0600   -0.5763 C   0  0  0  0  0  0  0  0  0  0  0  0
   -4.3029   -1.1959    0.4540 C   0  0  0  0  0  0  0  0  0  0  0  0
   -5.6067   -1.2134    1.0903 C   0  0  0  0  0  0  0  0  0  0  0  0
   -5.6117   -1.8283    2.2278 O   0  0  0  0  0  0  0  0  0  0  0  0
   -6.7698   -0.6418    0.5691 N   0  0  0  0  0  0  0  0  0  0  0  0
   -8.0684   -0.7091    1.2624 C   0  0  0  0  0  0  0  0  0  0  0  0
   -8.9553    0.1736    0.4121 C   0  0  2  0  0  0  0  0  0  0  0  0
   -8.4290   -0.2361   -0.9647 C   0  0  0  0  0  0  0  0  0  0  0  0
   -6.9552    0.0815   -0.6326 C   0  0  1  0  0  0  0  0  0  0  0  0
   -7.1369    1.5439   -0.2558 C   0  0  0  0  0  0  0  0  0  0  0  0
   -8.4304    1.5663    0.5391 C   0  0  1  0  0  0  0  0  0  0  0  0
   -9.3077    2.4669   -0.0571 O   0  0  0  0  0  0  0  0  0  0  0  0
   -3.2966   -0.3374    0.8986 C   0  0  0  0  0  0  0  0  0  0  0  0
   -2.0800   -0.3698    0.3398 N   0  0  0  0  0  0  0  0  0  0  0  0
    1.8789   -0.6712   -0.6215 N   0  0  0  0  0  0  0  0  0  0  0  0
    2.8427    0.1222   -0.1133 C   0  0  0  0  0  0  0  0  0  0  0  0
    4.1969   -0.0455    0.0567 N   0  0  0  0  0  0  0  0  0  0  0  0
    4.8673   -1.2365   -0.3386 C   0  0  0  0  0  0  0  0  0  0  0  0
    6.2484   -1.0880   -0.8672 C   0  0  0  0  0  0  0  0  0  0  0  0
    6.6341   -2.5724   -1.0261 C   0  0  0  0  0  0  0  0  0  0  0  0
    5.9441   -3.2705    0.1234 C   0  0  0  0  0  0  0  0  0  0  0  0
    5.0598   -2.2318    0.7890 C   0  0  0  0  0  0  0  0  0  0  0  0
    6.9969    3.0355   -1.6130 H   0  0  0  0  0  0  0  0  0  0  0  0
    6.2031    4.1447   -0.4332 H   0  0  0  0  0  0  0  0  0  0  0  0
    5.2979    2.7143   -1.0935 H   0  0  0  0  0  0  0  0  0  0  0  0
    8.7568    3.0279    0.0348 H   0  0  0  0  0  0  0  0  0  0  0  0
    8.0734    3.4116    1.6687 H   0  0  0  0  0  0  0  0  0  0  0  0
    8.6048    1.7542    1.3310 H   0  0  0  0  0  0  0  0  0  0  0  0
    3.5816    2.9359    1.2787 H   0  0  0  0  0  0  0  0  0  0  0  0
    0.8733    2.6875    0.7062 H   0  0  0  0  0  0  0  0  0  0  0  0
   -0.1879   -1.9743   -1.8905 H   0  0  0  0  0  0  0  0  0  0  0  0
   -2.4944   -2.7590   -1.9375 H   0  0  0  0  0  0  0  0  0  0  0  0
   -4.7710   -2.7058   -0.9059 H   0  0  0  0  0  0  0  0  0  0  0  0
   -7.9486   -0.3490    2.2998 H   0  0  0  0  0  0  0  0  0  0  0  0
   -8.4724   -1.7399    1.2223 H   0  0  0  0  0  0  0  0  0  0  0  0
  -10.0107    0.0488    0.5527 H   0  0  0  0  0  0  0  0  0  0  0  0
   -8.8293    0.4414   -1.7256 H   0  0  0  0  0  0  0  0  0  0  0  0
   -8.5878   -1.3074   -1.1444 H   0  0  0  0  0  0  0  0  0  0  0  0
   -6.2841   -0.1048   -1.4471 H   0  0  0  0  0  0  0  0  0  0  0  0
   -7.1650    2.2147   -1.1372 H   0  0  0  0  0  0  0  0  0  0  0  0
   -6.3054    1.7873    0.4445 H   0  0  0  0  0  0  0  0  0  0  0  0
   -8.2356    1.8477    1.6048 H   0  0  0  0  0  0  0  0  0  0  0  0
   -8.9143    2.9543   -0.8241 H   0  0  0  0  0  0  0  0  0  0  0  0
   -3.5051    0.3579    1.7029 H   0  0  0  0  0  0  0  0  0  0  0  0
    4.2873   -1.8047   -1.1275 H   0  0  0  0  0  0  0  0  0  0  0  0
    6.2929   -0.5829   -1.8608 H   0  0  0  0  0  0  0  0  0  0  0  0
    6.9839   -0.6844   -0.1763 H   0  0  0  0  0  0  0  0  0  0  0  0
    6.2532   -2.9554   -2.0138 H   0  0  0  0  0  0  0  0  0  0  0  0
    7.7252   -2.7177   -1.0088 H   0  0  0  0  0  0  0  0  0  0  0  0
    5.3169   -4.1269   -0.2665 H   0  0  0  0  0  0  0  0  0  0  0  0
    6.6845   -3.6458    0.8619 H   0  0  0  0  0  0  0  0  0  0  0  0
    4.0852   -2.6591    1.1154 H   0  0  0  0  0  0  0  0  0  0  0  0
    5.6311   -1.7999    1.6090 H   0  0  0  0  0  0  0  0  0  0  0  0
  1  2  1  0
  2  3  1  0
  2  4  1  0
  4  5  2  0
  4  6  1  0
  6  7  2  0
  7  8  1  0
  8  9  2  0
  9 10  1  0
 10 11  2  0
 11 12  1  0
 12 13  1  0
 13 14  2  0
 14 15  1  0
 15 16  2  0
 16 17  1  0
 17 18  2  0
 17 19  1  0
 19 20  1  0
 20 21  1  0
 21 22  1  0
 22 23  1  0
 23 24  1  0
 24 25  1  0
 25 26  1  0
 16 27  1  0
 27 28  2  0
 11 29  1  0
 29 30  2  0
 30 31  1  0
 31 32  1  0
 32 33  1  0
 33 34  1  0
 34 35  1  0
 35 36  1  0
 31  6  1  0
 36 32  1  0
 30  8  1  0
 28 13  1  0
 23 19  1  0
 25 21  1  0
  1 37  1  0
  1 38  1  0
  1 39  1  0
  3 40  1  0
  3 41  1  0
  3 42  1  0
  7 43  1  0
  9 44  1  0
 12 45  1  0
 14 46  1  0
 15 47  1  0
 20 48  1  0
 20 49  1  0
 21 50  1  6
 22 51  1  0
 22 52  1  0
 23 53  1  6
 24 54  1  0
 24 55  1  0
 25 56  1  1
 26 57  1  0
 27 58  1  0
 32 59  1  0
 33 60  1  0
 33 61  1  0
 34 62  1  0
 34 63  1  0
 35 64  1  0
 35 65  1  0
 36 66  1  0
 36 67  1  0
M  END
$$$$
