@<TRIPOS>MOLECULE
*****
 58 62 0 0 0
SMALL
GASTEIGER

@<TRIPOS>ATOM
      1 C          -4.8488    0.1739   -2.3673 C.3     1  UNL1       -0.0274
      2 C          -4.4162    0.0573   -0.8793 C.3     1  UNL1        0.1037
      3 O          -3.1205    0.0456   -0.6891 O.3     1  UNL1       -0.4725
      4 C          -1.9779   -0.4921   -0.2751 C.ar    1  UNL1        0.2265
      5 N          -0.7937    0.2148   -0.4365 N.ar    1  UNL1       -0.2121
      6 C           0.3798   -0.2506   -0.0519 C.ar    1  UNL1        0.0798
      7 C           1.6342    0.5047   -0.2259 C.ar    1  UNL1        0.0380
      8 C           1.7661    1.7408   -0.7844 C.ar    1  UNL1        0.0586
      9 N           3.0957    2.0407   -0.7350 N.ar    1  UNL1       -0.1787
     10 N           3.7799    1.0604   -0.1796 N.ar    1  UNL1       -0.2678
     11 C           5.2030    1.0146    0.0446 C.3     1  UNL1        0.0527
     12 C           5.8051   -0.2601   -0.4935 C.3     1  UNL1       -0.0305
     13 C           7.2848   -0.0895   -0.8208 C.3     1  UNL1       -0.0511
     14 C           7.8336    0.9504    0.1162 C.3     1  UNL1       -0.0529
     15 C           7.3055    2.3191   -0.2695 C.3     1  UNL1       -0.0511
     16 C           5.8475    2.1741   -0.6639 C.3     1  UNL1       -0.0305
     17 C           2.9046    0.1162    0.1366 C.ar    1  UNL1        0.0350
     18 C           0.4056   -1.4950    0.5330 C.ar    1  UNL1       -0.0076
     19 C          -0.7328   -2.2475    0.7221 C.ar    1  UNL1        0.0999
     20 N          -0.9785   -3.4662    1.2564 N.ar    1  UNL1       -0.1712
     21 N          -2.2654   -3.7342    1.1981 N.ar    1  UNL1       -0.2732
     22 C          -2.9428   -4.9315    1.6608 C.3     1  UNL1        0.0302
     23 C          -2.9301   -2.6954    0.6182 C.ar    1  UNL1        0.0380
     24 C          -1.9555   -1.7596    0.3200 C.ar    1  UNL1        0.0812
     25 C          -5.1723    1.2216   -0.2171 C.3     1  UNL1        0.0196
     26 C          -6.6428    0.9768   -0.4430 C.3     1  UNL1        0.0182
     27 N          -7.2417    1.8320    0.5769 N.am    1  UNL1       -0.3149
     28 C          -6.3618    1.7998    1.6936 C.2     1  UNL1        0.2135
     29 O          -6.6702    2.2485    2.8264 O.2     1  UNL1       -0.2758
     30 C          -5.0642    1.1618    1.2825 C.3     1  UNL1        0.0315
     31 H          -4.7621    1.2550   -2.6014 H       1  UNL1        0.0265
     32 H          -4.1220   -0.4122   -2.9528 H       1  UNL1        0.0265
     33 H          -5.8920   -0.1170   -2.4951 H       1  UNL1        0.0265
     34 H          -4.9670   -0.8438   -0.5380 H       1  UNL1        0.0734
     35 H           0.9928    2.3912   -1.1984 H       1  UNL1        0.0854
     36 H           5.4410    1.0577    1.1286 H       1  UNL1        0.0545
     37 H           5.7318   -1.0849    0.2526 H       1  UNL1        0.0286
     38 H           5.3240   -0.6080   -1.4229 H       1  UNL1        0.0286
     39 H           7.8402   -1.0443   -0.6756 H       1  UNL1        0.0266
     40 H           7.4363    0.2534   -1.8459 H       1  UNL1        0.0266
     41 H           7.4524    0.7017    1.1387 H       1  UNL1        0.0265
     42 H           8.9389    0.9681    0.0884 H       1  UNL1        0.0265
     43 H           7.8836    2.7269   -1.1078 H       1  UNL1        0.0266
     44 H           7.3401    2.9912    0.6083 H       1  UNL1        0.0266
     45 H           5.2733    3.0958   -0.4303 H       1  UNL1        0.0286
     46 H           5.8247    1.9919   -1.7760 H       1  UNL1        0.0286
     47 H           3.1129   -0.8330    0.6097 H       1  UNL1        0.0833
     48 H           1.3499   -1.9010    0.8572 H       1  UNL1        0.0661
     49 H          -2.2981   -5.3739    2.4694 H       1  UNL1        0.0473
     50 H          -3.9609   -4.6986    2.0241 H       1  UNL1        0.0473
     51 H          -2.9720   -5.7026    0.8444 H       1  UNL1        0.0473
     52 H          -3.9755   -2.6129    0.4307 H       1  UNL1        0.0834
     53 H          -4.8447    2.1911   -0.5916 H       1  UNL1        0.0356
     54 H          -6.8502   -0.0793   -0.1768 H       1  UNL1        0.0466
     55 H          -6.9876    1.2506   -1.4509 H       1  UNL1        0.0466
     56 H          -8.1393    2.3423    0.4577 H       1  UNL1        0.1487
     57 H          -5.0981    0.1264    1.6625 H       1  UNL1        0.0363
     58 H          -4.2023    1.7367    1.6802 H       1  UNL1        0.0363
@<TRIPOS>BOND
     1     1     2    1
     2     2     3    1
     3     3     4    1
     4     4     5   ar
     5     5     6   ar
     6     6     7    1
     7     7     8   ar
     8     8     9   ar
     9     9    10   ar
    10    10    11    1
    11    11    12    1
    12    12    13    1
    13    13    14    1
    14    14    15    1
    15    15    16    1
    16    10    17   ar
    17     6    18   ar
    18    18    19   ar
    19    19    20   ar
    20    20    21   ar
    21    21    22    1
    22    21    23   ar
    23    23    24   ar
    24     2    25    1
    25    25    26    1
    26    26    27    1
    27    27    28   am
    28    28    29    2
    29    28    30    1
    30    24     4   ar
    31    30    25    1
    32    17     7   ar
    33    24    19   ar
    34    16    11    1
    35     1    31    1
    36     1    32    1
    37     1    33    1
    38     2    34    1
    39     8    35    1
    40    11    36    1
    41    12    37    1
    42    12    38    1
    43    13    39    1
    44    13    40    1
    45    14    41    1
    46    14    42    1
    47    15    43    1
    48    15    44    1
    49    16    45    1
    50    16    46    1
    51    17    47    1
    52    18    48    1
    53    22    49    1
    54    22    50    1
    55    22    51    1
    56    23    52    1
    57    25    53    1
    58    26    54    1
    59    26    55    1
    60    27    56    1
    61    30    57    1
    62    30    58    1
