@<TRIPOS>MOLECULE
*****
 56 60 0 0 0
SMALL
GASTEIGER

@<TRIPOS>ATOM
      1 O           9.5499    0.1927   -3.0004 O.2     1  UNL1       -0.2451
      2 C           8.8394    1.0798   -2.4677 C.2     1  UNL1        0.3368
      3 O           9.2857    2.3920   -2.4406 O.3     1  UNL1       -0.4771
      4 C           7.5579    0.7370   -1.8827 C.ar    1  UNL1        0.0589
      5 C           6.7542    1.6893   -1.2905 C.ar    1  UNL1       -0.0471
      6 C           5.5428    1.3232   -0.7458 C.ar    1  UNL1       -0.0502
      7 C           5.0838    0.0239   -0.7632 C.ar    1  UNL1        0.0225
      8 C           3.7938   -0.3514   -0.1796 C.ar    1  UNL1        0.2021
      9 N           2.5677   -0.2993   -0.7349 N.ar    1  UNL1       -0.0561
     10 O           1.6986   -0.7246    0.1325 O.2     1  UNL1       -0.3374
     11 C           2.2669   -1.0682    1.2616 C.ar    1  UNL1        0.2309
     12 C           1.6442   -1.5987    2.5002 C.3     1  UNL1        0.0410
     13 C           0.9069   -2.8602    2.2182 C.3     1  UNL1       -0.0257
     14 C          -0.5686   -2.7492    2.2009 C.3     1  UNL1        0.0168
     15 N          -1.0698   -1.4153    1.9754 N.am    1  UNL1       -0.2856
     16 C          -2.3838   -1.2992    1.4427 C.2     1  UNL1        0.3024
     17 O          -3.0968   -2.3282    1.1750 O.2     1  UNL1       -0.2526
     18 N          -2.9587   -0.0154    1.1856 N.am    1  UNL1       -0.2958
     19 C          -4.2811    0.1243    0.6501 C.3     1  UNL1        0.0320
     20 C          -5.0872    1.2594    1.2487 C.3     1  UNL1       -0.0254
     21 C          -4.6487    1.2914   -0.1763 C.3     1  UNL1        0.0043
     22 C          -5.7430    1.2324   -1.1603 C.ar    1  UNL1       -0.0425
     23 C          -6.8301    0.3875   -1.0287 C.ar    1  UNL1       -0.0582
     24 C          -7.8224    0.3775   -1.9787 C.ar    1  UNL1       -0.0615
     25 C          -7.7793    1.1959   -3.0877 C.ar    1  UNL1       -0.0617
     26 C          -6.6981    2.0426   -3.2273 C.ar    1  UNL1       -0.0615
     27 C          -5.7064    2.0473   -2.2701 C.ar    1  UNL1       -0.0582
     28 C          -0.3432   -0.2155    2.2501 C.3     1  UNL1        0.0168
     29 C           0.8120   -0.5280    3.1603 C.3     1  UNL1       -0.0257
     30 N           3.5888   -0.8331    1.0656 N.ar    1  UNL1       -0.1911
     31 C           5.8800   -0.9239   -1.3507 C.ar    1  UNL1       -0.0502
     32 C           7.0925   -0.5686   -1.8982 C.ar    1  UNL1       -0.0471
     33 H          10.2752    2.5908   -2.3280 H       1  UNL1        0.2954
     34 H           7.1060    2.7331   -1.2664 H       1  UNL1        0.0626
     35 H           4.9207    2.0767   -0.2844 H       1  UNL1        0.0625
     36 H           2.4915   -1.8017    3.2192 H       1  UNL1        0.0397
     37 H           1.3318   -3.3014    1.2689 H       1  UNL1        0.0288
     38 H           1.1840   -3.6098    3.0047 H       1  UNL1        0.0288
     39 H          -1.0524   -3.1363    3.1230 H       1  UNL1        0.0465
     40 H          -0.9532   -3.3988    1.3625 H       1  UNL1        0.0465
     41 H          -2.3978    0.8357    1.3945 H       1  UNL1        0.1505
     42 H          -4.8536   -0.8217    0.4447 H       1  UNL1        0.0505
     43 H          -4.5952    1.9343    1.9761 H       1  UNL1        0.0290
     44 H          -6.1653    1.0808    1.4750 H       1  UNL1        0.0290
     45 H          -3.8268    1.9994   -0.4083 H       1  UNL1        0.0367
     46 H          -6.8341   -0.2469   -0.1417 H       1  UNL1        0.0620
     47 H          -8.6678   -0.2882   -1.8637 H       1  UNL1        0.0618
     48 H          -8.5796    1.1802   -3.8412 H       1  UNL1        0.0618
     49 H          -6.6700    2.6884   -4.1066 H       1  UNL1        0.0618
     50 H          -4.8474    2.7211   -2.3847 H       1  UNL1        0.0620
     51 H           0.0100    0.3241    1.3489 H       1  UNL1        0.0465
     52 H          -0.9706    0.5404    2.8099 H       1  UNL1        0.0465
     53 H           1.4609    0.3921    3.1884 H       1  UNL1        0.0288
     54 H           0.4901   -0.8431    4.1571 H       1  UNL1        0.0288
     55 H           5.5484   -1.9643   -1.3822 H       1  UNL1        0.0625
     56 H           7.7472   -1.3018   -2.3726 H       1  UNL1        0.0626
@<TRIPOS>BOND
     1     1     2    2
     2     2     3    1
     3     2     4    1
     4     4     5   ar
     5     5     6   ar
     6     6     7   ar
     7     7     8    1
     8     8     9   ar
     9     9    10   ar
    10    10    11   ar
    11    11    12    1
    12    12    13    1
    13    13    14    1
    14    14    15    1
    15    15    16   am
    16    16    17    2
    17    16    18   am
    18    18    19    1
    19    19    20    1
    20    20    21    1
    21    21    22    1
    22    22    23   ar
    23    23    24   ar
    24    24    25   ar
    25    25    26   ar
    26    26    27   ar
    27    15    28    1
    28    28    29    1
    29    11    30   ar
    30     7    31   ar
    31    31    32   ar
    32    32     4   ar
    33    30     8   ar
    34    29    12    1
    35    21    19    1
    36    27    22   ar
    37     3    33    1
    38     5    34    1
    39     6    35    1
    40    12    36    1
    41    13    37    1
    42    13    38    1
    43    14    39    1
    44    14    40    1
    45    18    41    1
    46    19    42    1
    47    20    43    1
    48    20    44    1
    49    21    45    1
    50    23    46    1
    51    24    47    1
    52    25    48    1
    53    26    49    1
    54    27    50    1
    55    28    51    1
    56    28    52    1
    57    29    53    1
    58    29    54    1
    59    31    55    1
    60    32    56    1
