@<TRIPOS>MOLECULE
*****
 50 53 0 0 0
SMALL
GASTEIGER

@<TRIPOS>ATOM
      1 O          -1.9537   -1.0222   -1.4490 O.2     1  UNL1       -0.2721
      2 C          -1.3110   -1.1557   -0.3808 C.2     1  UNL1        0.2521
      3 C           0.0606   -1.7197   -0.3923 C.3     1  UNL1        0.1046
      4 N           1.0428   -0.6828   -0.7034 N.ar    1  UNL1       -0.2963
      5 C           1.5837    0.0488    0.3176 C.ar    1  UNL1        0.2739
      6 O           1.2084   -0.2375    1.4791 O.2     1  UNL1       -0.2657
      7 C           2.4913    1.0528    0.1343 C.ar    1  UNL1        0.1105
      8 C           3.1135    1.8508    1.2320 C.3     1  UNL1        0.0201
      9 C           4.2277    1.1434    1.8967 C.ar    1  UNL1       -0.0414
     10 C           4.0093    0.3778    2.9895 C.ar    1  UNL1       -0.0582
     11 C           5.0331   -0.3184    3.6489 C.ar    1  UNL1       -0.0615
     12 C           6.3022   -0.2004    3.1427 C.ar    1  UNL1       -0.0617
     13 C           6.5428    0.5750    2.0307 C.ar    1  UNL1       -0.0615
     14 C           5.5138    1.2546    1.3951 C.ar    1  UNL1       -0.0582
     15 N           2.8520    1.3076   -1.1583 N.ar    1  UNL1       -0.2444
     16 C           2.3477    0.6138   -2.1934 C.ar    1  UNL1        0.0879
     17 C           2.7166    0.8634   -3.5011 C.ar    1  UNL1       -0.0343
     18 C           2.2104    0.1512   -4.5763 C.ar    1  UNL1       -0.0596
     19 C           1.2965   -0.8544   -4.3368 C.ar    1  UNL1       -0.0597
     20 C           0.9178   -1.1126   -3.0112 C.ar    1  UNL1       -0.0360
     21 C           1.4254   -0.4009   -1.9578 C.ar    1  UNL1        0.0708
     22 N          -1.9859   -0.7305    0.8154 N.am    1  UNL1       -0.2055
     23 N          -3.2644   -0.1892    0.7891 N.2     1  UNL1       -0.1877
     24 C          -4.2993   -0.9433    0.8885 C.2     1  UNL1        0.0528
     25 C          -5.6505   -0.3763    0.8602 C.ar    1  UNL1       -0.0055
     26 C          -6.7390   -1.1723    0.9628 C.ar    1  UNL1       -0.0531
     27 C          -8.0023   -0.6163    0.9337 C.ar    1  UNL1       -0.0612
     28 C          -8.1410    0.7427    0.8008 C.ar    1  UNL1       -0.0617
     29 C          -7.0203    1.5243    0.6992 C.ar    1  UNL1       -0.0612
     30 C          -5.7743    0.9779    0.7274 C.ar    1  UNL1       -0.0531
     31 H           0.1769   -2.6391   -0.9813 H       1  UNL1        0.0589
     32 H           0.3219   -2.0562    0.6585 H       1  UNL1        0.0589
     33 H           2.3583    2.1311    1.9883 H       1  UNL1        0.0378
     34 H           3.4843    2.8208    0.8171 H       1  UNL1        0.0378
     35 H           3.0044    0.2661    3.4266 H       1  UNL1        0.0620
     36 H           4.7917   -0.9178    4.5214 H       1  UNL1        0.0618
     37 H           7.1143   -0.7371    3.6439 H       1  UNL1        0.0618
     38 H           7.5653    0.6413    1.6619 H       1  UNL1        0.0618
     39 H           5.7510    1.8630    0.5103 H       1  UNL1        0.0620
     40 H           3.4437    1.6695   -3.6403 H       1  UNL1        0.0639
     41 H           2.5361    0.3872   -5.5980 H       1  UNL1        0.0618
     42 H           0.8888   -1.4242   -5.1582 H       1  UNL1        0.0618
     43 H           0.2129   -1.8933   -2.8443 H       1  UNL1        0.0639
     44 H          -1.4468   -0.8638    1.6900 H       1  UNL1        0.1773
     45 H          -4.2129   -2.0128    0.9955 H       1  UNL1        0.0851
     46 H          -6.6782   -2.2544    1.0697 H       1  UNL1        0.0624
     47 H          -8.9069   -1.1981    1.0108 H       1  UNL1        0.0618
     48 H          -9.1091    1.2256    0.7717 H       1  UNL1        0.0618
     49 H          -7.1389    2.6027    0.5938 H       1  UNL1        0.0618
     50 H          -4.9106    1.6381    0.6427 H       1  UNL1        0.0624
@<TRIPOS>BOND
     1     1     2    2
     2     2     3    1
     3     3     4    1
     4     4     5   ar
     5     5     6    2
     6     5     7   ar
     7     7     8    1
     8     8     9    1
     9     9    10   ar
    10    10    11   ar
    11    11    12   ar
    12    12    13   ar
    13    13    14   ar
    14     7    15   ar
    15    15    16   ar
    16    16    17   ar
    17    17    18   ar
    18    18    19   ar
    19    19    20   ar
    20    20    21   ar
    21     2    22   am
    22    22    23    1
    23    23    24    2
    24    24    25    1
    25    25    26   ar
    26    26    27   ar
    27    27    28   ar
    28    28    29   ar
    29    29    30   ar
    30    21     4   ar
    31    30    25   ar
    32    14     9   ar
    33    21    16   ar
    34     3    31    1
    35     3    32    1
    36     8    33    1
    37     8    34    1
    38    10    35    1
    39    11    36    1
    40    12    37    1
    41    13    38    1
    42    14    39    1
    43    17    40    1
    44    18    41    1
    45    19    42    1
    46    20    43    1
    47    22    44    1
    48    24    45    1
    49    26    46    1
    50    27    47    1
    51    28    48    1
    52    29    49    1
    53    30    50    1
