
     RDKit          3D

 38 38  0  0  0  0  0  0  0  0999 V2000
   -3.1978    0.9298    0.8987 C   0  0  1  0  0  0  0  0  0  0  0  0
   -4.6445    0.4956    0.7821 C   0  0  0  0  0  0  0  0  0  0  0  0
   -2.8705    0.9599    2.3815 C   0  0  0  0  0  0  0  0  0  0  0  0
   -3.0547   -0.4038    3.0135 C   0  0  0  0  0  0  0  0  0  0  0  0
   -2.3560   -0.0264    0.1361 C   0  0  2  0  0  0  0  0  0  0  0  0
   -0.9401    0.2802    0.1688 N   0  0  0  0  0  0  0  0  0  0  0  0
    0.1373   -0.5852    0.5573 C   0  0  0  0  0  0  0  0  0  0  0  0
   -0.3033   -1.7079    0.8871 O   0  0  0  0  0  0  0  0  0  0  0  0
    1.5343   -0.0423    0.5100 C   0  0  1  0  0  0  0  0  0  0  0  0
    2.3613   -0.3073    1.6136 O   0  0  0  0  0  0  0  0  0  0  0  0
    2.6622   -0.9515    0.3616 C   0  0  2  0  0  0  0  0  0  0  0  0
    3.8635   -0.4734   -0.3561 C   0  0  0  0  0  0  0  0  0  0  0  0
    4.1079    0.7720   -0.3944 O   0  0  0  0  0  0  0  0  0  0  0  0
    4.7185   -1.3521   -0.9812 O   0  0  0  0  0  0  0  0  0  0  0  0
    5.8507   -0.8980   -1.6573 C   0  0  0  0  0  0  0  0  0  0  0  0
    5.5596    0.0482   -2.8000 C   0  0  0  0  0  0  0  0  0  0  0  0
   -2.7518    0.0721   -1.2971 C   0  0  0  0  0  0  0  0  0  0  0  0
   -2.0942    0.3727   -2.5002 O   0  0  0  0  0  0  0  0  0  0  0  0
   -3.9327   -0.1366   -1.6927 O   0  0  0  0  0  0  0  0  0  0  0  0
   -3.1323    1.9147    0.4344 H   0  0  0  0  0  0  0  0  0  0  0  0
   -5.1782    0.8029    1.6823 H   0  0  0  0  0  0  0  0  0  0  0  0
   -4.7241   -0.5868    0.5295 H   0  0  0  0  0  0  0  0  0  0  0  0
   -5.1570    1.0113   -0.0666 H   0  0  0  0  0  0  0  0  0  0  0  0
   -3.5703    1.6321    2.9188 H   0  0  0  0  0  0  0  0  0  0  0  0
   -1.8041    1.2403    2.5594 H   0  0  0  0  0  0  0  0  0  0  0  0
   -3.1561   -0.2350    4.1112 H   0  0  0  0  0  0  0  0  0  0  0  0
   -3.9746   -0.9130    2.6937 H   0  0  0  0  0  0  0  0  0  0  0  0
   -2.1508   -1.0378    2.9090 H   0  0  0  0  0  0  0  0  0  0  0  0
   -2.4826   -1.0866    0.4746 H   0  0  0  0  0  0  0  0  0  0  0  0
   -0.8093    1.2829   -0.1507 H   0  0  0  0  0  0  0  0  0  0  0  0
    1.6515    1.0136    0.1719 H   0  0  0  0  0  0  0  0  0  0  0  0
    2.4755   -2.0550    0.3767 H   0  0  0  0  0  0  0  0  0  0  0  0
    6.5888   -0.3655   -1.0063 H   0  0  0  0  0  0  0  0  0  0  0  0
    6.3596   -1.7819   -2.0989 H   0  0  0  0  0  0  0  0  0  0  0  0
    5.1898    1.0367   -2.4548 H   0  0  0  0  0  0  0  0  0  0  0  0
    4.9727   -0.4050   -3.6106 H   0  0  0  0  0  0  0  0  0  0  0  0
    6.5655    0.2769   -3.2467 H   0  0  0  0  0  0  0  0  0  0  0  0
   -2.3137    1.2094   -3.0256 H   0  0  0  0  0  0  0  0  0  0  0  0
  1  2  1  0
  1  3  1  0
  3  4  1  0
  1  5  1  0
  5  6  1  0
  6  7  1  0
  7  8  2  0
  7  9  1  0
  9 10  1  0
 10 11  1  0
 11 12  1  0
 12 13  2  0
 12 14  1  0
 14 15  1  0
 15 16  1  0
  5 17  1  0
 17 18  1  0
 17 19  2  0
 11  9  1  0
  1 20  1  6
  2 21  1  0
  2 22  1  0
  2 23  1  0
  3 24  1  0
  3 25  1  0
  4 26  1  0
  4 27  1  0
  4 28  1  0
  5 29  1  1
  6 30  1  0
  9 31  1  6
 11 32  1  1
 15 33  1  0
 15 34  1  0
 16 35  1  0
 16 36  1  0
 16 37  1  0
 18 38  1  0
M  END
$$$$
