@<TRIPOS>MOLECULE
*****
 38 38 0 0 0
SMALL
GASTEIGER

@<TRIPOS>ATOM
      1 CB         -3.1978    0.9298    0.8987 C.3     1  ILE1       -0.0153
      2 CG2        -4.6445    0.4956    0.7821 C.3     1  ILE1       -0.0602
      3 CG1        -2.8705    0.9599    2.3815 C.3     1  ILE1       -0.0511
      4 CD1        -3.0547   -0.4038    3.0135 C.3     1  ILE1       -0.0650
      5 CA         -2.3560   -0.0264    0.1361 C.3     1  ILE1        0.1228
      6 N          -0.9401    0.2802    0.1688 N.am    1  ILE1       -0.2999
      7 C           0.1373   -0.5852    0.5573 C.2     0  UNK0        0.2458
      8 O          -0.3033   -1.7079    0.8871 O.2     0  UNK0       -0.2728
      9 C           1.5343   -0.0423    0.5100 C.3     0  UNK0        0.1717
     10 O           2.3613   -0.3073    1.6136 O.3     0  UNK0       -0.3467
     11 C           2.6622   -0.9515    0.3616 C.3     0  UNK0        0.1904
     12 C           3.8635   -0.4734   -0.3561 C.2     0  UNK0        0.3394
     13 O           4.1079    0.7720   -0.3944 O.2     0  UNK0       -0.2478
     14 O           4.7185   -1.3521   -0.9812 O.3     0  UNK0       -0.4630
     15 C           5.8507   -0.8980   -1.6573 C.3     0  UNK0        0.0897
     16 C           5.5596    0.0482   -2.8000 C.3     0  UNK0       -0.0306
     17 C          -2.7518    0.0721   -1.2971 C.2     1  ILE1        0.3255
     18 O          -2.0942    0.3727   -2.5002 O.3     1  ILE1       -0.4793
     19 OXT        -3.9327   -0.1366   -1.6927 O.2     1  ILE1       -0.2489
     20 HB         -3.1323    1.9147    0.4344 H       1  ILE1        0.0321
     21 HG21       -5.1782    0.8029    1.6823 H       1  ILE1        0.0233
     22 HG22       -4.7241   -0.5868    0.5295 H       1  ILE1        0.0233
     23 HG23       -5.1570    1.0113   -0.0666 H       1  ILE1        0.0233
     24 HG11       -3.5703    1.6321    2.9188 H       1  ILE1        0.0266
     25 HG12       -1.8041    1.2403    2.5594 H       1  ILE1        0.0266
     26 HD11       -3.1561   -0.2350    4.1112 H       1  ILE1        0.0230
     27 HD12       -3.9746   -0.9130    2.6937 H       1  ILE1        0.0230
     28 HD13       -2.1508   -1.0378    2.9090 H       1  ILE1        0.0230
     29 HA         -2.4826   -1.0866    0.4746 H       1  ILE1        0.0617
     30 H          -0.8093    1.2829   -0.1507 H       1  ILE1        0.1496
     31 H           1.6515    1.0136    0.1719 H       0  UNK0        0.0726
     32 H           2.4755   -2.0550    0.3767 H       0  UNK0        0.0745
     33 H           6.5888   -0.3655   -1.0063 H       0  UNK0        0.0694
     34 H           6.3596   -1.7819   -2.0989 H       0  UNK0        0.0694
     35 H           5.1898    1.0367   -2.4548 H       0  UNK0        0.0262
     36 H           4.9727   -0.4050   -3.6106 H       0  UNK0        0.0262
     37 H           6.5655    0.2769   -3.2467 H       0  UNK0        0.0262
     38 H          -2.3137    1.2094   -3.0256 H       1  ILE1        0.2951
@<TRIPOS>BOND
     1     1     2    1
     2     1     3    1
     3     3     4    1
     4     1     5    1
     5     5     6    1
     6     6     7   am
     7     7     8    2
     8     7     9    1
     9     9    10    1
    10    10    11    1
    11    11    12    1
    12    12    13    2
    13    12    14    1
    14    14    15    1
    15    15    16    1
    16     5    17    1
    17    17    18    1
    18    17    19    2
    19    11     9    1
    20     1    20    1
    21     2    21    1
    22     2    22    1
    23     2    23    1
    24     3    24    1
    25     3    25    1
    26     4    26    1
    27     4    27    1
    28     4    28    1
    29     5    29    1
    30     6    30    1
    31     9    31    1
    32    11    32    1
    33    15    33    1
    34    15    34    1
    35    16    35    1
    36    16    36    1
    37    16    37    1
    38    18    38    1
