@<TRIPOS>MOLECULE
*****
 65 69 0 0 0
SMALL
GASTEIGER

@<TRIPOS>ATOM
      1 C           4.0175    3.5541   -0.3648 C.3     1  UNL1       -0.0651
      2 C           4.6874    2.2915   -0.7873 C.3     1  UNL1       -0.0513
      3 C           4.2988    1.0894    0.0379 C.3     1  UNL1       -0.0018
      4 C           2.8231    0.8013   -0.0218 C.3     1  UNL1        0.1610
      5 O           2.4443    0.5511   -1.3099 O.3     1  UNL1       -0.3448
      6 C           2.1407   -0.7987   -1.4429 C.3     1  UNL1        0.0984
      7 C           0.7082   -0.8163   -2.0261 C.3     1  UNL1       -0.0196
      8 C          -0.0300   -0.4704   -0.8125 C.3     1  UNL1       -0.0268
      9 C          -1.5157   -0.4352   -0.8169 C.3     1  UNL1       -0.0310
     10 C          -2.1045    0.1502   -2.0469 C.3     1  UNL1       -0.0458
     11 C          -3.6141    0.1327   -1.9235 C.3     1  UNL1       -0.0302
     12 C          -3.8426    1.0903   -0.7531 C.2     1  UNL1       -0.0559
     13 C          -4.4926    2.2030   -0.9311 C.2     1  UNL1       -0.0149
     14 C          -4.7314    3.1528    0.1430 C.2     1  UNL1        0.1787
     15 O          -5.3615    4.2257   -0.0338 O.2     1  UNL1       -0.2879
     16 C          -4.2087    2.8178    1.4559 C.2     1  UNL1       -0.0180
     17 C          -3.5643    1.6813    1.5780 C.2     1  UNL1       -0.0701
     18 C          -3.3023    0.6842    0.5457 C.3     1  UNL1        0.0131
     19 C          -4.1716   -0.5269    0.9673 C.3     1  UNL1       -0.0520
     20 C          -1.8645    0.3159    0.4800 C.3     1  UNL1        0.0007
     21 C          -1.4091   -0.5791    1.6027 C.3     1  UNL1        0.0600
     22 O          -2.1123   -1.7930    1.5261 O.3     1  UNL1       -0.3914
     23 C           0.0432   -0.9409    1.5433 C.3     1  UNL1       -0.0177
     24 C           0.4988   -1.4464    0.2130 C.3     1  UNL1        0.0121
     25 C           0.1233   -2.8571   -0.0681 C.3     1  UNL1       -0.0561
     26 C           1.9864   -1.2675   -0.0112 C.3     1  UNL1        0.1637
     27 C           2.7805   -2.4926    0.1975 C.2     1  UNL1        0.1931
     28 O           2.6017   -3.5263   -0.4265 O.2     1  UNL1       -0.2918
     29 C           3.8641   -2.5001    1.2181 C.3     1  UNL1        0.1053
     30 O           4.4492   -3.7474    1.2464 O.3     1  UNL1       -0.3874
     31 O           2.4967   -0.2477    0.7844 O.3     1  UNL1       -0.3342
     32 H           4.6636    4.4061   -0.6628 H       1  UNL1        0.0230
     33 H           3.9134    3.6403    0.7564 H       1  UNL1        0.0230
     34 H           3.0412    3.7236   -0.8669 H       1  UNL1        0.0230
     35 H           4.4113    2.1177   -1.8673 H       1  UNL1        0.0264
     36 H           5.7834    2.4533   -0.7895 H       1  UNL1        0.0264
     37 H           4.8635    0.2198   -0.3532 H       1  UNL1        0.0314
     38 H           4.6527    1.2688    1.0712 H       1  UNL1        0.0314
     39 H           2.2244    1.6914    0.3389 H       1  UNL1        0.0910
     40 H           2.8378   -1.3767   -2.0395 H       1  UNL1        0.0630
     41 H           0.6500   -0.0074   -2.8125 H       1  UNL1        0.0294
     42 H           0.5090   -1.7757   -2.4905 H       1  UNL1        0.0294
     43 H           0.3152    0.5397   -0.4703 H       1  UNL1        0.0311
     44 H          -1.9531   -1.4453   -0.6839 H       1  UNL1        0.0308
     45 H          -1.7739    1.1870   -2.2598 H       1  UNL1        0.0271
     46 H          -1.8524   -0.5240   -2.8822 H       1  UNL1        0.0271
     47 H          -3.9827   -0.8551   -1.6012 H       1  UNL1        0.0310
     48 H          -4.1248    0.5182   -2.8094 H       1  UNL1        0.0310
     49 H          -4.8936    2.4670   -1.9302 H       1  UNL1        0.0655
     50 H          -4.3450    3.4882    2.3192 H       1  UNL1        0.0653
     51 H          -3.1900    1.4966    2.6105 H       1  UNL1        0.0582
     52 H          -5.2242   -0.1647    0.7562 H       1  UNL1        0.0241
     53 H          -4.0366   -1.3905    0.3301 H       1  UNL1        0.0241
     54 H          -4.0752   -0.6678    2.0469 H       1  UNL1        0.0241
     55 H          -1.2314    1.2248    0.5196 H       1  UNL1        0.0340
     56 H          -1.5924   -0.0976    2.5968 H       1  UNL1        0.0596
     57 H          -2.0783   -2.2621    2.4080 H       1  UNL1        0.2098
     58 H           0.2009   -1.7662    2.2817 H       1  UNL1        0.0297
     59 H           0.6899   -0.1018    1.8710 H       1  UNL1        0.0297
     60 H           0.5753   -3.5574    0.6707 H       1  UNL1        0.0236
     61 H           0.4277   -3.2124   -1.0691 H       1  UNL1        0.0236
     62 H          -0.9684   -3.0716   -0.0022 H       1  UNL1        0.0236
     63 H           4.6587   -1.7844    0.8965 H       1  UNL1        0.0637
     64 H           3.4612   -2.1909    2.2071 H       1  UNL1        0.0637
     65 H           3.8043   -4.4864    1.1880 H       1  UNL1        0.2100
@<TRIPOS>BOND
     1     1     2    1
     2     2     3    1
     3     3     4    1
     4     4     5    1
     5     5     6    1
     6     6     7    1
     7     7     8    1
     8     8     9    1
     9     9    10    1
    10    10    11    1
    11    11    12    1
    12    12    13    2
    13    13    14    1
    14    14    15    2
    15    14    16    1
    16    16    17    2
    17    17    18    1
    18    18    19    1
    19    18    20    1
    20    20    21    1
    21    21    22    1
    22    21    23    1
    23    23    24    1
    24    24    25    1
    25    24    26    1
    26    26    27    1
    27    27    28    2
    28    27    29    1
    29    29    30    1
    30    26    31    1
    31    31     4    1
    32    26     6    1
    33    24     8    1
    34    20     9    1
    35    18    12    1
    36     1    32    1
    37     1    33    1
    38     1    34    1
    39     2    35    1
    40     2    36    1
    41     3    37    1
    42     3    38    1
    43     4    39    1
    44     6    40    1
    45     7    41    1
    46     7    42    1
    47     8    43    1
    48     9    44    1
    49    10    45    1
    50    10    46    1
    51    11    47    1
    52    11    48    1
    53    13    49    1
    54    16    50    1
    55    17    51    1
    56    19    52    1
    57    19    53    1
    58    19    54    1
    59    20    55    1
    60    21    56    1
    61    22    57    1
    62    23    58    1
    63    23    59    1
    64    25    60    1
    65    25    61    1
    66    25    62    1
    67    29    63    1
    68    29    64    1
    69    30    65    1
