
     RDKit          3D

 65 69  0  0  0  0  0  0  0  0999 V2000
    4.0175    3.5541   -0.3648 C   0  0  0  0  0  0  0  0  0  0  0  0
    4.6874    2.2915   -0.7873 C   0  0  0  0  0  0  0  0  0  0  0  0
    4.2988    1.0894    0.0379 C   0  0  0  0  0  0  0  0  0  0  0  0
    2.8231    0.8013   -0.0218 C   0  0  0  0  0  0  0  0  0  0  0  0
    2.4443    0.5511   -1.3099 O   0  0  0  0  0  0  0  0  0  0  0  0
    2.1407   -0.7987   -1.4429 C   0  0  2  0  0  0  0  0  0  0  0  0
    0.7082   -0.8163   -2.0261 C   0  0  0  0  0  0  0  0  0  0  0  0
   -0.0300   -0.4704   -0.8125 C   0  0  1  0  0  0  0  0  0  0  0  0
   -1.5157   -0.4352   -0.8169 C   0  0  2  0  0  0  0  0  0  0  0  0
   -2.1045    0.1502   -2.0469 C   0  0  0  0  0  0  0  0  0  0  0  0
   -3.6141    0.1327   -1.9235 C   0  0  0  0  0  0  0  0  0  0  0  0
   -3.8426    1.0903   -0.7531 C   0  0  0  0  0  0  0  0  0  0  0  0
   -4.4926    2.2030   -0.9311 C   0  0  0  0  0  0  0  0  0  0  0  0
   -4.7314    3.1528    0.1430 C   0  0  0  0  0  0  0  0  0  0  0  0
   -5.3615    4.2257   -0.0338 O   0  0  0  0  0  0  0  0  0  0  0  0
   -4.2087    2.8178    1.4559 C   0  0  0  0  0  0  0  0  0  0  0  0
   -3.5643    1.6813    1.5780 C   0  0  0  0  0  0  0  0  0  0  0  0
   -3.3023    0.6842    0.5457 C   0  0  1  0  0  0  0  0  0  0  0  0
   -4.1716   -0.5269    0.9673 C   0  0  0  0  0  0  0  0  0  0  0  0
   -1.8645    0.3159    0.4800 C   0  0  1  0  0  0  0  0  0  0  0  0
   -1.4091   -0.5791    1.6027 C   0  0  1  0  0  0  0  0  0  0  0  0
   -2.1123   -1.7930    1.5261 O   0  0  0  0  0  0  0  0  0  0  0  0
    0.0432   -0.9409    1.5433 C   0  0  0  0  0  0  0  0  0  0  0  0
    0.4988   -1.4464    0.2130 C   0  0  1  0  0  0  0  0  0  0  0  0
    0.1233   -2.8571   -0.0681 C   0  0  0  0  0  0  0  0  0  0  0  0
    1.9864   -1.2675   -0.0112 C   0  0  1  0  0  0  0  0  0  0  0  0
    2.7805   -2.4926    0.1975 C   0  0  0  0  0  0  0  0  0  0  0  0
    2.6017   -3.5263   -0.4265 O   0  0  0  0  0  0  0  0  0  0  0  0
    3.8641   -2.5001    1.2181 C   0  0  0  0  0  0  0  0  0  0  0  0
    4.4492   -3.7474    1.2464 O   0  0  0  0  0  0  0  0  0  0  0  0
    2.4967   -0.2477    0.7844 O   0  0  0  0  0  0  0  0  0  0  0  0
    4.6636    4.4061   -0.6628 H   0  0  0  0  0  0  0  0  0  0  0  0
    3.9134    3.6403    0.7564 H   0  0  0  0  0  0  0  0  0  0  0  0
    3.0412    3.7236   -0.8669 H   0  0  0  0  0  0  0  0  0  0  0  0
    4.4113    2.1177   -1.8673 H   0  0  0  0  0  0  0  0  0  0  0  0
    5.7834    2.4533   -0.7895 H   0  0  0  0  0  0  0  0  0  0  0  0
    4.8635    0.2198   -0.3532 H   0  0  0  0  0  0  0  0  0  0  0  0
    4.6527    1.2688    1.0712 H   0  0  0  0  0  0  0  0  0  0  0  0
    2.2244    1.6914    0.3389 H   0  0  0  0  0  0  0  0  0  0  0  0
    2.8378   -1.3767   -2.0395 H   0  0  0  0  0  0  0  0  0  0  0  0
    0.6500   -0.0074   -2.8125 H   0  0  0  0  0  0  0  0  0  0  0  0
    0.5090   -1.7757   -2.4905 H   0  0  0  0  0  0  0  0  0  0  0  0
    0.3152    0.5397   -0.4703 H   0  0  0  0  0  0  0  0  0  0  0  0
   -1.9531   -1.4453   -0.6839 H   0  0  0  0  0  0  0  0  0  0  0  0
   -1.7739    1.1870   -2.2598 H   0  0  0  0  0  0  0  0  0  0  0  0
   -1.8524   -0.5240   -2.8822 H   0  0  0  0  0  0  0  0  0  0  0  0
   -3.9827   -0.8551   -1.6012 H   0  0  0  0  0  0  0  0  0  0  0  0
   -4.1248    0.5182   -2.8094 H   0  0  0  0  0  0  0  0  0  0  0  0
   -4.8936    2.4670   -1.9302 H   0  0  0  0  0  0  0  0  0  0  0  0
   -4.3450    3.4882    2.3192 H   0  0  0  0  0  0  0  0  0  0  0  0
   -3.1900    1.4966    2.6105 H   0  0  0  0  0  0  0  0  0  0  0  0
   -5.2242   -0.1647    0.7562 H   0  0  0  0  0  0  0  0  0  0  0  0
   -4.0366   -1.3905    0.3301 H   0  0  0  0  0  0  0  0  0  0  0  0
   -4.0752   -0.6678    2.0469 H   0  0  0  0  0  0  0  0  0  0  0  0
   -1.2314    1.2248    0.5196 H   0  0  0  0  0  0  0  0  0  0  0  0
   -1.5924   -0.0976    2.5968 H   0  0  0  0  0  0  0  0  0  0  0  0
   -2.0783   -2.2621    2.4080 H   0  0  0  0  0  0  0  0  0  0  0  0
    0.2009   -1.7662    2.2817 H   0  0  0  0  0  0  0  0  0  0  0  0
    0.6899   -0.1018    1.8710 H   0  0  0  0  0  0  0  0  0  0  0  0
    0.5753   -3.5574    0.6707 H   0  0  0  0  0  0  0  0  0  0  0  0
    0.4277   -3.2124   -1.0691 H   0  0  0  0  0  0  0  0  0  0  0  0
   -0.9684   -3.0716   -0.0022 H   0  0  0  0  0  0  0  0  0  0  0  0
    4.6587   -1.7844    0.8965 H   0  0  0  0  0  0  0  0  0  0  0  0
    3.4612   -2.1909    2.2071 H   0  0  0  0  0  0  0  0  0  0  0  0
    3.8043   -4.4864    1.1880 H   0  0  0  0  0  0  0  0  0  0  0  0
  1  2  1  0
  2  3  1  0
  3  4  1  0
  4  5  1  0
  5  6  1  0
  6  7  1  0
  7  8  1  0
  8  9  1  0
  9 10  1  0
 10 11  1  0
 11 12  1  0
 12 13  2  0
 13 14  1  0
 14 15  2  0
 14 16  1  0
 16 17  2  0
 17 18  1  0
 18 19  1  1
 18 20  1  0
 20 21  1  0
 21 22  1  0
 21 23  1  0
 23 24  1  0
 24 25  1  6
 24 26  1  0
 26 27  1  6
 27 28  2  0
 27 29  1  0
 29 30  1  0
 26 31  1  0
 31  4  1  0
 26  6  1  0
 24  8  1  0
 20  9  1  0
 18 12  1  0
  1 32  1  0
  1 33  1  0
  1 34  1  0
  2 35  1  0
  2 36  1  0
  3 37  1  0
  3 38  1  0
  4 39  1  0
  6 40  1  6
  7 41  1  0
  7 42  1  0
  8 43  1  1
  9 44  1  1
 10 45  1  0
 10 46  1  0
 11 47  1  0
 11 48  1  0
 13 49  1  0
 16 50  1  0
 17 51  1  0
 19 52  1  0
 19 53  1  0
 19 54  1  0
 20 55  1  6
 21 56  1  1
 22 57  1  0
 23 58  1  0
 23 59  1  0
 25 60  1  0
 25 61  1  0
 25 62  1  0
 29 63  1  0
 29 64  1  0
 30 65  1  0
M  END
$$$$
