
     RDKit          3D

 43 44  0  0  0  0  0  0  0  0999 V2000
    0.3268   -3.1698   -0.2914 C   0  0  0  0  0  0  0  0  0  0  0  0
    0.3875   -1.8906    0.4656 C   0  0  0  0  0  0  0  0  0  0  0  0
    0.0260   -2.2192    1.8103 O   0  0  0  0  0  0  0  0  0  0  0  0
    1.6997   -1.2192    0.5554 C   0  0  0  0  0  0  0  0  0  0  0  0
    2.4857   -0.7696   -0.9482 S   0  0  0  0  0  6  0  0  0  0  0  0
    2.7812   -2.0064   -1.7801 O   0  0  0  0  0  0  0  0  0  0  0  0
    1.6933    0.1759   -1.8002 O   0  0  0  0  0  0  0  0  0  0  0  0
    3.9854    0.0358   -0.6043 C   0  0  0  0  0  0  0  0  0  0  0  0
    4.0588    1.1840    0.1501 C   0  0  0  0  0  0  0  0  0  0  0  0
    5.1480    1.9103    0.4605 C   0  0  0  0  0  0  0  0  0  0  0  0
    6.3993    1.4662   -0.0376 C   0  0  0  0  0  0  0  0  0  0  0  0
    7.4818    2.1953    0.2844 F   0  0  0  0  0  0  0  0  0  0  0  0
    6.3976    0.3487   -0.7904 C   0  0  0  0  0  0  0  0  0  0  0  0
    5.2655   -0.3952   -1.1063 C   0  0  0  0  0  0  0  0  0  0  0  0
   -0.7036   -0.9705   -0.0088 C   0  0  0  0  0  0  0  0  0  0  0  0
   -0.5824   -0.4784   -1.1794 O   0  0  0  0  0  0  0  0  0  0  0  0
   -1.8061   -0.6388    0.7574 N   0  0  0  0  0  0  0  0  0  0  0  0
   -2.8245    0.2984    0.3618 C   0  0  0  0  0  0  0  0  0  0  0  0
   -2.7077    1.5316    1.0209 C   0  0  0  0  0  0  0  0  0  0  0  0
   -3.7184    2.4645    0.7431 C   0  0  0  0  0  0  0  0  0  0  0  0
   -4.7136    2.1097   -0.1275 C   0  0  0  0  0  0  0  0  0  0  0  0
   -5.7913    3.0750   -0.3712 C   0  0  0  0  0  0  0  0  0  0  0  0
   -6.7082    3.9218   -0.5930 N   0  0  0  0  0  0  0  0  0  0  0  0
   -4.8090    0.9087   -0.7571 C   0  0  0  0  0  0  0  0  0  0  0  0
   -5.8956    0.5293   -1.6660 C   0  0  0  0  0  0  0  0  0  0  0  0
   -7.0724    0.4781   -0.8811 F   0  0  0  0  0  0  0  0  0  0  0  0
   -5.6879   -0.7252   -2.1528 F   0  0  0  0  0  0  0  0  0  0  0  0
   -6.0573    1.4891   -2.6600 F   0  0  0  0  0  0  0  0  0  0  0  0
   -3.8090   -0.0241   -0.4850 C   0  0  0  0  0  0  0  0  0  0  0  0
    1.2758   -3.7143   -0.1901 H   0  0  0  0  0  0  0  0  0  0  0  0
    0.2077   -3.0057   -1.4030 H   0  0  0  0  0  0  0  0  0  0  0  0
   -0.4886   -3.8391    0.0826 H   0  0  0  0  0  0  0  0  0  0  0  0
    0.4472   -3.0611    2.0908 H   0  0  0  0  0  0  0  0  0  0  0  0
    1.5244   -0.2511    1.1204 H   0  0  0  0  0  0  0  0  0  0  0  0
    2.4259   -1.7667    1.1717 H   0  0  0  0  0  0  0  0  0  0  0  0
    3.0461    1.5077    0.5258 H   0  0  0  0  0  0  0  0  0  0  0  0
    5.1388    2.8069    1.0681 H   0  0  0  0  0  0  0  0  0  0  0  0
    7.3344   -0.0520   -1.1675 H   0  0  0  0  0  0  0  0  0  0  0  0
    5.2526   -1.2782   -1.7070 H   0  0  0  0  0  0  0  0  0  0  0  0
   -1.8983   -1.1476    1.6891 H   0  0  0  0  0  0  0  0  0  0  0  0
   -1.9215    1.7702    1.6781 H   0  0  0  0  0  0  0  0  0  0  0  0
   -3.7109    3.4194    1.2101 H   0  0  0  0  0  0  0  0  0  0  0  0
   -3.8832   -1.0037   -0.9671 H   0  0  0  0  0  0  0  0  0  0  0  0
  1  2  1  0
  2  3  1  0
  2  4  1  0
  4  5  1  0
  5  6  2  0
  5  7  2  0
  5  8  1  0
  8  9  2  0
  9 10  1  0
 10 11  2  0
 11 12  1  0
 11 13  1  0
 13 14  2  0
  2 15  1  0
 15 16  2  0
 15 17  1  0
 17 18  1  0
 18 19  2  0
 19 20  1  0
 20 21  2  0
 21 22  1  0
 22 23  3  0
 21 24  1  0
 24 25  1  0
 25 26  1  0
 25 27  1  0
 25 28  1  0
 24 29  2  0
 14  8  1  0
 29 18  1  0
  1 30  1  0
  1 31  1  0
  1 32  1  0
  3 33  1  0
  4 34  1  0
  4 35  1  0
  9 36  1  0
 10 37  1  0
 13 38  1  0
 14 39  1  0
 17 40  1  0
 19 41  1  0
 20 42  1  0
 29 43  1  0
M  END
$$$$
