@<TRIPOS>MOLECULE
*****
 43 44 0 0 0
SMALL
GASTEIGER

@<TRIPOS>ATOM
      1 C           0.3268   -3.1698   -0.2914 C.3     1  UNL1       -0.0259
      2 C           0.3875   -1.8906    0.4656 C.3     1  UNL1        0.1583
      3 O           0.0260   -2.2192    1.8103 O.3     1  UNL1       -0.3780
      4 C           1.6997   -1.2192    0.5554 C.3     1  UNL1        0.1078
      5 S           2.4857   -0.7696   -0.9482 S.O2    1  UNL1        0.0001
      6 O           2.7812   -2.0064   -1.7801 O.2     1  UNL1       -0.1693
      7 O           1.6933    0.1759   -1.8002 O.2     1  UNL1       -0.1693
      8 C           3.9854    0.0358   -0.6043 C.ar    1  UNL1        0.0885
      9 C           4.0588    1.1840    0.1501 C.ar    1  UNL1       -0.0342
     10 C           5.1480    1.9103    0.4605 C.ar    1  UNL1       -0.0247
     11 C           6.3993    1.4662   -0.0376 C.ar    1  UNL1        0.1235
     12 F           7.4818    2.1953    0.2844 F       1  UNL1       -0.2055
     13 C           6.3976    0.3487   -0.7904 C.ar    1  UNL1       -0.0247
     14 C           5.2655   -0.3952   -1.1063 C.ar    1  UNL1       -0.0342
     15 C          -0.7036   -0.9705   -0.0088 C.2     1  UNL1        0.2503
     16 O          -0.5824   -0.4784   -1.1794 O.2     1  UNL1       -0.2723
     17 N          -1.8061   -0.6388    0.7574 N.am    1  UNL1       -0.2831
     18 C          -2.8245    0.2984    0.3618 C.ar    1  UNL1        0.0341
     19 C          -2.7077    1.5316    1.0209 C.ar    1  UNL1       -0.0392
     20 C          -3.7184    2.4645    0.7431 C.ar    1  UNL1       -0.0421
     21 C          -4.7136    2.1097   -0.1275 C.ar    1  UNL1        0.0635
     22 C          -5.7913    3.0750   -0.3712 C.1     1  UNL1        0.0997
     23 N          -6.7082    3.9218   -0.5930 N.1     1  UNL1       -0.1909
     24 C          -4.8090    0.9087   -0.7571 C.ar    1  UNL1        0.0739
     25 C          -5.8956    0.5293   -1.6660 C.3     1  UNL1        0.4187
     26 F          -7.0724    0.4781   -0.8811 F       1  UNL1       -0.1659
     27 F          -5.6879   -0.7252   -2.1528 F       1  UNL1       -0.1659
     28 F          -6.0573    1.4891   -2.6600 F       1  UNL1       -0.1659
     29 C          -3.8090   -0.0241   -0.4850 C.ar    1  UNL1       -0.0276
     30 H           1.2758   -3.7143   -0.1901 H       1  UNL1        0.0263
     31 H           0.2077   -3.0057   -1.4030 H       1  UNL1        0.0263
     32 H          -0.4886   -3.8391    0.0826 H       1  UNL1        0.0263
     33 H           0.4472   -3.0611    2.0908 H       1  UNL1        0.2109
     34 H           1.5244   -0.2511    1.1204 H       1  UNL1        0.0538
     35 H           2.4259   -1.7667    1.1717 H       1  UNL1        0.0538
     36 H           3.0461    1.5077    0.5258 H       1  UNL1        0.0637
     37 H           5.1388    2.8069    1.0681 H       1  UNL1        0.0647
     38 H           7.3344   -0.0520   -1.1675 H       1  UNL1        0.0647
     39 H           5.2526   -1.2782   -1.7070 H       1  UNL1        0.0637
     40 H          -1.8983   -1.1476    1.6891 H       1  UNL1        0.1549
     41 H          -1.9215    1.7702    1.6781 H       1  UNL1        0.0636
     42 H          -3.7109    3.4194    1.2101 H       1  UNL1        0.0631
     43 H          -3.8832   -1.0037   -0.9671 H       1  UNL1        0.0642
@<TRIPOS>BOND
     1     1     2    1
     2     2     3    1
     3     2     4    1
     4     4     5    1
     5     5     6    2
     6     5     7    2
     7     5     8    1
     8     8     9   ar
     9     9    10   ar
    10    10    11   ar
    11    11    12    1
    12    11    13   ar
    13    13    14   ar
    14     2    15    1
    15    15    16    2
    16    15    17   am
    17    17    18    1
    18    18    19   ar
    19    19    20   ar
    20    20    21   ar
    21    21    22    1
    22    22    23    3
    23    21    24   ar
    24    24    25    1
    25    25    26    1
    26    25    27    1
    27    25    28    1
    28    24    29   ar
    29    14     8   ar
    30    29    18   ar
    31     1    30    1
    32     1    31    1
    33     1    32    1
    34     3    33    1
    35     4    34    1
    36     4    35    1
    37     9    36    1
    38    10    37    1
    39    13    38    1
    40    14    39    1
    41    17    40    1
    42    19    41    1
    43    20    42    1
    44    29    43    1
