@<TRIPOS>MOLECULE
*****
 63 64 0 0 0
SMALL
GASTEIGER

@<TRIPOS>ATOM
      1 C          -3.4270   -2.2423    2.9081 C.3     1  UNL1       -0.0370
      2 C          -4.2303   -1.2020    2.1688 C.3     1  UNL1        0.0766
      3 C          -5.5603   -1.8394    1.7999 C.3     1  UNL1       -0.0370
      4 O          -3.5512   -0.8029    1.0469 O.3     1  UNL1       -0.2731
      5 N          -3.2832    0.4554    0.9187 N.3     1  UNL1       -0.0419
      6 C          -3.3469    1.0485   -0.3513 C.3     1  UNL1        0.1387
      7 C          -3.0052    0.2358   -1.4997 C.2     1  UNL1        0.2570
      8 O          -3.2608    0.6755   -2.6570 O.2     1  UNL1       -0.2718
      9 N          -2.3983   -1.0248   -1.4115 N.am    1  UNL1       -0.1961
     10 O          -2.0977   -1.7566   -2.5413 O.3     1  UNL1       -0.2951
     11 C          -4.6742    1.7701   -0.4827 C.3     1  UNL1       -0.0185
     12 C          -5.8490    0.8381   -0.3314 C.3     1  UNL1       -0.0607
     13 C          -4.7532    2.5911   -1.7426 C.3     1  UNL1       -0.0607
     14 S          -2.1399    1.0541    2.0141 S.O2    1  UNL1        0.0832
     15 O          -2.3499    2.5136    2.3352 O.2     1  UNL1       -0.1509
     16 O          -2.2589    0.3175    3.3125 O.2     1  UNL1       -0.1509
     17 C          -0.4989    0.8490    1.4043 C.ar    1  UNL1        0.1077
     18 C           0.0990    1.8339    0.6567 C.ar    1  UNL1       -0.0347
     19 C           1.3831    1.6467    0.1899 C.ar    1  UNL1       -0.0522
     20 C           2.1002    0.4897    0.4499 C.ar    1  UNL1       -0.0178
     21 C           3.4614    0.3100   -0.0553 C.ar    1  UNL1       -0.0179
     22 C           4.2378    1.4402   -0.1784 C.ar    1  UNL1       -0.0538
     23 C           5.5216    1.2906   -0.6530 C.ar    1  UNL1       -0.0578
     24 C           6.0072    0.0462   -0.9919 C.ar    1  UNL1       -0.0448
     25 C           7.4024   -0.1446   -1.5123 C.3     1  UNL1       -0.0215
     26 C           7.3095   -0.8435   -2.8432 C.3     1  UNL1       -0.0587
     27 C           8.1774   -0.9946   -0.5066 C.3     1  UNL1       -0.0587
     28 C           5.2091   -1.0623   -0.8581 C.ar    1  UNL1       -0.0578
     29 C           3.9219   -0.9264   -0.3842 C.ar    1  UNL1       -0.0538
     30 C           1.4468   -0.4682    1.2084 C.ar    1  UNL1       -0.0522
     31 C           0.1802   -0.3306    1.6921 C.ar    1  UNL1       -0.0347
     32 H          -2.3722   -2.3141    2.5655 H       1  UNL1        0.0255
     33 H          -3.8648   -3.2619    2.7691 H       1  UNL1        0.0255
     34 H          -3.4672   -2.0433    3.9898 H       1  UNL1        0.0255
     35 H          -4.4463   -0.3689    2.8688 H       1  UNL1        0.0611
     36 H          -5.6776   -2.8243    2.2917 H       1  UNL1        0.0255
     37 H          -5.5793   -2.0234    0.6934 H       1  UNL1        0.0255
     38 H          -6.4006   -1.1797    2.0632 H       1  UNL1        0.0255
     39 H          -2.5436    1.8792   -0.3301 H       1  UNL1        0.0604
     40 H          -2.1361   -1.4711   -0.5340 H       1  UNL1        0.1822
     41 H          -2.5393   -2.6502   -2.4955 H       1  UNL1        0.2414
     42 H          -4.7245    2.4788    0.3705 H       1  UNL1        0.0317
     43 H          -5.6719   -0.1505   -0.7994 H       1  UNL1        0.0233
     44 H          -6.1455    0.7824    0.7153 H       1  UNL1        0.0233
     45 H          -6.7393    1.2560   -0.8892 H       1  UNL1        0.0233
     46 H          -5.2252    2.0227   -2.5835 H       1  UNL1        0.0233
     47 H          -5.2922    3.5331   -1.5336 H       1  UNL1        0.0233
     48 H          -3.7493    2.8960   -2.1211 H       1  UNL1        0.0233
     49 H          -0.4507    2.7404    0.4492 H       1  UNL1        0.0637
     50 H           1.8553    2.4168   -0.3968 H       1  UNL1        0.0624
     51 H           3.8728    2.4251    0.0831 H       1  UNL1        0.0624
     52 H           6.1674    2.1639   -0.7643 H       1  UNL1        0.0621
     53 H           7.9107    0.8362   -1.5638 H       1  UNL1        0.0343
     54 H           7.3457   -0.0849   -3.6512 H       1  UNL1        0.0235
     55 H           8.1619   -1.5549   -2.9180 H       1  UNL1        0.0235
     56 H           6.3444   -1.3712   -2.9258 H       1  UNL1        0.0235
     57 H           7.9147   -0.6344    0.5259 H       1  UNL1        0.0235
     58 H           7.8797   -2.0467   -0.5553 H       1  UNL1        0.0235
     59 H           9.2551   -0.8705   -0.7204 H       1  UNL1        0.0235
     60 H           5.5674   -2.0707   -1.1200 H       1  UNL1        0.0621
     61 H           3.3033   -1.8258   -0.2860 H       1  UNL1        0.0624
     62 H           2.0061   -1.3789    1.4152 H       1  UNL1        0.0624
     63 H          -0.3313   -1.0733    2.2823 H       1  UNL1        0.0637
@<TRIPOS>BOND
     1     1     2    1
     2     2     3    1
     3     2     4    1
     4     4     5    1
     5     5     6    1
     6     6     7    1
     7     7     8    2
     8     7     9   am
     9     9    10    1
    10     6    11    1
    11    11    12    1
    12    11    13    1
    13     5    14    1
    14    14    15    2
    15    14    16    2
    16    14    17    1
    17    17    18   ar
    18    18    19   ar
    19    19    20   ar
    20    20    21    1
    21    21    22   ar
    22    22    23   ar
    23    23    24   ar
    24    24    25    1
    25    25    26    1
    26    25    27    1
    27    24    28   ar
    28    28    29   ar
    29    20    30   ar
    30    30    31   ar
    31    31    17   ar
    32    29    21   ar
    33     1    32    1
    34     1    33    1
    35     1    34    1
    36     2    35    1
    37     3    36    1
    38     3    37    1
    39     3    38    1
    40     6    39    1
    41     9    40    1
    42    10    41    1
    43    11    42    1
    44    12    43    1
    45    12    44    1
    46    12    45    1
    47    13    46    1
    48    13    47    1
    49    13    48    1
    50    18    49    1
    51    19    50    1
    52    22    51    1
    53    23    52    1
    54    25    53    1
    55    26    54    1
    56    26    55    1
    57    26    56    1
    58    27    57    1
    59    27    58    1
    60    27    59    1
    61    28    60    1
    62    29    61    1
    63    30    62    1
    64    31    63    1
