
     RDKit          3D

 63 64  0  0  0  0  0  0  0  0999 V2000
   -3.4270   -2.2423    2.9081 C   0  0  0  0  0  0  0  0  0  0  0  0
   -4.2303   -1.2020    2.1688 C   0  0  0  0  0  0  0  0  0  0  0  0
   -5.5603   -1.8394    1.7999 C   0  0  0  0  0  0  0  0  0  0  0  0
   -3.5512   -0.8029    1.0469 O   0  0  0  0  0  0  0  0  0  0  0  0
   -3.2832    0.4554    0.9187 N   0  0  0  0  0  0  0  0  0  0  0  0
   -3.3469    1.0485   -0.3513 C   0  0  0  0  0  0  0  0  0  0  0  0
   -3.0052    0.2358   -1.4997 C   0  0  0  0  0  0  0  0  0  0  0  0
   -3.2608    0.6755   -2.6570 O   0  0  0  0  0  0  0  0  0  0  0  0
   -2.3983   -1.0248   -1.4115 N   0  0  0  0  0  0  0  0  0  0  0  0
   -2.0977   -1.7566   -2.5413 O   0  0  0  0  0  0  0  0  0  0  0  0
   -4.6742    1.7701   -0.4827 C   0  0  0  0  0  0  0  0  0  0  0  0
   -5.8490    0.8381   -0.3314 C   0  0  0  0  0  0  0  0  0  0  0  0
   -4.7532    2.5911   -1.7426 C   0  0  0  0  0  0  0  0  0  0  0  0
   -2.1399    1.0541    2.0141 S   0  0  0  0  0  6  0  0  0  0  0  0
   -2.3499    2.5136    2.3352 O   0  0  0  0  0  0  0  0  0  0  0  0
   -2.2589    0.3175    3.3125 O   0  0  0  0  0  0  0  0  0  0  0  0
   -0.4989    0.8490    1.4043 C   0  0  0  0  0  0  0  0  0  0  0  0
    0.0990    1.8339    0.6567 C   0  0  0  0  0  0  0  0  0  0  0  0
    1.3831    1.6467    0.1899 C   0  0  0  0  0  0  0  0  0  0  0  0
    2.1002    0.4897    0.4499 C   0  0  0  0  0  0  0  0  0  0  0  0
    3.4614    0.3100   -0.0553 C   0  0  0  0  0  0  0  0  0  0  0  0
    4.2378    1.4402   -0.1784 C   0  0  0  0  0  0  0  0  0  0  0  0
    5.5216    1.2906   -0.6530 C   0  0  0  0  0  0  0  0  0  0  0  0
    6.0072    0.0462   -0.9919 C   0  0  0  0  0  0  0  0  0  0  0  0
    7.4024   -0.1446   -1.5123 C   0  0  0  0  0  0  0  0  0  0  0  0
    7.3095   -0.8435   -2.8432 C   0  0  0  0  0  0  0  0  0  0  0  0
    8.1774   -0.9946   -0.5066 C   0  0  0  0  0  0  0  0  0  0  0  0
    5.2091   -1.0623   -0.8581 C   0  0  0  0  0  0  0  0  0  0  0  0
    3.9219   -0.9264   -0.3842 C   0  0  0  0  0  0  0  0  0  0  0  0
    1.4468   -0.4682    1.2084 C   0  0  0  0  0  0  0  0  0  0  0  0
    0.1802   -0.3306    1.6921 C   0  0  0  0  0  0  0  0  0  0  0  0
   -2.3722   -2.3141    2.5655 H   0  0  0  0  0  0  0  0  0  0  0  0
   -3.8648   -3.2619    2.7691 H   0  0  0  0  0  0  0  0  0  0  0  0
   -3.4672   -2.0433    3.9898 H   0  0  0  0  0  0  0  0  0  0  0  0
   -4.4463   -0.3689    2.8688 H   0  0  0  0  0  0  0  0  0  0  0  0
   -5.6776   -2.8243    2.2917 H   0  0  0  0  0  0  0  0  0  0  0  0
   -5.5793   -2.0234    0.6934 H   0  0  0  0  0  0  0  0  0  0  0  0
   -6.4006   -1.1797    2.0632 H   0  0  0  0  0  0  0  0  0  0  0  0
   -2.5436    1.8792   -0.3301 H   0  0  0  0  0  0  0  0  0  0  0  0
   -2.1361   -1.4711   -0.5340 H   0  0  0  0  0  0  0  0  0  0  0  0
   -2.5393   -2.6502   -2.4955 H   0  0  0  0  0  0  0  0  0  0  0  0
   -4.7245    2.4788    0.3705 H   0  0  0  0  0  0  0  0  0  0  0  0
   -5.6719   -0.1505   -0.7994 H   0  0  0  0  0  0  0  0  0  0  0  0
   -6.1455    0.7824    0.7153 H   0  0  0  0  0  0  0  0  0  0  0  0
   -6.7393    1.2560   -0.8892 H   0  0  0  0  0  0  0  0  0  0  0  0
   -5.2252    2.0227   -2.5835 H   0  0  0  0  0  0  0  0  0  0  0  0
   -5.2922    3.5331   -1.5336 H   0  0  0  0  0  0  0  0  0  0  0  0
   -3.7493    2.8960   -2.1211 H   0  0  0  0  0  0  0  0  0  0  0  0
   -0.4507    2.7404    0.4492 H   0  0  0  0  0  0  0  0  0  0  0  0
    1.8553    2.4168   -0.3968 H   0  0  0  0  0  0  0  0  0  0  0  0
    3.8728    2.4251    0.0831 H   0  0  0  0  0  0  0  0  0  0  0  0
    6.1674    2.1639   -0.7643 H   0  0  0  0  0  0  0  0  0  0  0  0
    7.9107    0.8362   -1.5638 H   0  0  0  0  0  0  0  0  0  0  0  0
    7.3457   -0.0849   -3.6512 H   0  0  0  0  0  0  0  0  0  0  0  0
    8.1619   -1.5549   -2.9180 H   0  0  0  0  0  0  0  0  0  0  0  0
    6.3444   -1.3712   -2.9258 H   0  0  0  0  0  0  0  0  0  0  0  0
    7.9147   -0.6344    0.5259 H   0  0  0  0  0  0  0  0  0  0  0  0
    7.8797   -2.0467   -0.5553 H   0  0  0  0  0  0  0  0  0  0  0  0
    9.2551   -0.8705   -0.7204 H   0  0  0  0  0  0  0  0  0  0  0  0
    5.5674   -2.0707   -1.1200 H   0  0  0  0  0  0  0  0  0  0  0  0
    3.3033   -1.8258   -0.2860 H   0  0  0  0  0  0  0  0  0  0  0  0
    2.0061   -1.3789    1.4152 H   0  0  0  0  0  0  0  0  0  0  0  0
   -0.3313   -1.0733    2.2823 H   0  0  0  0  0  0  0  0  0  0  0  0
  1  2  1  0
  2  3  1  0
  2  4  1  0
  4  5  1  0
  5  6  1  0
  6  7  1  0
  7  8  2  0
  7  9  1  0
  9 10  1  0
  6 11  1  0
 11 12  1  0
 11 13  1  0
  5 14  1  0
 14 15  2  0
 14 16  2  0
 14 17  1  0
 17 18  2  0
 18 19  1  0
 19 20  2  0
 20 21  1  0
 21 22  2  0
 22 23  1  0
 23 24  2  0
 24 25  1  0
 25 26  1  0
 25 27  1  0
 24 28  1  0
 28 29  2  0
 20 30  1  0
 30 31  2  0
 31 17  1  0
 29 21  1  0
  1 32  1  0
  1 33  1  0
  1 34  1  0
  2 35  1  0
  3 36  1  0
  3 37  1  0
  3 38  1  0
  6 39  1  0
  9 40  1  0
 10 41  1  0
 11 42  1  0
 12 43  1  0
 12 44  1  0
 12 45  1  0
 13 46  1  0
 13 47  1  0
 13 48  1  0
 18 49  1  0
 19 50  1  0
 22 51  1  0
 23 52  1  0
 25 53  1  0
 26 54  1  0
 26 55  1  0
 26 56  1  0
 27 57  1  0
 27 58  1  0
 27 59  1  0
 28 60  1  0
 29 61  1  0
 30 62  1  0
 31 63  1  0
M  END
$$$$
