
     RDKit          3D

 58 62  0  0  0  0  0  0  0  0999 V2000
   -5.6915    1.3576   -0.1710 C   0  0  0  0  0  0  0  0  0  0  0  0
   -4.9347    0.4421    0.7210 C   0  0  0  0  0  0  0  0  0  0  0  0
   -5.5828   -0.4274    1.5839 C   0  0  0  0  0  0  0  0  0  0  0  0
   -4.8568   -1.2710    2.4056 C   0  0  0  0  0  0  0  0  0  0  0  0
   -3.4828   -1.2652    2.3842 C   0  0  0  0  0  0  0  0  0  0  0  0
   -2.8405   -0.3825    1.5084 C   0  0  0  0  0  0  0  0  0  0  0  0
   -1.3865   -0.3101    1.4206 C   0  0  0  0  0  0  0  0  0  0  0  0
   -0.7554    0.4833    2.1578 O   0  0  0  0  0  0  0  0  0  0  0  0
   -0.6478   -1.1194    0.5148 N   0  0  0  0  0  0  0  0  0  0  0  0
   -1.2498   -2.0761   -0.3919 C   0  0  0  0  0  0  0  0  0  0  0  0
   -0.5372   -3.3906   -0.1562 C   0  0  1  0  0  0  0  0  0  0  0  0
   -1.1938   -4.5292   -0.8951 C   0  0  0  0  0  0  0  0  0  0  0  0
    0.7843   -3.1891   -0.6188 O   0  0  0  0  0  0  0  0  0  0  0  0
    1.4546   -2.3555    0.2646 C   0  0  0  0  0  0  0  0  0  0  0  0
    0.8157   -1.0268    0.4460 C   0  0  1  0  0  0  0  0  0  0  0  0
    1.1112   -0.0614   -0.6664 C   0  0  0  0  0  0  0  0  0  0  0  0
    2.5460    0.1736   -0.9004 C   0  0  0  0  0  0  0  0  0  0  0  0
    3.2219   -0.6030   -1.8034 C   0  0  0  0  0  0  0  0  0  0  0  0
    4.5655   -0.4360   -2.0690 C   0  0  0  0  0  0  0  0  0  0  0  0
    5.2242    0.5578   -1.3838 C   0  0  0  0  0  0  0  0  0  0  0  0
    4.5884    1.3685   -0.4626 C   0  0  0  0  0  0  0  0  0  0  0  0
    5.2411    2.3995    0.2575 N   0  0  0  0  0  0  0  0  0  0  0  0
    4.9980    3.6865    0.0417 N   0  0  0  0  0  0  0  0  0  0  0  0
    5.7513    4.4436    0.8593 C   0  0  0  0  0  0  0  0  0  0  0  0
    6.4956    3.5578    1.6158 C   0  0  0  0  0  0  0  0  0  0  0  0
    6.1428    2.3411    1.2059 N   0  0  0  0  0  0  0  0  0  0  0  0
    3.2328    1.1619   -0.2288 C   0  0  0  0  0  0  0  0  0  0  0  0
   -3.5567    0.4601    0.6876 C   0  0  0  0  0  0  0  0  0  0  0  0
   -2.9212    1.3688   -0.2137 N   0  0  0  0  0  0  0  0  0  0  0  0
   -2.1970    2.4257    0.1690 N   0  0  0  0  0  0  0  0  0  0  0  0
   -1.7294    3.0882   -0.9012 C   0  0  0  0  0  0  0  0  0  0  0  0
   -2.1871    2.4068   -2.0129 C   0  0  0  0  0  0  0  0  0  0  0  0
   -2.9002    1.3793   -1.5184 N   0  0  0  0  0  0  0  0  0  0  0  0
   -5.2520    1.4667   -1.1640 H   0  0  0  0  0  0  0  0  0  0  0  0
   -5.8757    2.3263    0.3425 H   0  0  0  0  0  0  0  0  0  0  0  0
   -6.6997    0.8749   -0.3220 H   0  0  0  0  0  0  0  0  0  0  0  0
   -6.6664   -0.4617    1.6300 H   0  0  0  0  0  0  0  0  0  0  0  0
   -5.4044   -1.9362    3.0663 H   0  0  0  0  0  0  0  0  0  0  0  0
   -2.8839   -1.9105    3.0122 H   0  0  0  0  0  0  0  0  0  0  0  0
   -2.3437   -2.1592   -0.2661 H   0  0  0  0  0  0  0  0  0  0  0  0
   -1.0262   -1.7626   -1.4321 H   0  0  0  0  0  0  0  0  0  0  0  0
   -0.4753   -3.6242    0.9251 H   0  0  0  0  0  0  0  0  0  0  0  0
   -0.4698   -5.3227   -1.0882 H   0  0  0  0  0  0  0  0  0  0  0  0
   -2.0174   -4.9283   -0.2782 H   0  0  0  0  0  0  0  0  0  0  0  0
   -1.6584   -4.1316   -1.8282 H   0  0  0  0  0  0  0  0  0  0  0  0
    2.4782   -2.2118   -0.1243 H   0  0  0  0  0  0  0  0  0  0  0  0
    1.5731   -2.8975    1.2405 H   0  0  0  0  0  0  0  0  0  0  0  0
    1.1669   -0.5852    1.3979 H   0  0  0  0  0  0  0  0  0  0  0  0
    0.6377    0.9224   -0.4770 H   0  0  0  0  0  0  0  0  0  0  0  0
    0.6492   -0.4201   -1.6286 H   0  0  0  0  0  0  0  0  0  0  0  0
    2.7258   -1.4025   -2.3660 H   0  0  0  0  0  0  0  0  0  0  0  0
    5.1009   -1.0431   -2.7770 H   0  0  0  0  0  0  0  0  0  0  0  0
    6.2734    0.7332   -1.5509 H   0  0  0  0  0  0  0  0  0  0  0  0
    5.7903    5.5257    0.9343 H   0  0  0  0  0  0  0  0  0  0  0  0
    7.2156    3.8201    2.3828 H   0  0  0  0  0  0  0  0  0  0  0  0
    2.7345    1.7977    0.4936 H   0  0  0  0  0  0  0  0  0  0  0  0
   -1.1112    3.9849   -0.9338 H   0  0  0  0  0  0  0  0  0  0  0  0
   -1.9837    2.6863   -3.0388 H   0  0  0  0  0  0  0  0  0  0  0  0
  1  2  1  0
  2  3  2  0
  3  4  1  0
  4  5  2  0
  5  6  1  0
  6  7  1  0
  7  8  2  0
  7  9  1  0
  9 10  1  0
 10 11  1  0
 11 12  1  0
 11 13  1  0
 13 14  1  0
 14 15  1  0
 15 16  1  0
 16 17  1  0
 17 18  2  0
 18 19  1  0
 19 20  2  0
 20 21  1  0
 21 22  1  0
 22 23  1  0
 23 24  2  0
 24 25  1  0
 25 26  2  0
 21 27  2  0
  6 28  2  0
 28 29  1  0
 29 30  1  0
 30 31  2  0
 31 32  1  0
 32 33  2  0
 28  2  1  0
 33 29  1  0
 15  9  1  0
 27 17  1  0
 26 22  1  0
  1 34  1  0
  1 35  1  0
  1 36  1  0
  3 37  1  0
  4 38  1  0
  5 39  1  0
 10 40  1  0
 10 41  1  0
 11 42  1  1
 12 43  1  0
 12 44  1  0
 12 45  1  0
 14 46  1  0
 14 47  1  0
 15 48  1  1
 16 49  1  0
 16 50  1  0
 18 51  1  0
 19 52  1  0
 20 53  1  0
 24 54  1  0
 25 55  1  0
 27 56  1  0
 31 57  1  0
 32 58  1  0
M  END
$$$$
