@<TRIPOS>MOLECULE
*****
 58 62 0 0 0
SMALL
GASTEIGER

@<TRIPOS>ATOM
      1 C          -5.6915    1.3576   -0.1710 C.3     1  UNL1       -0.0376
      2 C          -4.9347    0.4421    0.7210 C.ar    1  UNL1       -0.0226
      3 C          -5.5828   -0.4274    1.5839 C.ar    1  UNL1       -0.0567
      4 C          -4.8568   -1.2710    2.4056 C.ar    1  UNL1       -0.0607
      5 C          -3.4828   -1.2652    2.3842 C.ar    1  UNL1       -0.0475
      6 C          -2.8405   -0.3825    1.5084 C.ar    1  UNL1        0.0642
      7 C          -1.3865   -0.3101    1.4206 C.2     1  UNL1        0.2491
      8 O          -0.7554    0.4833    2.1578 O.2     1  UNL1       -0.2699
      9 N          -0.6478   -1.1194    0.5148 N.am    1  UNL1       -0.2895
     10 C          -1.2498   -2.0761   -0.3919 C.3     1  UNL1        0.0414
     11 C          -0.5372   -3.3906   -0.1562 C.3     1  UNL1        0.0717
     12 C          -1.1938   -4.5292   -0.8951 C.3     1  UNL1       -0.0372
     13 O           0.7843   -3.1891   -0.6188 O.3     1  UNL1       -0.3734
     14 C           1.4546   -2.3555    0.2646 C.3     1  UNL1        0.0669
     15 C           0.8157   -1.0268    0.4460 C.3     1  UNL1        0.0537
     16 C           1.1112   -0.0614   -0.6664 C.3     1  UNL1       -0.0068
     17 C           2.5460    0.1736   -0.9004 C.ar    1  UNL1       -0.0435
     18 C           3.2219   -0.6030   -1.8034 C.ar    1  UNL1       -0.0584
     19 C           4.5655   -0.4360   -2.0690 C.ar    1  UNL1       -0.0594
     20 C           5.2242    0.5578   -1.3838 C.ar    1  UNL1       -0.0345
     21 C           4.5884    1.3685   -0.4626 C.ar    1  UNL1        0.0864
     22 N           5.2411    2.3995    0.2575 N.ar    1  UNL1       -0.1503
     23 N           4.9980    3.6865    0.0417 N.ar    1  UNL1       -0.1556
     24 C           5.7513    4.4436    0.8593 C.ar    1  UNL1        0.0697
     25 C           6.4956    3.5578    1.6158 C.ar    1  UNL1        0.0697
     26 N           6.1428    2.3411    1.2059 N.ar    1  UNL1       -0.1556
     27 C           3.2328    1.1619   -0.2288 C.ar    1  UNL1       -0.0313
     28 C          -3.5567    0.4601    0.6876 C.ar    1  UNL1        0.1011
     29 N          -2.9212    1.3688   -0.2137 N.ar    1  UNL1       -0.1493
     30 N          -2.1970    2.4257    0.1690 N.ar    1  UNL1       -0.1556
     31 C          -1.7294    3.0882   -0.9012 C.ar    1  UNL1        0.0697
     32 C          -2.1871    2.4068   -2.0129 C.ar    1  UNL1        0.0697
     33 N          -2.9002    1.3793   -1.5184 N.ar    1  UNL1       -0.1556
     34 H          -5.2520    1.4667   -1.1640 H       1  UNL1        0.0278
     35 H          -5.8757    2.3263    0.3425 H       1  UNL1        0.0278
     36 H          -6.6997    0.8749   -0.3220 H       1  UNL1        0.0278
     37 H          -6.6664   -0.4617    1.6300 H       1  UNL1        0.0621
     38 H          -5.4044   -1.9362    3.0663 H       1  UNL1        0.0618
     39 H          -2.8839   -1.9105    3.0122 H       1  UNL1        0.0626
     40 H          -2.3437   -2.1592   -0.2661 H       1  UNL1        0.0490
     41 H          -1.0262   -1.7626   -1.4321 H       1  UNL1        0.0490
     42 H          -0.4753   -3.6242    0.9251 H       1  UNL1        0.0609
     43 H          -0.4698   -5.3227   -1.0882 H       1  UNL1        0.0255
     44 H          -2.0174   -4.9283   -0.2782 H       1  UNL1        0.0255
     45 H          -1.6584   -4.1316   -1.8282 H       1  UNL1        0.0255
     46 H           2.4782   -2.2118   -0.1243 H       1  UNL1        0.0578
     47 H           1.5731   -2.8975    1.2405 H       1  UNL1        0.0578
     48 H           1.1669   -0.5852    1.3979 H       1  UNL1        0.0526
     49 H           0.6377    0.9224   -0.4770 H       1  UNL1        0.0332
     50 H           0.6492   -0.4201   -1.6286 H       1  UNL1        0.0332
     51 H           2.7258   -1.4025   -2.3660 H       1  UNL1        0.0620
     52 H           5.1009   -1.0431   -2.7770 H       1  UNL1        0.0618
     53 H           6.2734    0.7332   -1.5509 H       1  UNL1        0.0639
     54 H           5.7903    5.5257    0.9343 H       1  UNL1        0.0864
     55 H           7.2156    3.8201    2.3828 H       1  UNL1        0.0864
     56 H           2.7345    1.7977    0.4936 H       1  UNL1        0.0642
     57 H          -1.1112    3.9849   -0.9338 H       1  UNL1        0.0864
     58 H          -1.9837    2.6863   -3.0388 H       1  UNL1        0.0864
@<TRIPOS>BOND
     1     1     2    1
     2     2     3   ar
     3     3     4   ar
     4     4     5   ar
     5     5     6   ar
     6     6     7    1
     7     7     8    2
     8     7     9   am
     9     9    10    1
    10    10    11    1
    11    11    12    1
    12    11    13    1
    13    13    14    1
    14    14    15    1
    15    15    16    1
    16    16    17    1
    17    17    18   ar
    18    18    19   ar
    19    19    20   ar
    20    20    21   ar
    21    21    22    1
    22    22    23   ar
    23    23    24   ar
    24    24    25   ar
    25    25    26   ar
    26    21    27   ar
    27     6    28   ar
    28    28    29    1
    29    29    30   ar
    30    30    31   ar
    31    31    32   ar
    32    32    33   ar
    33    28     2   ar
    34    33    29   ar
    35    15     9    1
    36    27    17   ar
    37    26    22   ar
    38     1    34    1
    39     1    35    1
    40     1    36    1
    41     3    37    1
    42     4    38    1
    43     5    39    1
    44    10    40    1
    45    10    41    1
    46    11    42    1
    47    12    43    1
    48    12    44    1
    49    12    45    1
    50    14    46    1
    51    14    47    1
    52    15    48    1
    53    16    49    1
    54    16    50    1
    55    18    51    1
    56    19    52    1
    57    20    53    1
    58    24    54    1
    59    25    55    1
    60    27    56    1
    61    31    57    1
    62    32    58    1
