@<TRIPOS>MOLECULE
*****
 43 46 0 0 0
SMALL
GASTEIGER

@<TRIPOS>ATOM
      1 C           1.0434    1.8008   -1.2884 C.3     1  UNL1       -0.0460
      2 C           0.5011    0.4106   -1.5256 C.3     1  UNL1        0.0293
      3 C           1.6264   -0.5665   -1.2632 C.3     1  UNL1        0.0101
      4 C           1.8740   -0.5504    0.1998 C.ar    1  UNL1        0.0745
      5 C           0.7770   -0.7200    1.0193 C.ar    1  UNL1        0.1038
      6 N           1.2055   -0.6746    2.2764 N.ar    1  UNL1       -0.1322
      7 N           2.5173   -0.4847    2.2623 N.ar    1  UNL1       -0.0576
      8 N           2.9226   -0.4096    1.0219 N.ar    1  UNL1       -0.1820
      9 C           4.2542   -0.2112    0.5881 C.ar    1  UNL1        0.2530
     10 N           5.2967   -0.6004    1.3580 N.ar    1  UNL1       -0.2161
     11 C           6.5733   -0.4310    0.9845 C.ar    1  UNL1        0.0681
     12 C           6.8828    0.1584   -0.2231 C.ar    1  UNL1        0.1595
     13 F           8.1725    0.3321   -0.6056 F       1  UNL1       -0.2023
     14 C           5.8177    0.5533   -1.0041 C.ar    1  UNL1        0.0681
     15 N           4.5499    0.3684   -0.5992 N.ar    1  UNL1       -0.2161
     16 C          -0.5308   -0.9002    0.3146 C.3     1  UNL1        0.0610
     17 N          -0.6615    0.1291   -0.7233 N.am    1  UNL1       -0.2884
     18 C          -1.8776    0.8084   -0.9199 C.2     1  UNL1        0.2500
     19 O          -1.9229    1.6882   -1.8359 O.2     1  UNL1       -0.2699
     20 C          -3.0794    0.5620   -0.1384 C.ar    1  UNL1        0.0726
     21 C          -3.3379    1.2634    1.0212 C.ar    1  UNL1       -0.0468
     22 C          -4.4649    1.0534    1.7818 C.ar    1  UNL1       -0.0603
     23 C          -5.3921    0.1114    1.3966 C.ar    1  UNL1       -0.0473
     24 C          -5.1583   -0.6144    0.2277 C.ar    1  UNL1        0.0906
     25 C          -6.1674   -1.6411   -0.1935 C.3     1  UNL1        0.4201
     26 F          -5.5456   -2.8961   -0.2450 F       1  UNL1       -0.1658
     27 F          -7.1669   -1.7594    0.7483 F       1  UNL1       -0.1658
     28 F          -6.6368   -1.3671   -1.4499 F       1  UNL1       -0.1658
     29 C          -4.0196   -0.3767   -0.5073 C.ar    1  UNL1        0.1471
     30 F          -3.8445   -1.1144   -1.6378 F       1  UNL1       -0.2041
     31 H           2.0060    1.7923   -0.7228 H       1  UNL1        0.0248
     32 H           1.2912    2.2278   -2.2955 H       1  UNL1        0.0248
     33 H           0.3487    2.4413   -0.7224 H       1  UNL1        0.0248
     34 H           0.2121    0.2721   -2.6035 H       1  UNL1        0.0502
     35 H           2.5344   -0.1252   -1.7646 H       1  UNL1        0.0347
     36 H           1.4023   -1.5803   -1.6426 H       1  UNL1        0.0347
     37 H           7.3996   -0.7445    1.6049 H       1  UNL1        0.0860
     38 H           6.0194    1.0237   -1.9669 H       1  UNL1        0.0860
     39 H          -0.4869   -1.9189   -0.1500 H       1  UNL1        0.0530
     40 H          -1.3897   -0.8263    1.0107 H       1  UNL1        0.0530
     41 H          -2.5947    2.0066    1.3144 H       1  UNL1        0.0626
     42 H          -4.6535    1.6084    2.6846 H       1  UNL1        0.0618
     43 H          -6.2968   -0.0987    1.9526 H       1  UNL1        0.0624
@<TRIPOS>BOND
     1     1     2    1
     2     2     3    1
     3     3     4    1
     4     4     5   ar
     5     5     6   ar
     6     6     7   ar
     7     7     8   ar
     8     8     9    1
     9     9    10   ar
    10    10    11   ar
    11    11    12   ar
    12    12    13    1
    13    12    14   ar
    14    14    15   ar
    15     5    16    1
    16    16    17    1
    17    17    18   am
    18    18    19    2
    19    18    20    1
    20    20    21   ar
    21    21    22   ar
    22    22    23   ar
    23    23    24   ar
    24    24    25    1
    25    25    26    1
    26    25    27    1
    27    25    28    1
    28    24    29   ar
    29    29    30    1
    30    17     2    1
    31    29    20   ar
    32     8     4   ar
    33    15     9   ar
    34     1    31    1
    35     1    32    1
    36     1    33    1
    37     2    34    1
    38     3    35    1
    39     3    36    1
    40    11    37    1
    41    14    38    1
    42    16    39    1
    43    16    40    1
    44    21    41    1
    45    22    42    1
    46    23    43    1
