
     RDKit          3D

 43 46  0  0  0  0  0  0  0  0999 V2000
    1.0434    1.8008   -1.2884 C   0  0  0  0  0  0  0  0  0  0  0  0
    0.5011    0.4106   -1.5256 C   0  0  1  0  0  0  0  0  0  0  0  0
    1.6264   -0.5665   -1.2632 C   0  0  0  0  0  0  0  0  0  0  0  0
    1.8740   -0.5504    0.1998 C   0  0  0  0  0  0  0  0  0  0  0  0
    0.7770   -0.7200    1.0193 C   0  0  0  0  0  0  0  0  0  0  0  0
    1.2055   -0.6746    2.2764 N   0  0  0  0  0  0  0  0  0  0  0  0
    2.5173   -0.4847    2.2623 N   0  0  0  0  0  0  0  0  0  0  0  0
    2.9226   -0.4096    1.0219 N   0  0  0  0  0  0  0  0  0  0  0  0
    4.2542   -0.2112    0.5881 C   0  0  0  0  0  0  0  0  0  0  0  0
    5.2967   -0.6004    1.3580 N   0  0  0  0  0  0  0  0  0  0  0  0
    6.5733   -0.4310    0.9845 C   0  0  0  0  0  0  0  0  0  0  0  0
    6.8828    0.1584   -0.2231 C   0  0  0  0  0  0  0  0  0  0  0  0
    8.1725    0.3321   -0.6056 F   0  0  0  0  0  0  0  0  0  0  0  0
    5.8177    0.5533   -1.0041 C   0  0  0  0  0  0  0  0  0  0  0  0
    4.5499    0.3684   -0.5992 N   0  0  0  0  0  0  0  0  0  0  0  0
   -0.5308   -0.9002    0.3146 C   0  0  0  0  0  0  0  0  0  0  0  0
   -0.6615    0.1291   -0.7233 N   0  0  0  0  0  0  0  0  0  0  0  0
   -1.8776    0.8084   -0.9199 C   0  0  0  0  0  0  0  0  0  0  0  0
   -1.9229    1.6882   -1.8359 O   0  0  0  0  0  0  0  0  0  0  0  0
   -3.0794    0.5620   -0.1384 C   0  0  0  0  0  0  0  0  0  0  0  0
   -3.3379    1.2634    1.0212 C   0  0  0  0  0  0  0  0  0  0  0  0
   -4.4649    1.0534    1.7818 C   0  0  0  0  0  0  0  0  0  0  0  0
   -5.3921    0.1114    1.3966 C   0  0  0  0  0  0  0  0  0  0  0  0
   -5.1583   -0.6144    0.2277 C   0  0  0  0  0  0  0  0  0  0  0  0
   -6.1674   -1.6411   -0.1935 C   0  0  0  0  0  0  0  0  0  0  0  0
   -5.5456   -2.8961   -0.2450 F   0  0  0  0  0  0  0  0  0  0  0  0
   -7.1669   -1.7594    0.7483 F   0  0  0  0  0  0  0  0  0  0  0  0
   -6.6368   -1.3671   -1.4499 F   0  0  0  0  0  0  0  0  0  0  0  0
   -4.0196   -0.3767   -0.5073 C   0  0  0  0  0  0  0  0  0  0  0  0
   -3.8445   -1.1144   -1.6378 F   0  0  0  0  0  0  0  0  0  0  0  0
    2.0060    1.7923   -0.7228 H   0  0  0  0  0  0  0  0  0  0  0  0
    1.2912    2.2278   -2.2955 H   0  0  0  0  0  0  0  0  0  0  0  0
    0.3487    2.4413   -0.7224 H   0  0  0  0  0  0  0  0  0  0  0  0
    0.2121    0.2721   -2.6035 H   0  0  0  0  0  0  0  0  0  0  0  0
    2.5344   -0.1252   -1.7646 H   0  0  0  0  0  0  0  0  0  0  0  0
    1.4023   -1.5803   -1.6426 H   0  0  0  0  0  0  0  0  0  0  0  0
    7.3996   -0.7445    1.6049 H   0  0  0  0  0  0  0  0  0  0  0  0
    6.0194    1.0237   -1.9669 H   0  0  0  0  0  0  0  0  0  0  0  0
   -0.4869   -1.9189   -0.1500 H   0  0  0  0  0  0  0  0  0  0  0  0
   -1.3897   -0.8263    1.0107 H   0  0  0  0  0  0  0  0  0  0  0  0
   -2.5947    2.0066    1.3144 H   0  0  0  0  0  0  0  0  0  0  0  0
   -4.6535    1.6084    2.6846 H   0  0  0  0  0  0  0  0  0  0  0  0
   -6.2968   -0.0987    1.9526 H   0  0  0  0  0  0  0  0  0  0  0  0
  1  2  1  0
  2  3  1  0
  3  4  1  0
  4  5  2  0
  5  6  1  0
  6  7  2  0
  7  8  1  0
  8  9  1  0
  9 10  2  0
 10 11  1  0
 11 12  2  0
 12 13  1  0
 12 14  1  0
 14 15  2  0
  5 16  1  0
 16 17  1  0
 17 18  1  0
 18 19  2  0
 18 20  1  0
 20 21  2  0
 21 22  1  0
 22 23  2  0
 23 24  1  0
 24 25  1  0
 25 26  1  0
 25 27  1  0
 25 28  1  0
 24 29  2  0
 29 30  1  0
 17  2  1  0
 29 20  1  0
  8  4  1  0
 15  9  1  0
  1 31  1  0
  1 32  1  0
  1 33  1  0
  2 34  1  6
  3 35  1  0
  3 36  1  0
 11 37  1  0
 14 38  1  0
 16 39  1  0
 16 40  1  0
 21 41  1  0
 22 42  1  0
 23 43  1  0
M  END
$$$$
