@<TRIPOS>MOLECULE
*****
 54 55 0 0 0
SMALL
GASTEIGER

@<TRIPOS>ATOM
      1 CG1         2.3200    3.5231   -2.1279 C.3     1  VAL1       -0.0605
      2 CB          0.8570    3.4966   -1.7078 C.3     1  VAL1       -0.0196
      3 CG2        -0.0668    3.4340   -2.8796 C.3     1  VAL1       -0.0605
      4 CA          0.6115    2.4018   -0.6872 C.3     1  VAL1        0.1048
      5 N           0.9425    1.0947   -1.2200 N.am    1  VAL1       -0.2696
      6 C           1.9989    0.3441   -0.6296 C.2     0  UNK0        0.4012
      7 O           2.6024    0.8509    0.3331 O.2     0  UNK0       -0.2265
      8 O           2.3915   -0.8986   -1.0544 O.3     0  UNK0       -0.4456
      9 C           3.4069   -1.7079   -0.5450 C.3     0  UNK0        0.1191
     10 C           3.2539   -2.1009    0.8745 C.ar    0  UNK0       -0.0103
     11 C           3.8191   -1.4133    1.9246 C.ar    0  UNK0       -0.0554
     12 C           3.6434   -1.8116    3.2465 C.ar    0  UNK0       -0.0614
     13 C           2.8937   -2.9148    3.5560 C.ar    0  UNK0       -0.0617
     14 C           2.3207   -3.6152    2.5158 C.ar    0  UNK0       -0.0614
     15 C           2.4947   -3.2202    1.2024 C.ar    0  UNK0       -0.0554
     16 C          -0.7797    2.4705   -0.1991 C.2     1  VAL1        0.2343
     17 O          -1.1808    3.5555    0.2850 O.2     1  VAL1       -0.2738
     18 N          -1.6984    1.3897   -0.2395 N.am    2  PHE2       -0.3041
     19 CA         -3.0628    1.5063    0.2555 C.3     2  PHE2        0.0824
     20 C          -3.9760    1.2572   -0.8880 C.2     2  PHE2        0.1407
     21 O          -5.1993    1.2873   -0.7848 O.2     2  PHE2       -0.2991
     22 CB         -3.3144    0.5406    1.3952 C.3     2  PHE2       -0.0026
     23 CG         -3.1251   -0.8627    1.0221 C.ar    2  PHE2       -0.0452
     24 CD1        -4.1590   -1.6144    0.5324 C.ar    2  PHE2       -0.0585
     25 CE1        -3.9307   -2.9365    0.1943 C.ar    2  PHE2       -0.0615
     26 CZ         -2.6913   -3.5284    0.3338 C.ar    2  PHE2       -0.0617
     27 CE2        -1.6447   -2.7743    0.8275 C.ar    2  PHE2       -0.0615
     28 CD2        -1.8879   -1.4568    1.1603 C.ar    2  PHE2       -0.0585
     29 HG11        2.6544    2.5089   -2.4926 H       1  VAL1        0.0233
     30 HG12        2.9669    3.9017   -1.3115 H       1  VAL1        0.0233
     31 HG13        2.4764    4.2018   -2.9909 H       1  VAL1        0.0233
     32 HB          0.6752    4.4697   -1.1936 H       1  VAL1        0.0318
     33 HG21       -0.5249    2.4340   -3.0337 H       1  VAL1        0.0233
     34 HG22        0.4891    3.7777   -3.7814 H       1  VAL1        0.0233
     35 HG23       -0.9314    4.1455   -2.7879 H       1  VAL1        0.0233
     36 HA          1.2814    2.6333    0.1663 H       1  VAL1        0.0598
     37 H           0.4433    0.6682   -2.0221 H       1  VAL1        0.1528
     38 H           3.4267   -2.6217   -1.2145 H       0  UNK0        0.0749
     39 H           4.4331   -1.2636   -0.7248 H       0  UNK0        0.0749
     40 H           4.4188   -0.5532    1.7629 H       0  UNK0        0.0621
     41 H           4.1002   -1.2514    4.0600 H       0  UNK0        0.0618
     42 H           2.7399   -3.2499    4.5924 H       0  UNK0        0.0618
     43 H           1.7309   -4.4848    2.7730 H       0  UNK0        0.0618
     44 H           2.0425   -3.7730    0.3850 H       0  UNK0        0.0621
     45 H          -1.3390    0.4990   -0.6474 H       2  PHE2        0.1494
     46 HA         -3.2666    2.5238    0.6454 H       2  PHE2        0.0578
     47 H          -3.5938    1.0352   -1.8756 H       2  PHE2        0.1046
     48 HB1        -4.3263    0.7125    1.8134 H       2  PHE2        0.0335
     49 HB2        -2.6034    0.8118    2.2138 H       2  PHE2        0.0335
     50 HD1        -5.1715   -1.2081    0.3958 H       2  PHE2        0.0620
     51 HE1        -4.7655   -3.5267   -0.1961 H       2  PHE2        0.0618
     52 HZ         -2.5051   -4.5564    0.0736 H       2  PHE2        0.0618
     53 HE2        -0.6640   -3.2372    0.9398 H       2  PHE2        0.0618
     54 HD2        -1.0263   -0.8937    1.5494 H       2  PHE2        0.0620
@<TRIPOS>BOND
     1     1     2    1
     2     2     3    1
     3     2     4    1
     4     4     5    1
     5     5     6   am
     6     6     7    2
     7     6     8    1
     8     8     9    1
     9     9    10    1
    10    10    11   ar
    11    11    12   ar
    12    12    13   ar
    13    13    14   ar
    14    14    15   ar
    15     4    16    1
    16    16    17    2
    17    16    18   am
    18    18    19    1
    19    19    20    1
    20    20    21    2
    21    19    22    1
    22    22    23    1
    23    23    24   ar
    24    24    25   ar
    25    25    26   ar
    26    26    27   ar
    27    27    28   ar
    28    15    10   ar
    29    28    23   ar
    30     1    29    1
    31     1    30    1
    32     1    31    1
    33     2    32    1
    34     3    33    1
    35     3    34    1
    36     3    35    1
    37     4    36    1
    38     5    37    1
    39     9    38    1
    40     9    39    1
    41    11    40    1
    42    12    41    1
    43    13    42    1
    44    14    43    1
    45    15    44    1
    46    18    45    1
    47    19    46    1
    48    20    47    1
    49    22    48    1
    50    22    49    1
    51    24    50    1
    52    25    51    1
    53    26    52    1
    54    27    53    1
    55    28    54    1
