
     RDKit          3D

 54 55  0  0  0  0  0  0  0  0999 V2000
    2.3200    3.5231   -2.1279 C   0  0  0  0  0  0  0  0  0  0  0  0
    0.8570    3.4966   -1.7078 C   0  0  0  0  0  0  0  0  0  0  0  0
   -0.0668    3.4340   -2.8796 C   0  0  0  0  0  0  0  0  0  0  0  0
    0.6115    2.4018   -0.6872 C   0  0  2  0  0  0  0  0  0  0  0  0
    0.9425    1.0947   -1.2200 N   0  0  0  0  0  0  0  0  0  0  0  0
    1.9989    0.3441   -0.6296 C   0  0  0  0  0  0  0  0  0  0  0  0
    2.6024    0.8509    0.3331 O   0  0  0  0  0  0  0  0  0  0  0  0
    2.3915   -0.8986   -1.0544 O   0  0  0  0  0  0  0  0  0  0  0  0
    3.4069   -1.7079   -0.5450 C   0  0  0  0  0  0  0  0  0  0  0  0
    3.2539   -2.1009    0.8745 C   0  0  0  0  0  0  0  0  0  0  0  0
    3.8191   -1.4133    1.9246 C   0  0  0  0  0  0  0  0  0  0  0  0
    3.6434   -1.8116    3.2465 C   0  0  0  0  0  0  0  0  0  0  0  0
    2.8937   -2.9148    3.5560 C   0  0  0  0  0  0  0  0  0  0  0  0
    2.3207   -3.6152    2.5158 C   0  0  0  0  0  0  0  0  0  0  0  0
    2.4947   -3.2202    1.2024 C   0  0  0  0  0  0  0  0  0  0  0  0
   -0.7797    2.4705   -0.1991 C   0  0  0  0  0  0  0  0  0  0  0  0
   -1.1808    3.5555    0.2850 O   0  0  0  0  0  0  0  0  0  0  0  0
   -1.6984    1.3897   -0.2395 N   0  0  0  0  0  0  0  0  0  0  0  0
   -3.0628    1.5063    0.2555 C   0  0  0  0  0  0  0  0  0  0  0  0
   -3.9760    1.2572   -0.8880 C   0  0  0  0  0  0  0  0  0  0  0  0
   -5.1993    1.2873   -0.7848 O   0  0  0  0  0  0  0  0  0  0  0  0
   -3.3144    0.5406    1.3952 C   0  0  0  0  0  0  0  0  0  0  0  0
   -3.1251   -0.8627    1.0221 C   0  0  0  0  0  0  0  0  0  0  0  0
   -4.1590   -1.6144    0.5324 C   0  0  0  0  0  0  0  0  0  0  0  0
   -3.9307   -2.9365    0.1943 C   0  0  0  0  0  0  0  0  0  0  0  0
   -2.6913   -3.5284    0.3338 C   0  0  0  0  0  0  0  0  0  0  0  0
   -1.6447   -2.7743    0.8275 C   0  0  0  0  0  0  0  0  0  0  0  0
   -1.8879   -1.4568    1.1603 C   0  0  0  0  0  0  0  0  0  0  0  0
    2.6544    2.5089   -2.4926 H   0  0  0  0  0  0  0  0  0  0  0  0
    2.9669    3.9017   -1.3115 H   0  0  0  0  0  0  0  0  0  0  0  0
    2.4764    4.2018   -2.9909 H   0  0  0  0  0  0  0  0  0  0  0  0
    0.6752    4.4697   -1.1936 H   0  0  0  0  0  0  0  0  0  0  0  0
   -0.5249    2.4340   -3.0337 H   0  0  0  0  0  0  0  0  0  0  0  0
    0.4891    3.7777   -3.7814 H   0  0  0  0  0  0  0  0  0  0  0  0
   -0.9314    4.1455   -2.7879 H   0  0  0  0  0  0  0  0  0  0  0  0
    1.2814    2.6333    0.1663 H   0  0  0  0  0  0  0  0  0  0  0  0
    0.4433    0.6682   -2.0221 H   0  0  0  0  0  0  0  0  0  0  0  0
    3.4267   -2.6217   -1.2145 H   0  0  0  0  0  0  0  0  0  0  0  0
    4.4331   -1.2636   -0.7248 H   0  0  0  0  0  0  0  0  0  0  0  0
    4.4188   -0.5532    1.7629 H   0  0  0  0  0  0  0  0  0  0  0  0
    4.1002   -1.2514    4.0600 H   0  0  0  0  0  0  0  0  0  0  0  0
    2.7399   -3.2499    4.5924 H   0  0  0  0  0  0  0  0  0  0  0  0
    1.7309   -4.4848    2.7730 H   0  0  0  0  0  0  0  0  0  0  0  0
    2.0425   -3.7730    0.3850 H   0  0  0  0  0  0  0  0  0  0  0  0
   -1.3390    0.4990   -0.6474 H   0  0  0  0  0  0  0  0  0  0  0  0
   -3.2666    2.5238    0.6454 H   0  0  0  0  0  0  0  0  0  0  0  0
   -3.5938    1.0352   -1.8756 H   0  0  0  0  0  0  0  0  0  0  0  0
   -4.3263    0.7125    1.8134 H   0  0  0  0  0  0  0  0  0  0  0  0
   -2.6034    0.8118    2.2138 H   0  0  0  0  0  0  0  0  0  0  0  0
   -5.1715   -1.2081    0.3958 H   0  0  0  0  0  0  0  0  0  0  0  0
   -4.7655   -3.5267   -0.1961 H   0  0  0  0  0  0  0  0  0  0  0  0
   -2.5051   -4.5564    0.0736 H   0  0  0  0  0  0  0  0  0  0  0  0
   -0.6640   -3.2372    0.9398 H   0  0  0  0  0  0  0  0  0  0  0  0
   -1.0263   -0.8937    1.5494 H   0  0  0  0  0  0  0  0  0  0  0  0
  1  2  1  0
  2  3  1  0
  2  4  1  0
  4  5  1  0
  5  6  1  0
  6  7  2  0
  6  8  1  0
  8  9  1  0
  9 10  1  0
 10 11  2  0
 11 12  1  0
 12 13  2  0
 13 14  1  0
 14 15  2  0
  4 16  1  0
 16 17  2  0
 16 18  1  0
 18 19  1  0
 19 20  1  0
 20 21  2  0
 19 22  1  0
 22 23  1  0
 23 24  2  0
 24 25  1  0
 25 26  2  0
 26 27  1  0
 27 28  2  0
 15 10  1  0
 28 23  1  0
  1 29  1  0
  1 30  1  0
  1 31  1  0
  2 32  1  0
  3 33  1  0
  3 34  1  0
  3 35  1  0
  4 36  1  1
  5 37  1  0
  9 38  1  0
  9 39  1  0
 11 40  1  0
 12 41  1  0
 13 42  1  0
 14 43  1  0
 15 44  1  0
 18 45  1  0
 19 46  1  0
 20 47  1  0
 22 48  1  0
 22 49  1  0
 24 50  1  0
 25 51  1  0
 26 52  1  0
 27 53  1  0
 28 54  1  0
M  END
$$$$
