@<TRIPOS>MOLECULE
*****
 29 31 0 0 0
SMALL
GASTEIGER

@<TRIPOS>ATOM
      1 N           0.3126   -1.7672    1.7846 N.pl3   1  UNL1       -0.3572
      2 C           0.4032   -0.7203    0.8302 C.ar    1  UNL1        0.0388
      3 C          -0.7090    0.0398    0.5367 C.ar    1  UNL1       -0.0049
      4 C          -0.6619    1.0716   -0.3894 C.ar    1  UNL1        0.0469
      5 N           0.4751    1.3474   -1.0180 N.ar    1  UNL1       -0.2512
      6 C           1.5945    0.6417   -0.7748 C.ar    1  UNL1        0.0730
      7 C           2.7670    0.9401   -1.4353 C.ar    1  UNL1       -0.0357
      8 C           3.9026    0.2042   -1.1709 C.ar    1  UNL1       -0.0597
      9 C           3.8597   -0.8374   -0.2376 C.ar    1  UNL1       -0.0610
     10 C           2.6936   -1.1438    0.4278 C.ar    1  UNL1       -0.0508
     11 C           1.5631   -0.4032    0.1575 C.ar    1  UNL1        0.0213
     12 C          -1.9435    1.8048   -0.6021 C.3     1  UNL1       -0.0101
     13 C          -3.0015    0.7414   -0.8977 C.3     1  UNL1       -0.0473
     14 C          -3.0579   -0.3234    0.1394 C.3     1  UNL1       -0.0486
     15 C          -1.9908   -0.2213    1.2013 C.3     1  UNL1       -0.0242
     16 H          -0.4421   -2.4821    1.7779 H       1  UNL1        0.1423
     17 H           1.0194   -1.8632    2.5515 H       1  UNL1        0.1423
     18 H           2.8513    1.7344   -2.1645 H       1  UNL1        0.0639
     19 H           4.8290    0.4054   -1.6624 H       1  UNL1        0.0618
     20 H           4.7500   -1.4324   -0.0144 H       1  UNL1        0.0618
     21 H           2.6884   -1.9532    1.1435 H       1  UNL1        0.0625
     22 H          -1.8231    2.4772   -1.4488 H       1  UNL1        0.0328
     23 H          -2.2276    2.3320    0.3501 H       1  UNL1        0.0328
     24 H          -2.7147    0.3336   -1.9115 H       1  UNL1        0.0269
     25 H          -3.9827    1.2471   -1.0276 H       1  UNL1        0.0269
     26 H          -4.0851   -0.3746    0.5750 H       1  UNL1        0.0269
     27 H          -2.8803   -1.3110   -0.3780 H       1  UNL1        0.0269
     28 H          -2.1938    0.6653    1.8692 H       1  UNL1        0.0314
     29 H          -1.9956   -1.1530    1.7881 H       1  UNL1        0.0314
@<TRIPOS>BOND
     1     1     2    1
     2     2     3   ar
     3     3     4   ar
     4     4     5   ar
     5     5     6   ar
     6     6     7   ar
     7     7     8   ar
     8     8     9   ar
     9     9    10   ar
    10    10    11   ar
    11     4    12    1
    12    12    13    1
    13    13    14    1
    14    14    15    1
    15    11     2   ar
    16    15     3    1
    17    11     6   ar
    18     1    16    1
    19     1    17    1
    20     7    18    1
    21     8    19    1
    22     9    20    1
    23    10    21    1
    24    12    22    1
    25    12    23    1
    26    13    24    1
    27    13    25    1
    28    14    26    1
    29    14    27    1
    30    15    28    1
    31    15    29    1
