@<TRIPOS>MOLECULE
*****
 77 81 0 0 0
SMALL
GASTEIGER

@<TRIPOS>ATOM
      1 C           4.9557    2.9099    3.1651 C.3     1  UNL1       -0.0455
      2 C           4.4528    1.5743    3.7291 C.3     1  UNL1        0.0394
      3 N           4.8501    0.4866    2.8642 N.ar    1  UNL1       -0.2639
      4 N           5.9351   -0.2519    2.8768 N.ar    1  UNL1       -0.1784
      5 C           5.9294   -1.1607    1.9044 C.ar    1  UNL1        0.0589
      6 C           4.7498   -0.9997    1.2068 C.ar    1  UNL1        0.0411
      7 C           4.2082   -1.6464    0.1167 C.ar    1  UNL1        0.0476
      8 N           4.8809   -2.7200   -0.5299 N.am    1  UNL1       -0.2707
      9 C           4.8219   -4.1381   -0.2709 C.3     1  UNL1        0.0202
     10 C           6.2687   -4.5410   -0.4436 C.3     1  UNL1       -0.0285
     11 C           6.6220   -3.8109   -1.7380 C.3     1  UNL1        0.0259
     12 C           5.7923   -2.5694   -1.6181 C.2     1  UNL1        0.2198
     13 O           5.8803   -1.5451   -2.3606 O.2     1  UNL1       -0.2753
     14 C           2.9809   -1.2296   -0.3455 C.ar    1  UNL1       -0.0274
     15 C           2.2675   -0.1832    0.2440 C.ar    1  UNL1        0.0405
     16 C           0.9761    0.2309   -0.2802 C.2     1  UNL1        0.2445
     17 O           0.5730   -0.3487   -1.3338 O.2     1  UNL1       -0.2702
     18 N           0.1359    1.2178    0.2803 N.am    1  UNL1       -0.3057
     19 C          -1.1410    1.6399   -0.2344 C.3     1  UNL1        0.0545
     20 C          -1.1255    1.9813   -1.7026 C.3     1  UNL1       -0.0067
     21 C          -0.1742    3.1000   -1.9510 C.ar    1  UNL1       -0.0455
     22 C          -0.6132    4.4236   -1.8043 C.ar    1  UNL1       -0.0585
     23 C           0.2032    5.5058   -2.0310 C.ar    1  UNL1       -0.0615
     24 C           1.5148    5.3278   -2.4202 C.ar    1  UNL1       -0.0617
     25 C           1.9624    4.0352   -2.5693 C.ar    1  UNL1       -0.0615
     26 C           1.1324    2.9303   -2.3390 C.ar    1  UNL1       -0.0585
     27 C          -2.2668    0.7497    0.1691 C.3     1  UNL1        0.0862
     28 O          -2.0267   -0.5637   -0.3063 O.3     1  UNL1       -0.3887
     29 C          -3.6046    1.1581   -0.3431 C.3     1  UNL1        0.0240
     30 N          -4.5720    0.1854    0.1931 N.3     1  UNL1       -0.3095
     31 C          -5.9055    0.4789   -0.2405 C.3     1  UNL1        0.0213
     32 C          -6.8098   -0.5573    0.3013 C.ar    1  UNL1       -0.0330
     33 C          -7.4071   -0.3957    1.5239 C.ar    1  UNL1       -0.0573
     34 C          -8.2446   -1.3638    2.0174 C.ar    1  UNL1       -0.0609
     35 C          -8.4688   -2.5067    1.2460 C.ar    1  UNL1       -0.0501
     36 C          -7.8665   -2.6671    0.0159 C.ar    1  UNL1        0.0551
     37 C          -8.1079   -3.8832   -0.8014 C.3     1  UNL1        0.4174
     38 F          -9.4509   -4.1812   -0.9165 F       1  UNL1       -0.1659
     39 F          -7.6333   -3.6890   -2.0860 F       1  UNL1       -0.1659
     40 F          -7.4008   -4.9230   -0.1970 F       1  UNL1       -0.1659
     41 C          -7.0349   -1.6948   -0.4623 C.ar    1  UNL1       -0.0457
     42 C           2.8501    0.4279    1.3264 C.ar    1  UNL1       -0.0238
     43 C           4.0998    0.0415    1.8374 C.ar    1  UNL1        0.0714
     44 H           5.9960    2.7499    2.8656 H       1  UNL1        0.0247
     45 H           4.8050    3.6779    3.9354 H       1  UNL1        0.0247
     46 H           4.3624    3.0910    2.2456 H       1  UNL1        0.0247
     47 H           3.3863    1.6112    3.9485 H       1  UNL1        0.0506
     48 H           5.0035    1.4448    4.6906 H       1  UNL1        0.0506
     49 H           6.6542   -1.9175    1.6333 H       1  UNL1        0.0855
     50 H           4.2371   -4.6626   -1.0481 H       1  UNL1        0.0469
     51 H           4.4089   -4.3897    0.7170 H       1  UNL1        0.0469
     52 H           6.4188   -5.6257   -0.5319 H       1  UNL1        0.0285
     53 H           6.9322   -4.1218    0.3279 H       1  UNL1        0.0285
     54 H           7.6779   -3.4661   -1.7188 H       1  UNL1        0.0359
     55 H           6.3714   -4.4019   -2.6223 H       1  UNL1        0.0359
     56 H           2.5293   -1.7134   -1.1951 H       1  UNL1        0.0644
     57 H           0.5384    1.6562    1.1726 H       1  UNL1        0.1494
     58 H          -1.3330    2.6551    0.2547 H       1  UNL1        0.0527
     59 H          -0.8281    1.1479   -2.3623 H       1  UNL1        0.0332
     60 H          -2.1319    2.2919   -2.0615 H       1  UNL1        0.0332
     61 H          -1.6412    4.5610   -1.4994 H       1  UNL1        0.0620
     62 H          -0.1366    6.5318   -1.9167 H       1  UNL1        0.0618
     63 H           2.1957    6.1438   -2.6105 H       1  UNL1        0.0618
     64 H           2.9883    3.8771   -2.8746 H       1  UNL1        0.0618
     65 H           1.5286    1.9447   -2.4781 H       1  UNL1        0.0620
     66 H          -2.3304    0.6473    1.2713 H       1  UNL1        0.0624
     67 H          -2.4808   -1.2364    0.2431 H       1  UNL1        0.2099
     68 H          -3.8748    2.1302    0.0793 H       1  UNL1        0.0450
     69 H          -3.6556    1.1083   -1.4498 H       1  UNL1        0.0450
     70 H          -4.4516    0.0811    1.2063 H       1  UNL1        0.1223
     71 H          -6.1644    1.4939    0.1328 H       1  UNL1        0.0473
     72 H          -5.9381    0.4202   -1.3442 H       1  UNL1        0.0473
     73 H          -7.2248    0.5054    2.1226 H       1  UNL1        0.0621
     74 H          -8.7179   -1.2423    2.9801 H       1  UNL1        0.0618
     75 H          -9.1249   -3.2780    1.6178 H       1  UNL1        0.0623
     76 H          -6.5509   -1.8039   -1.4307 H       1  UNL1        0.0626
     77 H           2.3620    1.2538    1.8461 H       1  UNL1        0.0646
@<TRIPOS>BOND
     1     1     2    1
     2     2     3    1
     3     3     4   ar
     4     4     5   ar
     5     5     6   ar
     6     6     7   ar
     7     7     8    1
     8     8     9    1
     9     9    10    1
    10    10    11    1
    11    11    12    1
    12    12    13    2
    13     7    14   ar
    14    14    15   ar
    15    15    16    1
    16    16    17    2
    17    16    18   am
    18    18    19    1
    19    19    20    1
    20    20    21    1
    21    21    22   ar
    22    22    23   ar
    23    23    24   ar
    24    24    25   ar
    25    25    26   ar
    26    19    27    1
    27    27    28    1
    28    27    29    1
    29    29    30    1
    30    30    31    1
    31    31    32    1
    32    32    33   ar
    33    33    34   ar
    34    34    35   ar
    35    35    36   ar
    36    36    37    1
    37    37    38    1
    38    37    39    1
    39    37    40    1
    40    36    41   ar
    41    15    42   ar
    42    42    43   ar
    43    43     3   ar
    44    43     6   ar
    45    12     8   am
    46    26    21   ar
    47    41    32   ar
    48     1    44    1
    49     1    45    1
    50     1    46    1
    51     2    47    1
    52     2    48    1
    53     5    49    1
    54     9    50    1
    55     9    51    1
    56    10    52    1
    57    10    53    1
    58    11    54    1
    59    11    55    1
    60    14    56    1
    61    18    57    1
    62    19    58    1
    63    20    59    1
    64    20    60    1
    65    22    61    1
    66    23    62    1
    67    24    63    1
    68    25    64    1
    69    26    65    1
    70    27    66    1
    71    28    67    1
    72    29    68    1
    73    29    69    1
    74    30    70    1
    75    31    71    1
    76    31    72    1
    77    33    73    1
    78    34    74    1
    79    35    75    1
    80    41    76    1
    81    42    77    1
