
     RDKit          3D

 77 81  0  0  0  0  0  0  0  0999 V2000
    4.9557    2.9099    3.1651 C   0  0  0  0  0  0  0  0  0  0  0  0
    4.4528    1.5743    3.7291 C   0  0  0  0  0  0  0  0  0  0  0  0
    4.8501    0.4866    2.8642 N   0  0  0  0  0  0  0  0  0  0  0  0
    5.9351   -0.2519    2.8768 N   0  0  0  0  0  0  0  0  0  0  0  0
    5.9294   -1.1607    1.9044 C   0  0  0  0  0  0  0  0  0  0  0  0
    4.7498   -0.9997    1.2068 C   0  0  0  0  0  0  0  0  0  0  0  0
    4.2082   -1.6464    0.1167 C   0  0  0  0  0  0  0  0  0  0  0  0
    4.8809   -2.7200   -0.5299 N   0  0  0  0  0  0  0  0  0  0  0  0
    4.8219   -4.1381   -0.2709 C   0  0  0  0  0  0  0  0  0  0  0  0
    6.2687   -4.5410   -0.4436 C   0  0  0  0  0  0  0  0  0  0  0  0
    6.6220   -3.8109   -1.7380 C   0  0  0  0  0  0  0  0  0  0  0  0
    5.7923   -2.5694   -1.6181 C   0  0  0  0  0  0  0  0  0  0  0  0
    5.8803   -1.5451   -2.3606 O   0  0  0  0  0  0  0  0  0  0  0  0
    2.9809   -1.2296   -0.3455 C   0  0  0  0  0  0  0  0  0  0  0  0
    2.2675   -0.1832    0.2440 C   0  0  0  0  0  0  0  0  0  0  0  0
    0.9761    0.2309   -0.2802 C   0  0  0  0  0  0  0  0  0  0  0  0
    0.5730   -0.3487   -1.3338 O   0  0  0  0  0  0  0  0  0  0  0  0
    0.1359    1.2178    0.2803 N   0  0  0  0  0  0  0  0  0  0  0  0
   -1.1410    1.6399   -0.2344 C   0  0  1  0  0  0  0  0  0  0  0  0
   -1.1255    1.9813   -1.7026 C   0  0  0  0  0  0  0  0  0  0  0  0
   -0.1742    3.1000   -1.9510 C   0  0  0  0  0  0  0  0  0  0  0  0
   -0.6132    4.4236   -1.8043 C   0  0  0  0  0  0  0  0  0  0  0  0
    0.2032    5.5058   -2.0310 C   0  0  0  0  0  0  0  0  0  0  0  0
    1.5148    5.3278   -2.4202 C   0  0  0  0  0  0  0  0  0  0  0  0
    1.9624    4.0352   -2.5693 C   0  0  0  0  0  0  0  0  0  0  0  0
    1.1324    2.9303   -2.3390 C   0  0  0  0  0  0  0  0  0  0  0  0
   -2.2668    0.7497    0.1691 C   0  0  2  0  0  0  0  0  0  0  0  0
   -2.0267   -0.5637   -0.3063 O   0  0  0  0  0  0  0  0  0  0  0  0
   -3.6046    1.1581   -0.3431 C   0  0  0  0  0  0  0  0  0  0  0  0
   -4.5720    0.1854    0.1931 N   0  0  0  0  0  0  0  0  0  0  0  0
   -5.9055    0.4789   -0.2405 C   0  0  0  0  0  0  0  0  0  0  0  0
   -6.8098   -0.5573    0.3013 C   0  0  0  0  0  0  0  0  0  0  0  0
   -7.4071   -0.3957    1.5239 C   0  0  0  0  0  0  0  0  0  0  0  0
   -8.2446   -1.3638    2.0174 C   0  0  0  0  0  0  0  0  0  0  0  0
   -8.4688   -2.5067    1.2460 C   0  0  0  0  0  0  0  0  0  0  0  0
   -7.8665   -2.6671    0.0159 C   0  0  0  0  0  0  0  0  0  0  0  0
   -8.1079   -3.8832   -0.8014 C   0  0  0  0  0  0  0  0  0  0  0  0
   -9.4509   -4.1812   -0.9165 F   0  0  0  0  0  0  0  0  0  0  0  0
   -7.6333   -3.6890   -2.0860 F   0  0  0  0  0  0  0  0  0  0  0  0
   -7.4008   -4.9230   -0.1970 F   0  0  0  0  0  0  0  0  0  0  0  0
   -7.0349   -1.6948   -0.4623 C   0  0  0  0  0  0  0  0  0  0  0  0
    2.8501    0.4279    1.3264 C   0  0  0  0  0  0  0  0  0  0  0  0
    4.0998    0.0415    1.8374 C   0  0  0  0  0  0  0  0  0  0  0  0
    5.9960    2.7499    2.8656 H   0  0  0  0  0  0  0  0  0  0  0  0
    4.8050    3.6779    3.9354 H   0  0  0  0  0  0  0  0  0  0  0  0
    4.3624    3.0910    2.2456 H   0  0  0  0  0  0  0  0  0  0  0  0
    3.3863    1.6112    3.9485 H   0  0  0  0  0  0  0  0  0  0  0  0
    5.0035    1.4448    4.6906 H   0  0  0  0  0  0  0  0  0  0  0  0
    6.6542   -1.9175    1.6333 H   0  0  0  0  0  0  0  0  0  0  0  0
    4.2371   -4.6626   -1.0481 H   0  0  0  0  0  0  0  0  0  0  0  0
    4.4089   -4.3897    0.7170 H   0  0  0  0  0  0  0  0  0  0  0  0
    6.4188   -5.6257   -0.5319 H   0  0  0  0  0  0  0  0  0  0  0  0
    6.9322   -4.1218    0.3279 H   0  0  0  0  0  0  0  0  0  0  0  0
    7.6779   -3.4661   -1.7188 H   0  0  0  0  0  0  0  0  0  0  0  0
    6.3714   -4.4019   -2.6223 H   0  0  0  0  0  0  0  0  0  0  0  0
    2.5293   -1.7134   -1.1951 H   0  0  0  0  0  0  0  0  0  0  0  0
    0.5384    1.6562    1.1726 H   0  0  0  0  0  0  0  0  0  0  0  0
   -1.3330    2.6551    0.2547 H   0  0  0  0  0  0  0  0  0  0  0  0
   -0.8281    1.1479   -2.3623 H   0  0  0  0  0  0  0  0  0  0  0  0
   -2.1319    2.2919   -2.0615 H   0  0  0  0  0  0  0  0  0  0  0  0
   -1.6412    4.5610   -1.4994 H   0  0  0  0  0  0  0  0  0  0  0  0
   -0.1366    6.5318   -1.9167 H   0  0  0  0  0  0  0  0  0  0  0  0
    2.1957    6.1438   -2.6105 H   0  0  0  0  0  0  0  0  0  0  0  0
    2.9883    3.8771   -2.8746 H   0  0  0  0  0  0  0  0  0  0  0  0
    1.5286    1.9447   -2.4781 H   0  0  0  0  0  0  0  0  0  0  0  0
   -2.3304    0.6473    1.2713 H   0  0  0  0  0  0  0  0  0  0  0  0
   -2.4808   -1.2364    0.2431 H   0  0  0  0  0  0  0  0  0  0  0  0
   -3.8748    2.1302    0.0793 H   0  0  0  0  0  0  0  0  0  0  0  0
   -3.6556    1.1083   -1.4498 H   0  0  0  0  0  0  0  0  0  0  0  0
   -4.4516    0.0811    1.2063 H   0  0  0  0  0  0  0  0  0  0  0  0
   -6.1644    1.4939    0.1328 H   0  0  0  0  0  0  0  0  0  0  0  0
   -5.9381    0.4202   -1.3442 H   0  0  0  0  0  0  0  0  0  0  0  0
   -7.2248    0.5054    2.1226 H   0  0  0  0  0  0  0  0  0  0  0  0
   -8.7179   -1.2423    2.9801 H   0  0  0  0  0  0  0  0  0  0  0  0
   -9.1249   -3.2780    1.6178 H   0  0  0  0  0  0  0  0  0  0  0  0
   -6.5509   -1.8039   -1.4307 H   0  0  0  0  0  0  0  0  0  0  0  0
    2.3620    1.2538    1.8461 H   0  0  0  0  0  0  0  0  0  0  0  0
  1  2  1  0
  2  3  1  0
  3  4  1  0
  4  5  2  0
  5  6  1  0
  6  7  2  0
  7  8  1  0
  8  9  1  0
  9 10  1  0
 10 11  1  0
 11 12  1  0
 12 13  2  0
  7 14  1  0
 14 15  2  0
 15 16  1  0
 16 17  2  0
 16 18  1  0
 18 19  1  0
 19 20  1  0
 20 21  1  0
 21 22  2  0
 22 23  1  0
 23 24  2  0
 24 25  1  0
 25 26  2  0
 19 27  1  0
 27 28  1  0
 27 29  1  0
 29 30  1  0
 30 31  1  0
 31 32  1  0
 32 33  2  0
 33 34  1  0
 34 35  2  0
 35 36  1  0
 36 37  1  0
 37 38  1  0
 37 39  1  0
 37 40  1  0
 36 41  2  0
 15 42  1  0
 42 43  2  0
 43  3  1  0
 43  6  1  0
 12  8  1  0
 26 21  1  0
 41 32  1  0
  1 44  1  0
  1 45  1  0
  1 46  1  0
  2 47  1  0
  2 48  1  0
  5 49  1  0
  9 50  1  0
  9 51  1  0
 10 52  1  0
 10 53  1  0
 11 54  1  0
 11 55  1  0
 14 56  1  0
 18 57  1  0
 19 58  1  1
 20 59  1  0
 20 60  1  0
 22 61  1  0
 23 62  1  0
 24 63  1  0
 25 64  1  0
 26 65  1  0
 27 66  1  1
 28 67  1  0
 29 68  1  0
 29 69  1  0
 30 70  1  0
 31 71  1  0
 31 72  1  0
 33 73  1  0
 34 74  1  0
 35 75  1  0
 41 76  1  0
 42 77  1  0
M  END
$$$$
