@<TRIPOS>MOLECULE
*****
 64 69 0 0 0
SMALL
GASTEIGER

@<TRIPOS>ATOM
      1 C           7.4015    4.1094   -0.6793 C.3     1  UNL1       -0.0065
      2 C           6.6564    2.8317   -0.8015 C.ar    1  UNL1        0.1048
      3 N           7.0158    1.6774   -0.1483 N.ar    1  UNL1       -0.2325
      4 C           6.0804    0.7891   -0.5422 C.ar    1  UNL1        0.0939
      5 C           5.1127    1.3004   -1.4307 C.ar    1  UNL1        0.0450
      6 C           3.9548    0.6811   -2.1117 C.3     1  UNL1        0.0058
      7 C           3.0005    0.1005   -1.1221 C.3     1  UNL1        0.0255
      8 N           3.5230   -0.9008   -0.2431 N.am    1  UNL1       -0.2665
      9 C           2.5593   -1.4884    0.6290 C.2     1  UNL1        0.2509
     10 O           2.5722   -2.2581    1.6146 O.2     1  UNL1       -0.2696
     11 C           1.1072   -1.4046    0.6970 C.ar    1  UNL1        0.0373
     12 C           0.2080   -2.4247    0.3573 C.ar    1  UNL1       -0.0479
     13 C          -1.1927   -2.2955    0.4400 C.ar    1  UNL1       -0.0398
     14 C          -1.6565   -1.0586    0.8918 C.ar    1  UNL1        0.0337
     15 N          -3.0963   -1.1172    0.9308 N.am    1  UNL1       -0.2815
     16 C          -4.1939   -0.9032    0.0348 C.2     1  UNL1        0.2488
     17 O          -3.6767   -0.5847   -1.0593 O.2     1  UNL1       -0.2698
     18 C          -5.4965   -1.1218    0.6775 C.ar    1  UNL1        0.0447
     19 C          -5.6141   -2.3236    1.3795 C.ar    1  UNL1       -0.0490
     20 C          -6.7738   -2.6491    2.0579 C.ar    1  UNL1       -0.0610
     21 C          -7.8015   -1.7061    1.9920 C.ar    1  UNL1       -0.0611
     22 C          -7.6764   -0.5272    1.2985 C.ar    1  UNL1       -0.0533
     23 C          -6.5342   -0.2135    0.6329 C.ar    1  UNL1       -0.0058
     24 C          -6.4700    1.0329   -0.0988 C.ar    1  UNL1       -0.0172
     25 C          -6.1521    1.2607   -1.4430 C.ar    1  UNL1       -0.0540
     26 C          -6.0865    2.4773   -2.0607 C.ar    1  UNL1       -0.0612
     27 C          -6.3692    3.5909   -1.2534 C.ar    1  UNL1       -0.0617
     28 C          -6.6836    3.3944    0.0648 C.ar    1  UNL1       -0.0612
     29 C          -6.7429    2.1466    0.6687 C.ar    1  UNL1       -0.0540
     30 C          -0.8234   -0.0307    1.2356 C.ar    1  UNL1       -0.0398
     31 C           0.5325   -0.2320    1.1292 C.ar    1  UNL1       -0.0479
     32 C           4.8349   -1.4159   -0.0126 C.ar    1  UNL1        0.0458
     33 C           4.9054   -2.7187    0.3553 C.ar    1  UNL1       -0.0396
     34 C           6.1753   -3.2255    0.6242 C.ar    1  UNL1       -0.0600
     35 C           7.3172   -2.4569    0.5264 C.ar    1  UNL1       -0.0610
     36 C           7.2831   -1.1207    0.1504 C.ar    1  UNL1       -0.0507
     37 C           6.0003   -0.6307   -0.1161 C.ar    1  UNL1        0.0235
     38 N           5.5379    2.5945   -1.5493 N.ar    1  UNL1       -0.3453
     39 H           6.9752    4.7611    0.1364 H       1  UNL1        0.0307
     40 H           8.4705    3.8674   -0.4767 H       1  UNL1        0.0307
     41 H           7.2937    4.6706   -1.6328 H       1  UNL1        0.0307
     42 H           3.4026    1.4945   -2.6433 H       1  UNL1        0.0344
     43 H           4.2581   -0.1210   -2.8202 H       1  UNL1        0.0344
     44 H           2.1358   -0.2839   -1.7082 H       1  UNL1        0.0472
     45 H           2.5349    0.9118   -0.4788 H       1  UNL1        0.0472
     46 H           0.6871   -3.3381    0.0211 H       1  UNL1        0.0626
     47 H          -1.7400   -3.1737    0.1414 H       1  UNL1        0.0636
     48 H          -3.2241   -1.4061    1.9526 H       1  UNL1        0.1551
     49 H          -4.8365   -3.0720    1.4493 H       1  UNL1        0.0625
     50 H          -6.9322   -3.5647    2.6229 H       1  UNL1        0.0618
     51 H          -8.7129   -1.9503    2.5192 H       1  UNL1        0.0618
     52 H          -8.5309    0.1322    1.3104 H       1  UNL1        0.0624
     53 H          -5.9648    0.3731   -2.0123 H       1  UNL1        0.0624
     54 H          -5.8330    2.5212   -3.0917 H       1  UNL1        0.0618
     55 H          -6.3219    4.5577   -1.7243 H       1  UNL1        0.0618
     56 H          -6.8908    4.3119    0.6232 H       1  UNL1        0.0618
     57 H          -7.0080    2.1912    1.7160 H       1  UNL1        0.0624
     58 H          -1.3311    0.8471    1.5603 H       1  UNL1        0.0636
     59 H           1.1613    0.6000    1.4136 H       1  UNL1        0.0626
     60 H           3.9809   -3.2451    0.3887 H       1  UNL1        0.0636
     61 H           6.2291   -4.2653    0.9188 H       1  UNL1        0.0618
     62 H           8.2988   -2.8708    0.7402 H       1  UNL1        0.0618
     63 H           8.0912   -0.4402    0.0466 H       1  UNL1        0.0625
     64 H           5.0690    3.3129   -2.1378 H       1  UNL1        0.1668
@<TRIPOS>BOND
     1     1     2    1
     2     2     3   ar
     3     3     4   ar
     4     4     5   ar
     5     5     6    1
     6     6     7    1
     7     7     8    1
     8     8     9   am
     9     9    10    2
    10     9    11    1
    11    11    12   ar
    12    12    13   ar
    13    13    14   ar
    14    14    15    1
    15    15    16   am
    16    16    17    2
    17    16    18    1
    18    18    19   ar
    19    19    20   ar
    20    20    21   ar
    21    21    22   ar
    22    22    23   ar
    23    23    24    1
    24    24    25   ar
    25    25    26   ar
    26    26    27   ar
    27    27    28   ar
    28    28    29   ar
    29    14    30   ar
    30    30    31   ar
    31     8    32    1
    32    32    33   ar
    33    33    34   ar
    34    34    35   ar
    35    35    36   ar
    36    36    37   ar
    37     5    38   ar
    38    38     2   ar
    39    37     4    1
    40    31    11   ar
    41    37    32   ar
    42    23    18   ar
    43    29    24   ar
    44     1    39    1
    45     1    40    1
    46     1    41    1
    47     6    42    1
    48     6    43    1
    49     7    44    1
    50     7    45    1
    51    12    46    1
    52    13    47    1
    53    15    48    1
    54    19    49    1
    55    20    50    1
    56    21    51    1
    57    22    52    1
    58    25    53    1
    59    26    54    1
    60    27    55    1
    61    28    56    1
    62    29    57    1
    63    30    58    1
    64    31    59    1
    65    33    60    1
    66    34    61    1
    67    35    62    1
    68    36    63    1
    69    38    64    1
