
     RDKit          3D

 64 69  0  0  0  0  0  0  0  0999 V2000
    7.4015    4.1094   -0.6793 C   0  0  0  0  0  0  0  0  0  0  0  0
    6.6564    2.8317   -0.8015 C   0  0  0  0  0  0  0  0  0  0  0  0
    7.0158    1.6774   -0.1483 N   0  0  0  0  0  0  0  0  0  0  0  0
    6.0804    0.7891   -0.5422 C   0  0  0  0  0  0  0  0  0  0  0  0
    5.1127    1.3004   -1.4307 C   0  0  0  0  0  0  0  0  0  0  0  0
    3.9548    0.6811   -2.1117 C   0  0  0  0  0  0  0  0  0  0  0  0
    3.0005    0.1005   -1.1221 C   0  0  0  0  0  0  0  0  0  0  0  0
    3.5230   -0.9008   -0.2431 N   0  0  0  0  0  0  0  0  0  0  0  0
    2.5593   -1.4884    0.6290 C   0  0  0  0  0  0  0  0  0  0  0  0
    2.5722   -2.2581    1.6146 O   0  0  0  0  0  0  0  0  0  0  0  0
    1.1072   -1.4046    0.6970 C   0  0  0  0  0  0  0  0  0  0  0  0
    0.2080   -2.4247    0.3573 C   0  0  0  0  0  0  0  0  0  0  0  0
   -1.1927   -2.2955    0.4400 C   0  0  0  0  0  0  0  0  0  0  0  0
   -1.6565   -1.0586    0.8918 C   0  0  0  0  0  0  0  0  0  0  0  0
   -3.0963   -1.1172    0.9308 N   0  0  0  0  0  0  0  0  0  0  0  0
   -4.1939   -0.9032    0.0348 C   0  0  0  0  0  0  0  0  0  0  0  0
   -3.6767   -0.5847   -1.0593 O   0  0  0  0  0  0  0  0  0  0  0  0
   -5.4965   -1.1218    0.6775 C   0  0  0  0  0  0  0  0  0  0  0  0
   -5.6141   -2.3236    1.3795 C   0  0  0  0  0  0  0  0  0  0  0  0
   -6.7738   -2.6491    2.0579 C   0  0  0  0  0  0  0  0  0  0  0  0
   -7.8015   -1.7061    1.9920 C   0  0  0  0  0  0  0  0  0  0  0  0
   -7.6764   -0.5272    1.2985 C   0  0  0  0  0  0  0  0  0  0  0  0
   -6.5342   -0.2135    0.6329 C   0  0  0  0  0  0  0  0  0  0  0  0
   -6.4700    1.0329   -0.0988 C   0  0  0  0  0  0  0  0  0  0  0  0
   -6.1521    1.2607   -1.4430 C   0  0  0  0  0  0  0  0  0  0  0  0
   -6.0865    2.4773   -2.0607 C   0  0  0  0  0  0  0  0  0  0  0  0
   -6.3692    3.5909   -1.2534 C   0  0  0  0  0  0  0  0  0  0  0  0
   -6.6836    3.3944    0.0648 C   0  0  0  0  0  0  0  0  0  0  0  0
   -6.7429    2.1466    0.6687 C   0  0  0  0  0  0  0  0  0  0  0  0
   -0.8234   -0.0307    1.2356 C   0  0  0  0  0  0  0  0  0  0  0  0
    0.5325   -0.2320    1.1292 C   0  0  0  0  0  0  0  0  0  0  0  0
    4.8349   -1.4159   -0.0126 C   0  0  0  0  0  0  0  0  0  0  0  0
    4.9054   -2.7187    0.3553 C   0  0  0  0  0  0  0  0  0  0  0  0
    6.1753   -3.2255    0.6242 C   0  0  0  0  0  0  0  0  0  0  0  0
    7.3172   -2.4569    0.5264 C   0  0  0  0  0  0  0  0  0  0  0  0
    7.2831   -1.1207    0.1504 C   0  0  0  0  0  0  0  0  0  0  0  0
    6.0003   -0.6307   -0.1161 C   0  0  0  0  0  0  0  0  0  0  0  0
    5.5379    2.5945   -1.5493 N   0  0  0  0  0  0  0  0  0  0  0  0
    6.9752    4.7611    0.1364 H   0  0  0  0  0  0  0  0  0  0  0  0
    8.4705    3.8674   -0.4767 H   0  0  0  0  0  0  0  0  0  0  0  0
    7.2937    4.6706   -1.6328 H   0  0  0  0  0  0  0  0  0  0  0  0
    3.4026    1.4945   -2.6433 H   0  0  0  0  0  0  0  0  0  0  0  0
    4.2581   -0.1210   -2.8202 H   0  0  0  0  0  0  0  0  0  0  0  0
    2.1358   -0.2839   -1.7082 H   0  0  0  0  0  0  0  0  0  0  0  0
    2.5349    0.9118   -0.4788 H   0  0  0  0  0  0  0  0  0  0  0  0
    0.6871   -3.3381    0.0211 H   0  0  0  0  0  0  0  0  0  0  0  0
   -1.7400   -3.1737    0.1414 H   0  0  0  0  0  0  0  0  0  0  0  0
   -3.2241   -1.4061    1.9526 H   0  0  0  0  0  0  0  0  0  0  0  0
   -4.8365   -3.0720    1.4493 H   0  0  0  0  0  0  0  0  0  0  0  0
   -6.9322   -3.5647    2.6229 H   0  0  0  0  0  0  0  0  0  0  0  0
   -8.7129   -1.9503    2.5192 H   0  0  0  0  0  0  0  0  0  0  0  0
   -8.5309    0.1322    1.3104 H   0  0  0  0  0  0  0  0  0  0  0  0
   -5.9648    0.3731   -2.0123 H   0  0  0  0  0  0  0  0  0  0  0  0
   -5.8330    2.5212   -3.0917 H   0  0  0  0  0  0  0  0  0  0  0  0
   -6.3219    4.5577   -1.7243 H   0  0  0  0  0  0  0  0  0  0  0  0
   -6.8908    4.3119    0.6232 H   0  0  0  0  0  0  0  0  0  0  0  0
   -7.0080    2.1912    1.7160 H   0  0  0  0  0  0  0  0  0  0  0  0
   -1.3311    0.8471    1.5603 H   0  0  0  0  0  0  0  0  0  0  0  0
    1.1613    0.6000    1.4136 H   0  0  0  0  0  0  0  0  0  0  0  0
    3.9809   -3.2451    0.3887 H   0  0  0  0  0  0  0  0  0  0  0  0
    6.2291   -4.2653    0.9188 H   0  0  0  0  0  0  0  0  0  0  0  0
    8.2988   -2.8708    0.7402 H   0  0  0  0  0  0  0  0  0  0  0  0
    8.0912   -0.4402    0.0466 H   0  0  0  0  0  0  0  0  0  0  0  0
    5.0690    3.3129   -2.1378 H   0  0  0  0  0  0  0  0  0  0  0  0
  1  2  1  0
  2  3  2  0
  3  4  1  0
  4  5  2  0
  5  6  1  0
  6  7  1  0
  7  8  1  0
  8  9  1  0
  9 10  2  0
  9 11  1  0
 11 12  2  0
 12 13  1  0
 13 14  2  0
 14 15  1  0
 15 16  1  0
 16 17  2  0
 16 18  1  0
 18 19  2  0
 19 20  1  0
 20 21  2  0
 21 22  1  0
 22 23  2  0
 23 24  1  0
 24 25  2  0
 25 26  1  0
 26 27  2  0
 27 28  1  0
 28 29  2  0
 14 30  1  0
 30 31  2  0
  8 32  1  0
 32 33  2  0
 33 34  1  0
 34 35  2  0
 35 36  1  0
 36 37  2  0
  5 38  1  0
 38  2  1  0
 37  4  1  0
 31 11  1  0
 37 32  1  0
 23 18  1  0
 29 24  1  0
  1 39  1  0
  1 40  1  0
  1 41  1  0
  6 42  1  0
  6 43  1  0
  7 44  1  0
  7 45  1  0
 12 46  1  0
 13 47  1  0
 15 48  1  0
 19 49  1  0
 20 50  1  0
 21 51  1  0
 22 52  1  0
 25 53  1  0
 26 54  1  0
 27 55  1  0
 28 56  1  0
 29 57  1  0
 30 58  1  0
 31 59  1  0
 33 60  1  0
 34 61  1  0
 35 62  1  0
 36 63  1  0
 38 64  1  0
M  END
$$$$
