@<TRIPOS>MOLECULE
*****
 68 72 0 0 0
SMALL
GASTEIGER

@<TRIPOS>ATOM
      1 C          -0.7274    0.0194   -3.7203 C.3     1  UNL1       -0.0217
      2 C          -1.9992   -0.6285   -3.3115 C.ar    1  UNL1        0.0472
      3 N          -2.9591   -0.7503   -4.2874 N.ar    1  UNL1       -0.2582
      4 C          -4.1454   -1.2416   -3.9897 C.ar    1  UNL1        0.0471
      5 C          -4.4770   -1.6503   -2.7063 C.ar    1  UNL1        0.0915
      6 C          -5.7672   -2.1693   -2.3924 C.1     1  UNL1        0.1026
      7 N          -6.8226   -2.5810   -2.1260 N.1     1  UNL1       -0.1908
      8 C          -3.5432   -1.5434   -1.7136 C.ar    1  UNL1        0.0593
      9 N          -3.8117   -1.9657   -0.4058 N.pl3   1  UNL1       -0.3127
     10 C          -4.8047   -1.4630    0.4636 C.ar    1  UNL1        0.0350
     11 C          -5.7859   -2.3313    0.9837 C.ar    1  UNL1       -0.0383
     12 C          -6.7819   -1.8937    1.8246 C.ar    1  UNL1       -0.0360
     13 C          -6.8448   -0.5702    2.1849 C.ar    1  UNL1        0.0468
     14 N          -7.6732    0.1491    2.9692 N.ar    1  UNL1       -0.3606
     15 C          -7.3016    1.4384    3.0005 C.ar    1  UNL1        0.0027
     16 C          -6.1903    1.5382    2.2012 C.ar    1  UNL1       -0.0364
     17 C          -5.9052    0.2903    1.6937 C.ar    1  UNL1        0.0043
     18 C          -4.8871   -0.1585    0.8335 C.ar    1  UNL1       -0.0202
     19 C          -3.9175    0.8417    0.3377 C.3     1  UNL1       -0.0373
     20 C          -2.2759   -1.0225   -2.0266 C.ar    1  UNL1        0.0184
     21 C          -1.3217   -1.0700   -0.9484 C.2     1  UNL1       -0.0505
     22 C          -0.0387   -1.0313   -1.0607 C.2     1  UNL1       -0.0539
     23 C           0.8796   -1.0787    0.1178 C.ar    1  UNL1       -0.0232
     24 C           0.4516   -1.1552    1.4016 C.ar    1  UNL1       -0.0545
     25 C           1.3761   -1.2013    2.4555 C.ar    1  UNL1       -0.0594
     26 C           2.7265   -1.1698    2.1957 C.ar    1  UNL1       -0.0353
     27 C           3.1973   -1.0923    0.8997 C.ar    1  UNL1        0.1060
     28 S           4.9017   -1.0621    0.6274 S.O2    1  UNL1        0.0609
     29 O           5.5474   -1.8774    1.7284 O.2     1  UNL1       -0.1528
     30 O           5.1926   -1.8334   -0.6516 O.2     1  UNL1       -0.1528
     31 N           5.6290    0.4487    0.5950 N.3     1  UNL1       -0.1741
     32 C           5.2240    1.3675   -0.3944 C.3     1  UNL1        0.0333
     33 C           5.7889    2.7321   -0.2930 C.3     1  UNL1        0.0131
     34 N           7.0509    2.8689    0.3219 N.3     1  UNL1       -0.3028
     35 C           8.0877    3.4795   -0.4374 C.3     1  UNL1       -0.0127
     36 C           7.4406    1.9378    1.3035 C.3     1  UNL1        0.0131
     37 C           6.9620    0.5303    1.0650 C.3     1  UNL1        0.0333
     38 C           2.2460   -1.0495   -0.0960 C.ar    1  UNL1       -0.0282
     39 H          -0.3705    0.7583   -2.9803 H       1  UNL1        0.0293
     40 H          -1.0233    0.7170   -4.5957 H       1  UNL1        0.0293
     41 H          -0.0022   -0.6594   -4.1540 H       1  UNL1        0.0293
     42 H          -4.9106   -1.3414   -4.7621 H       1  UNL1        0.0843
     43 H          -3.2121   -2.7527   -0.0047 H       1  UNL1        0.1522
     44 H          -5.7074   -3.3532    0.6826 H       1  UNL1        0.0637
     45 H          -7.5408   -2.5569    2.2294 H       1  UNL1        0.0639
     46 H          -8.4847   -0.2700    3.4694 H       1  UNL1        0.1653
     47 H          -7.8158    2.2093    3.5643 H       1  UNL1        0.0807
     48 H          -5.6509    2.4529    2.0190 H       1  UNL1        0.0639
     49 H          -2.9125    0.7601    0.7439 H       1  UNL1        0.0278
     50 H          -4.2685    1.8732    0.6582 H       1  UNL1        0.0278
     51 H          -3.9947    0.8704   -0.7692 H       1  UNL1        0.0278
     52 H          -1.7033   -1.1415    0.0899 H       1  UNL1        0.0625
     53 H           0.4797   -1.0108   -1.9977 H       1  UNL1        0.0624
     54 H          -0.5867   -1.1817    1.6550 H       1  UNL1        0.0623
     55 H           0.9872   -1.2621    3.4648 H       1  UNL1        0.0618
     56 H           3.4045   -1.2099    3.0574 H       1  UNL1        0.0637
     57 H           5.4903    0.9340   -1.4026 H       1  UNL1        0.0456
     58 H           4.0957    1.4114   -0.3847 H       1  UNL1        0.0456
     59 H           5.8809    3.1486   -1.3407 H       1  UNL1        0.0439
     60 H           4.9994    3.3907    0.1775 H       1  UNL1        0.0439
     61 H           8.8546    3.8600    0.2967 H       1  UNL1        0.0391
     62 H           7.6600    4.3595   -0.9722 H       1  UNL1        0.0391
     63 H           8.6467    2.7908   -1.1027 H       1  UNL1        0.0391
     64 H           7.0720    2.2351    2.3066 H       1  UNL1        0.0439
     65 H           8.5493    1.9050    1.3757 H       1  UNL1        0.0439
     66 H           7.0496   -0.0419    2.0172 H       1  UNL1        0.0456
     67 H           7.6268    0.0419    0.3048 H       1  UNL1        0.0456
     68 H           2.6668   -0.9881   -1.1150 H       1  UNL1        0.0643
@<TRIPOS>BOND
     1     1     2    1
     2     2     3   ar
     3     3     4   ar
     4     4     5   ar
     5     5     6    1
     6     6     7    3
     7     5     8   ar
     8     8     9    1
     9     9    10    1
    10    10    11   ar
    11    11    12   ar
    12    12    13   ar
    13    13    14   ar
    14    14    15   ar
    15    15    16   ar
    16    16    17   ar
    17    17    18   ar
    18    18    19    1
    19     8    20   ar
    20    20    21    1
    21    21    22    2
    22    22    23    1
    23    23    24   ar
    24    24    25   ar
    25    25    26   ar
    26    26    27   ar
    27    27    28    1
    28    28    29    2
    29    28    30    2
    30    28    31    1
    31    31    32    1
    32    32    33    1
    33    33    34    1
    34    34    35    1
    35    34    36    1
    36    36    37    1
    37    27    38   ar
    38    20     2   ar
    39    38    23   ar
    40    18    10   ar
    41    37    31    1
    42    17    13   ar
    43     1    39    1
    44     1    40    1
    45     1    41    1
    46     4    42    1
    47     9    43    1
    48    11    44    1
    49    12    45    1
    50    14    46    1
    51    15    47    1
    52    16    48    1
    53    19    49    1
    54    19    50    1
    55    19    51    1
    56    21    52    1
    57    22    53    1
    58    24    54    1
    59    25    55    1
    60    26    56    1
    61    32    57    1
    62    32    58    1
    63    33    59    1
    64    33    60    1
    65    35    61    1
    66    35    62    1
    67    35    63    1
    68    36    64    1
    69    36    65    1
    70    37    66    1
    71    37    67    1
    72    38    68    1
