
     RDKit          3D

 68 72  0  0  0  0  0  0  0  0999 V2000
   -0.7274    0.0194   -3.7203 C   0  0  0  0  0  0  0  0  0  0  0  0
   -1.9992   -0.6285   -3.3115 C   0  0  0  0  0  0  0  0  0  0  0  0
   -2.9591   -0.7503   -4.2874 N   0  0  0  0  0  0  0  0  0  0  0  0
   -4.1454   -1.2416   -3.9897 C   0  0  0  0  0  0  0  0  0  0  0  0
   -4.4770   -1.6503   -2.7063 C   0  0  0  0  0  0  0  0  0  0  0  0
   -5.7672   -2.1693   -2.3924 C   0  0  0  0  0  0  0  0  0  0  0  0
   -6.8226   -2.5810   -2.1260 N   0  0  0  0  0  0  0  0  0  0  0  0
   -3.5432   -1.5434   -1.7136 C   0  0  0  0  0  0  0  0  0  0  0  0
   -3.8117   -1.9657   -0.4058 N   0  0  0  0  0  0  0  0  0  0  0  0
   -4.8047   -1.4630    0.4636 C   0  0  0  0  0  0  0  0  0  0  0  0
   -5.7859   -2.3313    0.9837 C   0  0  0  0  0  0  0  0  0  0  0  0
   -6.7819   -1.8937    1.8246 C   0  0  0  0  0  0  0  0  0  0  0  0
   -6.8448   -0.5702    2.1849 C   0  0  0  0  0  0  0  0  0  0  0  0
   -7.6732    0.1491    2.9692 N   0  0  0  0  0  0  0  0  0  0  0  0
   -7.3016    1.4384    3.0005 C   0  0  0  0  0  0  0  0  0  0  0  0
   -6.1903    1.5382    2.2012 C   0  0  0  0  0  0  0  0  0  0  0  0
   -5.9052    0.2903    1.6937 C   0  0  0  0  0  0  0  0  0  0  0  0
   -4.8871   -0.1585    0.8335 C   0  0  0  0  0  0  0  0  0  0  0  0
   -3.9175    0.8417    0.3377 C   0  0  0  0  0  0  0  0  0  0  0  0
   -2.2759   -1.0225   -2.0266 C   0  0  0  0  0  0  0  0  0  0  0  0
   -1.3217   -1.0700   -0.9484 C   0  0  0  0  0  0  0  0  0  0  0  0
   -0.0387   -1.0313   -1.0607 C   0  0  0  0  0  0  0  0  0  0  0  0
    0.8796   -1.0787    0.1178 C   0  0  0  0  0  0  0  0  0  0  0  0
    0.4516   -1.1552    1.4016 C   0  0  0  0  0  0  0  0  0  0  0  0
    1.3761   -1.2013    2.4555 C   0  0  0  0  0  0  0  0  0  0  0  0
    2.7265   -1.1698    2.1957 C   0  0  0  0  0  0  0  0  0  0  0  0
    3.1973   -1.0923    0.8997 C   0  0  0  0  0  0  0  0  0  0  0  0
    4.9017   -1.0621    0.6274 S   0  0  0  0  0  6  0  0  0  0  0  0
    5.5474   -1.8774    1.7284 O   0  0  0  0  0  0  0  0  0  0  0  0
    5.1926   -1.8334   -0.6516 O   0  0  0  0  0  0  0  0  0  0  0  0
    5.6290    0.4487    0.5950 N   0  0  0  0  0  0  0  0  0  0  0  0
    5.2240    1.3675   -0.3944 C   0  0  0  0  0  0  0  0  0  0  0  0
    5.7889    2.7321   -0.2930 C   0  0  0  0  0  0  0  0  0  0  0  0
    7.0509    2.8689    0.3219 N   0  0  0  0  0  0  0  0  0  0  0  0
    8.0877    3.4795   -0.4374 C   0  0  0  0  0  0  0  0  0  0  0  0
    7.4406    1.9378    1.3035 C   0  0  0  0  0  0  0  0  0  0  0  0
    6.9620    0.5303    1.0650 C   0  0  0  0  0  0  0  0  0  0  0  0
    2.2460   -1.0495   -0.0960 C   0  0  0  0  0  0  0  0  0  0  0  0
   -0.3705    0.7583   -2.9803 H   0  0  0  0  0  0  0  0  0  0  0  0
   -1.0233    0.7170   -4.5957 H   0  0  0  0  0  0  0  0  0  0  0  0
   -0.0022   -0.6594   -4.1540 H   0  0  0  0  0  0  0  0  0  0  0  0
   -4.9106   -1.3414   -4.7621 H   0  0  0  0  0  0  0  0  0  0  0  0
   -3.2121   -2.7527   -0.0047 H   0  0  0  0  0  0  0  0  0  0  0  0
   -5.7074   -3.3532    0.6826 H   0  0  0  0  0  0  0  0  0  0  0  0
   -7.5408   -2.5569    2.2294 H   0  0  0  0  0  0  0  0  0  0  0  0
   -8.4847   -0.2700    3.4694 H   0  0  0  0  0  0  0  0  0  0  0  0
   -7.8158    2.2093    3.5643 H   0  0  0  0  0  0  0  0  0  0  0  0
   -5.6509    2.4529    2.0190 H   0  0  0  0  0  0  0  0  0  0  0  0
   -2.9125    0.7601    0.7439 H   0  0  0  0  0  0  0  0  0  0  0  0
   -4.2685    1.8732    0.6582 H   0  0  0  0  0  0  0  0  0  0  0  0
   -3.9947    0.8704   -0.7692 H   0  0  0  0  0  0  0  0  0  0  0  0
   -1.7033   -1.1415    0.0899 H   0  0  0  0  0  0  0  0  0  0  0  0
    0.4797   -1.0108   -1.9977 H   0  0  0  0  0  0  0  0  0  0  0  0
   -0.5867   -1.1817    1.6550 H   0  0  0  0  0  0  0  0  0  0  0  0
    0.9872   -1.2621    3.4648 H   0  0  0  0  0  0  0  0  0  0  0  0
    3.4045   -1.2099    3.0574 H   0  0  0  0  0  0  0  0  0  0  0  0
    5.4903    0.9340   -1.4026 H   0  0  0  0  0  0  0  0  0  0  0  0
    4.0957    1.4114   -0.3847 H   0  0  0  0  0  0  0  0  0  0  0  0
    5.8809    3.1486   -1.3407 H   0  0  0  0  0  0  0  0  0  0  0  0
    4.9994    3.3907    0.1775 H   0  0  0  0  0  0  0  0  0  0  0  0
    8.8546    3.8600    0.2967 H   0  0  0  0  0  0  0  0  0  0  0  0
    7.6600    4.3595   -0.9722 H   0  0  0  0  0  0  0  0  0  0  0  0
    8.6467    2.7908   -1.1027 H   0  0  0  0  0  0  0  0  0  0  0  0
    7.0720    2.2351    2.3066 H   0  0  0  0  0  0  0  0  0  0  0  0
    8.5493    1.9050    1.3757 H   0  0  0  0  0  0  0  0  0  0  0  0
    7.0496   -0.0419    2.0172 H   0  0  0  0  0  0  0  0  0  0  0  0
    7.6268    0.0419    0.3048 H   0  0  0  0  0  0  0  0  0  0  0  0
    2.6668   -0.9881   -1.1150 H   0  0  0  0  0  0  0  0  0  0  0  0
  1  2  1  0
  2  3  2  0
  3  4  1  0
  4  5  2  0
  5  6  1  0
  6  7  3  0
  5  8  1  0
  8  9  1  0
  9 10  1  0
 10 11  2  0
 11 12  1  0
 12 13  2  0
 13 14  1  0
 14 15  1  0
 15 16  2  0
 16 17  1  0
 17 18  2  0
 18 19  1  0
  8 20  2  0
 20 21  1  0
 21 22  2  0
 22 23  1  0
 23 24  2  0
 24 25  1  0
 25 26  2  0
 26 27  1  0
 27 28  1  0
 28 29  2  0
 28 30  2  0
 28 31  1  0
 31 32  1  0
 32 33  1  0
 33 34  1  0
 34 35  1  0
 34 36  1  0
 36 37  1  0
 27 38  2  0
 20  2  1  0
 38 23  1  0
 18 10  1  0
 37 31  1  0
 17 13  1  0
  1 39  1  0
  1 40  1  0
  1 41  1  0
  4 42  1  0
  9 43  1  0
 11 44  1  0
 12 45  1  0
 14 46  1  0
 15 47  1  0
 16 48  1  0
 19 49  1  0
 19 50  1  0
 19 51  1  0
 21 52  1  0
 22 53  1  0
 24 54  1  0
 25 55  1  0
 26 56  1  0
 32 57  1  0
 32 58  1  0
 33 59  1  0
 33 60  1  0
 35 61  1  0
 35 62  1  0
 35 63  1  0
 36 64  1  0
 36 65  1  0
 37 66  1  0
 37 67  1  0
 38 68  1  0
M  END
$$$$
