@<TRIPOS>MOLECULE
*****
 25 26 0 0 0
SMALL
GASTEIGER

@<TRIPOS>ATOM
      1 N           3.7481    1.2408    0.2854 N.pl3   1  UNL1       -0.3385
      2 C           3.5717   -0.1690    0.4113 C.ar    1  UNL1        0.1956
      3 N           4.5286   -1.0815    0.5977 N.ar    1  UNL1       -0.0333
      4 O           3.9737   -2.2373    0.6600 O.2     1  UNL1       -0.2400
      5 N           2.7038   -2.1585    0.5270 N.ar    1  UNL1       -0.0390
      6 C           2.3681   -0.8464    0.3613 C.ar    1  UNL1        0.2426
      7 C           1.0351   -0.3020    0.1739 C.2     1  UNL1        0.3812
      8 N           0.0423   -1.1055    0.1546 N.2     1  UNL1       -0.0355
      9 C          -1.3032   -0.7317   -0.0171 C.ar    1  UNL1        0.1783
     10 C          -1.8299   -0.7619   -1.2958 C.ar    1  UNL1       -0.0081
     11 C          -3.1403   -0.3976   -1.4606 C.ar    1  UNL1       -0.0209
     12 C          -3.8918   -0.0141   -0.3573 C.ar    1  UNL1        0.1419
     13 F          -5.1836    0.3416   -0.5435 F       1  UNL1       -0.2040
     14 C          -3.3523    0.0089    0.8984 C.ar    1  UNL1        0.0802
     15 CL         -4.2831    0.4874    2.2895 Cl      1  UNL1       -0.0804
     16 C          -2.0398   -0.3525    1.0874 C.ar    1  UNL1        0.0103
     17 N           0.7760    1.0758    0.0134 N.3     1  UNL1       -0.1271
     18 O          -0.3399    1.5146   -0.6354 O.3     1  UNL1       -0.2093
     19 H           3.9523    1.8141    1.1162 H       1  UNL1        0.1439
     20 H           3.6778    1.7303   -0.6342 H       1  UNL1        0.1439
     21 H          -1.2391   -1.0637   -2.1653 H       1  UNL1        0.0662
     22 H          -3.5815   -0.4124   -2.4597 H       1  UNL1        0.0648
     23 H          -1.5717   -0.3488    2.0656 H       1  UNL1        0.0676
     24 H           1.4495    1.7805    0.3976 H       1  UNL1        0.3483
     25 H          -0.0707    1.9891   -1.4703 H       1  UNL1        0.2713
@<TRIPOS>BOND
     1     1     2    1
     2     2     3   ar
     3     3     4   ar
     4     4     5   ar
     5     5     6   ar
     6     6     7    1
     7     7     8    2
     8     8     9    1
     9     9    10   ar
    10    10    11   ar
    11    11    12   ar
    12    12    13    1
    13    12    14   ar
    14    14    15    1
    15    14    16   ar
    16     7    17    1
    17    17    18    1
    18     6     2   ar
    19    16     9   ar
    20     1    19    1
    21     1    20    1
    22    10    21    1
    23    11    22    1
    24    16    23    1
    25    17    24    1
    26    18    25    1
