@<TRIPOS>MOLECULE
*****
 80 85 0 0 0
SMALL
GASTEIGER

@<TRIPOS>ATOM
      1 C           1.9416   -1.0278   -3.0906 C.3     1  UNL1       -0.0219
      2 C           2.9814   -0.4631   -2.1994 C.ar    1  UNL1        0.0464
      3 N           4.2146   -1.0379   -2.2949 N.ar    1  UNL1       -0.2175
      4 C           5.2664   -0.6276   -1.5889 C.ar    1  UNL1        0.2207
      5 O           6.4856   -1.2706   -1.7482 O.3     1  UNL1       -0.4380
      6 C           7.6374   -0.9419   -1.0807 C.ar    1  UNL1        0.1304
      7 C           8.5287   -0.0221   -1.5893 C.ar    1  UNL1       -0.0185
      8 C           9.6901    0.2966   -0.8966 C.ar    1  UNL1       -0.0443
      9 C           9.9820   -0.2952    0.3127 C.ar    1  UNL1        0.0591
     10 C          11.1986    0.0453    1.0270 C.2     1  UNL1        0.3368
     11 O          11.4447   -0.4984    2.1189 O.2     1  UNL1       -0.2451
     12 O          12.0711    0.9617    0.4997 O.3     1  UNL1       -0.4771
     13 C           9.0909   -1.2214    0.8313 C.ar    1  UNL1       -0.0443
     14 C           7.9395   -1.5353    0.1414 C.ar    1  UNL1       -0.0185
     15 C           5.1059    0.4271   -0.7199 C.ar    1  UNL1        0.0007
     16 C           3.8638    1.0282   -0.6035 C.ar    1  UNL1       -0.0506
     17 C           2.7749    0.5835   -1.3508 C.ar    1  UNL1       -0.0121
     18 C           1.4857    1.2295   -1.1600 C.3     1  UNL1        0.0257
     19 N           0.5599    0.6827   -0.2768 N.3     1  UNL1       -0.2980
     20 C           0.1019   -0.6231   -0.4394 C.3     1  UNL1        0.0009
     21 C          -0.8511   -1.1008    0.6274 C.3     1  UNL1       -0.0213
     22 C          -1.5548   -0.0414    1.4002 C.3     1  UNL1        0.0305
     23 N          -2.8646    0.2748    0.9184 N.am    1  UNL1       -0.2738
     24 C          -3.1616    0.8134   -0.3931 C.2     1  UNL1        0.3059
     25 O          -2.3569    1.5331   -1.0331 O.2     1  UNL1       -0.2524
     26 N          -4.4724    0.3772   -0.7673 N.am    1  UNL1       -0.2802
     27 C          -5.1918    0.7268   -1.9807 C.3     1  UNL1        0.0317
     28 C          -5.4309   -0.4940   -2.8520 C.3     1  UNL1       -0.0106
     29 C          -6.9188   -0.7006   -3.0836 C.3     1  UNL1        0.0493
     30 O          -7.5254   -0.6861   -1.8296 O.3     1  UNL1       -0.3796
     31 C          -7.6403    0.6270   -1.3888 C.3     1  UNL1        0.0493
     32 C          -6.4575    1.4799   -1.6946 C.3     1  UNL1       -0.0106
     33 C          -4.9136   -0.4861    0.3318 C.3     1  UNL1        0.0393
     34 C          -4.1849    0.1618    1.5020 C.3     1  UNL1        0.0687
     35 C          -4.3027   -0.5152    2.7662 C.ar    1  UNL1       -0.0255
     36 C          -3.6316   -0.0585    3.8744 C.ar    1  UNL1       -0.0567
     37 C          -3.7112   -0.6994    5.0988 C.ar    1  UNL1       -0.0614
     38 C          -4.4850   -1.8284    5.2161 C.ar    1  UNL1       -0.0617
     39 C          -5.1717   -2.3148    4.1294 C.ar    1  UNL1       -0.0614
     40 C          -5.0713   -1.6505    2.9163 C.ar    1  UNL1       -0.0567
     41 C          -0.7505    1.2219    1.6004 C.3     1  UNL1       -0.0213
     42 C           0.6942    1.0074    1.1206 C.3     1  UNL1        0.0009
     43 H           1.1239   -0.3183   -3.2880 H       1  UNL1        0.0293
     44 H           1.4909   -1.9625   -2.7006 H       1  UNL1        0.0293
     45 H           2.4101   -1.3047   -4.0578 H       1  UNL1        0.0293
     46 H           8.3454    0.4810   -2.5516 H       1  UNL1        0.0654
     47 H          10.3883    1.0273   -1.3107 H       1  UNL1        0.0627
     48 H          12.9812    1.1768    0.9145 H       1  UNL1        0.2954
     49 H           9.3558   -1.6663    1.7864 H       1  UNL1        0.0627
     50 H           7.2612   -2.2671    0.5779 H       1  UNL1        0.0654
     51 H           5.9209    0.7995   -0.1260 H       1  UNL1        0.0671
     52 H           3.7695    1.8545    0.0878 H       1  UNL1        0.0623
     53 H           0.9645    1.3707   -2.1694 H       1  UNL1        0.0476
     54 H           1.6223    2.3262   -0.8529 H       1  UNL1        0.0476
     55 H           1.0003   -1.3104   -0.4475 H       1  UNL1        0.0427
     56 H          -0.3568   -0.7394   -1.4498 H       1  UNL1        0.0427
     57 H          -1.6355   -1.7332    0.1190 H       1  UNL1        0.0295
     58 H          -0.3063   -1.7970    1.2966 H       1  UNL1        0.0295
     59 H          -1.6821   -0.4551    2.4380 H       1  UNL1        0.0502
     60 H          -4.5386    1.3996   -2.5739 H       1  UNL1        0.0502
     61 H          -4.9689   -0.4009   -3.8562 H       1  UNL1        0.0305
     62 H          -4.9967   -1.4114   -2.3996 H       1  UNL1        0.0305
     63 H          -7.3423    0.0249   -3.7786 H       1  UNL1        0.0560
     64 H          -7.0390   -1.7178   -3.5305 H       1  UNL1        0.0560
     65 H          -8.5350    1.0473   -1.9363 H       1  UNL1        0.0560
     66 H          -7.9490    0.6486   -0.3140 H       1  UNL1        0.0560
     67 H          -6.2325    2.1806   -0.8491 H       1  UNL1        0.0305
     68 H          -6.6680    2.1298   -2.5800 H       1  UNL1        0.0305
     69 H          -4.5410   -1.5114    0.1734 H       1  UNL1        0.0487
     70 H          -5.9932   -0.5101    0.4517 H       1  UNL1        0.0487
     71 H          -4.6161    1.1992    1.5958 H       1  UNL1        0.0567
     72 H          -3.0178    0.8558    3.8057 H       1  UNL1        0.0621
     73 H          -3.1553   -0.2959    5.9561 H       1  UNL1        0.0618
     74 H          -4.5527   -2.3438    6.1890 H       1  UNL1        0.0618
     75 H          -5.7683   -3.2061    4.2697 H       1  UNL1        0.0618
     76 H          -5.6426   -2.0892    2.0907 H       1  UNL1        0.0621
     77 H          -0.6623    1.5343    2.6603 H       1  UNL1        0.0295
     78 H          -1.1618    2.0290    0.9593 H       1  UNL1        0.0295
     79 H           1.2361    1.9565    1.2936 H       1  UNL1        0.0427
     80 H           1.0808    0.1726    1.7358 H       1  UNL1        0.0427
@<TRIPOS>BOND
     1     1     2    1
     2     2     3   ar
     3     3     4   ar
     4     4     5    1
     5     5     6    1
     6     6     7   ar
     7     7     8   ar
     8     8     9   ar
     9     9    10    1
    10    10    11    2
    11    10    12    1
    12     9    13   ar
    13    13    14   ar
    14     4    15   ar
    15    15    16   ar
    16    16    17   ar
    17    17    18    1
    18    18    19    1
    19    19    20    1
    20    20    21    1
    21    21    22    1
    22    22    23    1
    23    23    24   am
    24    24    25    2
    25    24    26   am
    26    26    27    1
    27    27    28    1
    28    28    29    1
    29    29    30    1
    30    30    31    1
    31    31    32    1
    32    26    33    1
    33    33    34    1
    34    34    35    1
    35    35    36   ar
    36    36    37   ar
    37    37    38   ar
    38    38    39   ar
    39    39    40   ar
    40    22    41    1
    41    41    42    1
    42    17     2   ar
    43    42    19    1
    44    14     6   ar
    45    34    23    1
    46    40    35   ar
    47    32    27    1
    48     1    43    1
    49     1    44    1
    50     1    45    1
    51     7    46    1
    52     8    47    1
    53    12    48    1
    54    13    49    1
    55    14    50    1
    56    15    51    1
    57    16    52    1
    58    18    53    1
    59    18    54    1
    60    20    55    1
    61    20    56    1
    62    21    57    1
    63    21    58    1
    64    22    59    1
    65    27    60    1
    66    28    61    1
    67    28    62    1
    68    29    63    1
    69    29    64    1
    70    31    65    1
    71    31    66    1
    72    32    67    1
    73    32    68    1
    74    33    69    1
    75    33    70    1
    76    34    71    1
    77    36    72    1
    78    37    73    1
    79    38    74    1
    80    39    75    1
    81    40    76    1
    82    41    77    1
    83    41    78    1
    84    42    79    1
    85    42    80    1
