@<TRIPOS>MOLECULE
*****
 69 74 0 0 0
SMALL
GASTEIGER

@<TRIPOS>ATOM
      1 C          -6.8145    0.8626   -1.2378 C.3     1  UNL1       -0.0380
      2 C          -6.7386   -0.3181   -0.3676 C.ar    1  UNL1       -0.0279
      3 C          -7.6660   -1.3181   -0.5059 C.ar    1  UNL1       -0.0557
      4 C          -7.6252   -2.4222    0.2871 C.ar    1  UNL1       -0.0433
      5 C          -6.6388   -2.5268    1.2343 C.ar    1  UNL1        0.0279
      6 N          -5.7512   -1.5333    1.3415 N.ar    1  UNL1       -0.2583
      7 C          -5.7480   -0.4229    0.5837 C.ar    1  UNL1        0.0581
      8 C          -4.7536    0.6712    0.7390 C.3     1  UNL1        0.0415
      9 N          -3.6201    0.2941    1.5142 N.3     1  UNL1       -0.2965
     10 C          -2.7702    1.4238    1.8485 C.3     1  UNL1        0.0017
     11 C          -2.0825    1.9074    0.6269 C.3     1  UNL1       -0.0095
     12 C          -1.2045    0.8303    0.0272 C.3     1  UNL1        0.1240
     13 C          -1.8601   -0.4951   -0.0457 C.3     1  UNL1       -0.0095
     14 C          -2.8582   -0.8146    1.0110 C.3     1  UNL1        0.0017
     15 C           0.1357    0.8085    0.7107 C.2     1  UNL1        0.2516
     16 O           0.2380    0.9981    1.9447 O.2     1  UNL1       -0.2724
     17 N           1.1275    0.5530   -0.2633 N.am    1  UNL1       -0.1920
     18 C           2.4584    0.1132   -0.0369 C.ar    1  UNL1        0.0455
     19 C           2.9430   -0.1477    1.2196 C.ar    1  UNL1       -0.0392
     20 C           4.2556   -0.5614    1.4716 C.ar    1  UNL1       -0.0523
     21 C           5.0942   -0.7111    0.3910 C.ar    1  UNL1       -0.0178
     22 C           6.4669   -1.1339    0.6188 C.ar    1  UNL1       -0.0178
     23 C           6.8333   -1.9758    1.6475 C.ar    1  UNL1       -0.0533
     24 C           8.1376   -2.3566    1.8557 C.ar    1  UNL1       -0.0472
     25 C           9.1568   -1.9065    1.0315 C.ar    1  UNL1        0.0589
     26 C          10.5323   -2.3046    1.2588 C.2     1  UNL1        0.3368
     27 O          11.4191   -1.8851    0.4972 O.2     1  UNL1       -0.2451
     28 O          10.8670   -3.1409    2.3078 O.3     1  UNL1       -0.4771
     29 C           8.8015   -1.0641   -0.0012 C.ar    1  UNL1       -0.0472
     30 C           7.4907   -0.6858   -0.2053 C.ar    1  UNL1       -0.0533
     31 C           4.6557   -0.4637   -0.8809 C.ar    1  UNL1       -0.0523
     32 C           3.3427   -0.0530   -1.0926 C.ar    1  UNL1       -0.0392
     33 C           0.5002    0.8410   -1.5089 C.2     1  UNL1        0.3219
     34 O           0.9864    0.7618   -2.6838 O.2     1  UNL1       -0.2512
     35 N          -0.8553    1.2681   -1.3087 N.am    1  UNL1       -0.2229
     36 C          -1.7097    1.9875   -2.2110 C.ar    1  UNL1        0.1478
     37 C          -2.5047    1.3560   -3.1383 C.ar    1  UNL1        0.0679
     38 N          -3.3005    2.1035   -3.9535 N.ar    1  UNL1       -0.2583
     39 C          -3.3404    3.4453   -3.8874 C.ar    1  UNL1        0.0458
     40 C          -2.5443    4.0879   -2.9587 C.ar    1  UNL1        0.0478
     41 N          -1.7626    3.3359   -2.1595 N.ar    1  UNL1       -0.2368
     42 H          -6.2526    0.6934   -2.1835 H       1  UNL1        0.0278
     43 H          -7.8557    1.1361   -1.5224 H       1  UNL1        0.0278
     44 H          -6.3943    1.7857   -0.7690 H       1  UNL1        0.0278
     45 H          -8.4560   -1.2348   -1.2631 H       1  UNL1        0.0621
     46 H          -8.3499   -3.2143    0.1902 H       1  UNL1        0.0633
     47 H          -6.5430   -3.3760    1.9021 H       1  UNL1        0.0829
     48 H          -4.5017    1.1279   -0.2481 H       1  UNL1        0.0491
     49 H          -5.2847    1.4863    1.3178 H       1  UNL1        0.0491
     50 H          -3.4393    2.2157    2.2419 H       1  UNL1        0.0427
     51 H          -2.0386    1.0488    2.6077 H       1  UNL1        0.0427
     52 H          -1.4037    2.7389    0.9248 H       1  UNL1        0.0303
     53 H          -2.8124    2.2140   -0.1360 H       1  UNL1        0.0303
     54 H          -1.0345   -1.2665    0.0490 H       1  UNL1        0.0303
     55 H          -2.2929   -0.7210   -1.0645 H       1  UNL1        0.0303
     56 H          -2.3782   -1.2931    1.9029 H       1  UNL1        0.0427
     57 H          -3.5629   -1.5543    0.5792 H       1  UNL1        0.0427
     58 H           2.2467   -0.0195    2.0485 H       1  UNL1        0.0636
     59 H           4.5661   -0.7481    2.4891 H       1  UNL1        0.0624
     60 H           6.0483   -2.3303    2.2952 H       1  UNL1        0.0624
     61 H           8.4390   -3.0223    2.6665 H       1  UNL1        0.0626
     62 H          11.8138   -3.3877    2.5155 H       1  UNL1        0.2954
     63 H           9.6119   -0.7144   -0.6471 H       1  UNL1        0.0626
     64 H           7.2104   -0.0263   -1.0143 H       1  UNL1        0.0624
     65 H           5.3205   -0.5863   -1.7067 H       1  UNL1        0.0624
     66 H           3.0722    0.1234   -2.1189 H       1  UNL1        0.0636
     67 H          -2.4992    0.2742   -3.2227 H       1  UNL1        0.0865
     68 H          -3.9611    4.0638   -4.5164 H       1  UNL1        0.0845
     69 H          -2.5616    5.1790   -2.8879 H       1  UNL1        0.0846
@<TRIPOS>BOND
     1     1     2    1
     2     2     3   ar
     3     3     4   ar
     4     4     5   ar
     5     5     6   ar
     6     6     7   ar
     7     7     8    1
     8     8     9    1
     9     9    10    1
    10    10    11    1
    11    11    12    1
    12    12    13    1
    13    13    14    1
    14    12    15    1
    15    15    16    2
    16    15    17   am
    17    17    18    1
    18    18    19   ar
    19    19    20   ar
    20    20    21   ar
    21    21    22    1
    22    22    23   ar
    23    23    24   ar
    24    24    25   ar
    25    25    26    1
    26    26    27    2
    27    26    28    1
    28    25    29   ar
    29    29    30   ar
    30    21    31   ar
    31    31    32   ar
    32    17    33   am
    33    33    34    2
    34    33    35   am
    35    35    36    1
    36    36    37   ar
    37    37    38   ar
    38    38    39   ar
    39    39    40   ar
    40    40    41   ar
    41     7     2   ar
    42    14     9    1
    43    32    18   ar
    44    41    36   ar
    45    35    12    1
    46    30    22   ar
    47     1    42    1
    48     1    43    1
    49     1    44    1
    50     3    45    1
    51     4    46    1
    52     5    47    1
    53     8    48    1
    54     8    49    1
    55    10    50    1
    56    10    51    1
    57    11    52    1
    58    11    53    1
    59    13    54    1
    60    13    55    1
    61    14    56    1
    62    14    57    1
    63    19    58    1
    64    20    59    1
    65    23    60    1
    66    24    61    1
    67    28    62    1
    68    29    63    1
    69    30    64    1
    70    31    65    1
    71    32    66    1
    72    37    67    1
    73    39    68    1
    74    40    69    1
