
     RDKit          3D

 69 74  0  0  0  0  0  0  0  0999 V2000
   -6.8145    0.8626   -1.2378 C   0  0  0  0  0  0  0  0  0  0  0  0
   -6.7386   -0.3181   -0.3676 C   0  0  0  0  0  0  0  0  0  0  0  0
   -7.6660   -1.3181   -0.5059 C   0  0  0  0  0  0  0  0  0  0  0  0
   -7.6252   -2.4222    0.2871 C   0  0  0  0  0  0  0  0  0  0  0  0
   -6.6388   -2.5268    1.2343 C   0  0  0  0  0  0  0  0  0  0  0  0
   -5.7512   -1.5333    1.3415 N   0  0  0  0  0  0  0  0  0  0  0  0
   -5.7480   -0.4229    0.5837 C   0  0  0  0  0  0  0  0  0  0  0  0
   -4.7536    0.6712    0.7390 C   0  0  0  0  0  0  0  0  0  0  0  0
   -3.6201    0.2941    1.5142 N   0  0  0  0  0  0  0  0  0  0  0  0
   -2.7702    1.4238    1.8485 C   0  0  0  0  0  0  0  0  0  0  0  0
   -2.0825    1.9074    0.6269 C   0  0  0  0  0  0  0  0  0  0  0  0
   -1.2045    0.8303    0.0272 C   0  0  0  0  0  0  0  0  0  0  0  0
   -1.8601   -0.4951   -0.0457 C   0  0  0  0  0  0  0  0  0  0  0  0
   -2.8582   -0.8146    1.0110 C   0  0  0  0  0  0  0  0  0  0  0  0
    0.1357    0.8085    0.7107 C   0  0  0  0  0  0  0  0  0  0  0  0
    0.2380    0.9981    1.9447 O   0  0  0  0  0  0  0  0  0  0  0  0
    1.1275    0.5530   -0.2633 N   0  0  0  0  0  0  0  0  0  0  0  0
    2.4584    0.1132   -0.0369 C   0  0  0  0  0  0  0  0  0  0  0  0
    2.9430   -0.1477    1.2196 C   0  0  0  0  0  0  0  0  0  0  0  0
    4.2556   -0.5614    1.4716 C   0  0  0  0  0  0  0  0  0  0  0  0
    5.0942   -0.7111    0.3910 C   0  0  0  0  0  0  0  0  0  0  0  0
    6.4669   -1.1339    0.6188 C   0  0  0  0  0  0  0  0  0  0  0  0
    6.8333   -1.9758    1.6475 C   0  0  0  0  0  0  0  0  0  0  0  0
    8.1376   -2.3566    1.8557 C   0  0  0  0  0  0  0  0  0  0  0  0
    9.1568   -1.9065    1.0315 C   0  0  0  0  0  0  0  0  0  0  0  0
   10.5323   -2.3046    1.2588 C   0  0  0  0  0  0  0  0  0  0  0  0
   11.4191   -1.8851    0.4972 O   0  0  0  0  0  0  0  0  0  0  0  0
   10.8670   -3.1409    2.3078 O   0  0  0  0  0  0  0  0  0  0  0  0
    8.8015   -1.0641   -0.0012 C   0  0  0  0  0  0  0  0  0  0  0  0
    7.4907   -0.6858   -0.2053 C   0  0  0  0  0  0  0  0  0  0  0  0
    4.6557   -0.4637   -0.8809 C   0  0  0  0  0  0  0  0  0  0  0  0
    3.3427   -0.0530   -1.0926 C   0  0  0  0  0  0  0  0  0  0  0  0
    0.5002    0.8410   -1.5089 C   0  0  0  0  0  0  0  0  0  0  0  0
    0.9864    0.7618   -2.6838 O   0  0  0  0  0  0  0  0  0  0  0  0
   -0.8553    1.2681   -1.3087 N   0  0  0  0  0  0  0  0  0  0  0  0
   -1.7097    1.9875   -2.2110 C   0  0  0  0  0  0  0  0  0  0  0  0
   -2.5047    1.3560   -3.1383 C   0  0  0  0  0  0  0  0  0  0  0  0
   -3.3005    2.1035   -3.9535 N   0  0  0  0  0  0  0  0  0  0  0  0
   -3.3404    3.4453   -3.8874 C   0  0  0  0  0  0  0  0  0  0  0  0
   -2.5443    4.0879   -2.9587 C   0  0  0  0  0  0  0  0  0  0  0  0
   -1.7626    3.3359   -2.1595 N   0  0  0  0  0  0  0  0  0  0  0  0
   -6.2526    0.6934   -2.1835 H   0  0  0  0  0  0  0  0  0  0  0  0
   -7.8557    1.1361   -1.5224 H   0  0  0  0  0  0  0  0  0  0  0  0
   -6.3943    1.7857   -0.7690 H   0  0  0  0  0  0  0  0  0  0  0  0
   -8.4560   -1.2348   -1.2631 H   0  0  0  0  0  0  0  0  0  0  0  0
   -8.3499   -3.2143    0.1902 H   0  0  0  0  0  0  0  0  0  0  0  0
   -6.5430   -3.3760    1.9021 H   0  0  0  0  0  0  0  0  0  0  0  0
   -4.5017    1.1279   -0.2481 H   0  0  0  0  0  0  0  0  0  0  0  0
   -5.2847    1.4863    1.3178 H   0  0  0  0  0  0  0  0  0  0  0  0
   -3.4393    2.2157    2.2419 H   0  0  0  0  0  0  0  0  0  0  0  0
   -2.0386    1.0488    2.6077 H   0  0  0  0  0  0  0  0  0  0  0  0
   -1.4037    2.7389    0.9248 H   0  0  0  0  0  0  0  0  0  0  0  0
   -2.8124    2.2140   -0.1360 H   0  0  0  0  0  0  0  0  0  0  0  0
   -1.0345   -1.2665    0.0490 H   0  0  0  0  0  0  0  0  0  0  0  0
   -2.2929   -0.7210   -1.0645 H   0  0  0  0  0  0  0  0  0  0  0  0
   -2.3782   -1.2931    1.9029 H   0  0  0  0  0  0  0  0  0  0  0  0
   -3.5629   -1.5543    0.5792 H   0  0  0  0  0  0  0  0  0  0  0  0
    2.2467   -0.0195    2.0485 H   0  0  0  0  0  0  0  0  0  0  0  0
    4.5661   -0.7481    2.4891 H   0  0  0  0  0  0  0  0  0  0  0  0
    6.0483   -2.3303    2.2952 H   0  0  0  0  0  0  0  0  0  0  0  0
    8.4390   -3.0223    2.6665 H   0  0  0  0  0  0  0  0  0  0  0  0
   11.8138   -3.3877    2.5155 H   0  0  0  0  0  0  0  0  0  0  0  0
    9.6119   -0.7144   -0.6471 H   0  0  0  0  0  0  0  0  0  0  0  0
    7.2104   -0.0263   -1.0143 H   0  0  0  0  0  0  0  0  0  0  0  0
    5.3205   -0.5863   -1.7067 H   0  0  0  0  0  0  0  0  0  0  0  0
    3.0722    0.1234   -2.1189 H   0  0  0  0  0  0  0  0  0  0  0  0
   -2.4992    0.2742   -3.2227 H   0  0  0  0  0  0  0  0  0  0  0  0
   -3.9611    4.0638   -4.5164 H   0  0  0  0  0  0  0  0  0  0  0  0
   -2.5616    5.1790   -2.8879 H   0  0  0  0  0  0  0  0  0  0  0  0
  1  2  1  0
  2  3  2  0
  3  4  1  0
  4  5  2  0
  5  6  1  0
  6  7  2  0
  7  8  1  0
  8  9  1  0
  9 10  1  0
 10 11  1  0
 11 12  1  0
 12 13  1  0
 13 14  1  0
 12 15  1  0
 15 16  2  0
 15 17  1  0
 17 18  1  0
 18 19  2  0
 19 20  1  0
 20 21  2  0
 21 22  1  0
 22 23  2  0
 23 24  1  0
 24 25  2  0
 25 26  1  0
 26 27  2  0
 26 28  1  0
 25 29  1  0
 29 30  2  0
 21 31  1  0
 31 32  2  0
 17 33  1  0
 33 34  2  0
 33 35  1  0
 35 36  1  0
 36 37  2  0
 37 38  1  0
 38 39  2  0
 39 40  1  0
 40 41  2  0
  7  2  1  0
 14  9  1  0
 32 18  1  0
 41 36  1  0
 35 12  1  0
 30 22  1  0
  1 42  1  0
  1 43  1  0
  1 44  1  0
  3 45  1  0
  4 46  1  0
  5 47  1  0
  8 48  1  0
  8 49  1  0
 10 50  1  0
 10 51  1  0
 11 52  1  0
 11 53  1  0
 13 54  1  0
 13 55  1  0
 14 56  1  0
 14 57  1  0
 19 58  1  0
 20 59  1  0
 23 60  1  0
 24 61  1  0
 28 62  1  0
 29 63  1  0
 30 64  1  0
 31 65  1  0
 32 66  1  0
 37 67  1  0
 39 68  1  0
 40 69  1  0
M  END
$$$$
