@<TRIPOS>MOLECULE
*****
 29 30 0 0 0
SMALL
GASTEIGER

@<TRIPOS>ATOM
      1 O          -4.8587   -1.6813   -1.2147 O.2     1  UNL1       -0.2451
      2 C          -4.7317   -0.5476   -0.6900 C.2     1  UNL1        0.3369
      3 O          -5.8624    0.2446   -0.5839 O.3     1  UNL1       -0.4771
      4 C          -3.4299   -0.0964   -0.2137 C.ar    1  UNL1        0.0606
      5 C          -3.3280    1.1551    0.3573 C.ar    1  UNL1       -0.0477
      6 C          -2.1319    1.6397    0.8259 C.ar    1  UNL1       -0.0592
      7 C          -1.0234    0.8045    0.6966 C.ar    1  UNL1       -0.0405
      8 C          -1.1071   -0.4440    0.1301 C.ar    1  UNL1        0.0321
      9 N           0.0394   -1.2564   -0.0025 N.pl3   1  UNL1       -0.3145
     10 C           1.3515   -0.7335   -0.1388 C.ar    1  UNL1        0.0317
     11 C           1.6464    0.4964   -0.6735 C.ar    1  UNL1       -0.0341
     12 C           2.9650    0.9594   -0.7610 C.ar    1  UNL1        0.0173
     13 C           4.0006    0.1991   -0.3163 C.ar    1  UNL1        0.2733
     14 N           5.3678    0.6389   -0.3886 N.pl3   1  UNL1        0.0796
     15 O           5.6885    1.7311   -0.8572 O.2     1  UNL1        0.0414
     16 O           6.3653   -0.1808    0.0795 O.co2   1  UNL1       -0.5760
     17 C           3.7021   -1.0345    0.2190 C.ar    1  UNL1        0.0173
     18 C           2.4176   -1.5177    0.3192 C.ar    1  UNL1       -0.0341
     19 C          -2.3348   -0.9233   -0.3426 C.ar    1  UNL1       -0.0266
     20 H          -6.5977    0.2383   -1.2912 H       1  UNL1        0.2954
     21 H          -4.2086    1.7872    0.4462 H       1  UNL1        0.0626
     22 H          -2.0371    2.6257    1.2790 H       1  UNL1        0.0618
     23 H          -0.0897    1.1966    1.0849 H       1  UNL1        0.0636
     24 H          -0.1159   -2.3062    0.0033 H       1  UNL1        0.1522
     25 H           0.8317    1.1046   -1.0438 H       1  UNL1        0.0638
     26 H           3.1418    1.9339   -1.1894 H       1  UNL1        0.0686
     27 H           4.5360   -1.6317    0.5699 H       1  UNL1        0.0686
     28 H           2.2242   -2.4991    0.7492 H       1  UNL1        0.0638
     29 H          -2.4212   -1.9026   -0.7909 H       1  UNL1        0.0644
@<TRIPOS>UNITY_ATOM_ATTR
14 1
charge 1
16 1
charge -1
@<TRIPOS>BOND
     1     1     2    2
     2     2     3    1
     3     2     4    1
     4     4     5   ar
     5     5     6   ar
     6     6     7   ar
     7     7     8   ar
     8     8     9    1
     9     9    10    1
    10    10    11   ar
    11    11    12   ar
    12    12    13   ar
    13    13    14    1
    14    14    15    2
    15    14    16    1
    16    13    17   ar
    17    17    18   ar
    18     8    19   ar
    19    19     4   ar
    20    18    10   ar
    21     3    20    1
    22     5    21    1
    23     6    22    1
    24     7    23    1
    25     9    24    1
    26    11    25    1
    27    12    26    1
    28    17    27    1
    29    18    28    1
    30    19    29    1
