
     RDKit          3D

 29 30  0  0  0  0  0  0  0  0999 V2000
   -4.8587   -1.6813   -1.2147 O   0  0  0  0  0  0  0  0  0  0  0  0
   -4.7317   -0.5476   -0.6900 C   0  0  0  0  0  0  0  0  0  0  0  0
   -5.8624    0.2446   -0.5839 O   0  0  0  0  0  0  0  0  0  0  0  0
   -3.4299   -0.0964   -0.2137 C   0  0  0  0  0  0  0  0  0  0  0  0
   -3.3280    1.1551    0.3573 C   0  0  0  0  0  0  0  0  0  0  0  0
   -2.1319    1.6397    0.8259 C   0  0  0  0  0  0  0  0  0  0  0  0
   -1.0234    0.8045    0.6966 C   0  0  0  0  0  0  0  0  0  0  0  0
   -1.1071   -0.4440    0.1301 C   0  0  0  0  0  0  0  0  0  0  0  0
    0.0394   -1.2564   -0.0025 N   0  0  0  0  0  0  0  0  0  0  0  0
    1.3515   -0.7335   -0.1388 C   0  0  0  0  0  0  0  0  0  0  0  0
    1.6464    0.4964   -0.6735 C   0  0  0  0  0  0  0  0  0  0  0  0
    2.9650    0.9594   -0.7610 C   0  0  0  0  0  0  0  0  0  0  0  0
    4.0006    0.1991   -0.3163 C   0  0  0  0  0  0  0  0  0  0  0  0
    5.3678    0.6389   -0.3886 N   0  0  0  0  0  4  0  0  0  0  0  0
    5.6885    1.7311   -0.8572 O   0  0  0  0  0  0  0  0  0  0  0  0
    6.3653   -0.1808    0.0795 O   0  0  0  0  0  1  0  0  0  0  0  0
    3.7021   -1.0345    0.2190 C   0  0  0  0  0  0  0  0  0  0  0  0
    2.4176   -1.5177    0.3192 C   0  0  0  0  0  0  0  0  0  0  0  0
   -2.3348   -0.9233   -0.3426 C   0  0  0  0  0  0  0  0  0  0  0  0
   -6.5977    0.2383   -1.2912 H   0  0  0  0  0  0  0  0  0  0  0  0
   -4.2086    1.7872    0.4462 H   0  0  0  0  0  0  0  0  0  0  0  0
   -2.0371    2.6257    1.2790 H   0  0  0  0  0  0  0  0  0  0  0  0
   -0.0897    1.1966    1.0849 H   0  0  0  0  0  0  0  0  0  0  0  0
   -0.1159   -2.3062    0.0033 H   0  0  0  0  0  0  0  0  0  0  0  0
    0.8317    1.1046   -1.0438 H   0  0  0  0  0  0  0  0  0  0  0  0
    3.1418    1.9339   -1.1894 H   0  0  0  0  0  0  0  0  0  0  0  0
    4.5360   -1.6317    0.5699 H   0  0  0  0  0  0  0  0  0  0  0  0
    2.2242   -2.4991    0.7492 H   0  0  0  0  0  0  0  0  0  0  0  0
   -2.4212   -1.9026   -0.7909 H   0  0  0  0  0  0  0  0  0  0  0  0
  1  2  2  0
  2  3  1  0
  2  4  1  0
  4  5  2  0
  5  6  1  0
  6  7  2  0
  7  8  1  0
  8  9  1  0
  9 10  1  0
 10 11  2  0
 11 12  1  0
 12 13  2  0
 13 14  1  0
 14 15  2  0
 14 16  1  0
 13 17  1  0
 17 18  2  0
  8 19  2  0
 19  4  1  0
 18 10  1  0
  3 20  1  0
  5 21  1  0
  6 22  1  0
  7 23  1  0
  9 24  1  0
 11 25  1  0
 12 26  1  0
 17 27  1  0
 18 28  1  0
 19 29  1  0
M  CHG  2  14   1  16  -1
M  END
$$$$
