@<TRIPOS>MOLECULE
*****
 62 66 0 0 0
SMALL
GASTEIGER

@<TRIPOS>ATOM
      1 C          -1.6123   -2.4638   -4.0643 C.3     1  UNL1       -0.0653
      2 C          -3.0725   -2.2297   -3.7367 C.3     1  UNL1       -0.0556
      3 C          -3.2451   -1.8039   -2.3016 C.3     1  UNL1       -0.0478
      4 C          -2.4789   -0.5020   -2.0759 C.3     1  UNL1       -0.0084
      5 C          -2.6276   -0.0667   -0.6545 C.ar    1  UNL1        0.0677
      6 N          -3.5761    0.8132   -0.1943 N.ar    1  UNL1       -0.1703
      7 N          -3.4723    0.8908    1.1257 N.ar    1  UNL1       -0.2237
      8 C          -4.2358    1.6649    2.0313 C.ar    1  UNL1        0.0860
      9 C          -3.6986    2.7298    2.7157 C.ar    1  UNL1       -0.0347
     10 C          -4.4552    3.4850    3.6000 C.ar    1  UNL1       -0.0583
     11 C          -5.7780    3.1760    3.8108 C.ar    1  UNL1       -0.0418
     12 C          -6.3329    2.1161    3.1370 C.ar    1  UNL1        0.0613
     13 CL         -8.0154    1.7440    3.4243 Cl      1  UNL1       -0.0820
     14 C          -5.5577    1.3694    2.2529 C.ar    1  UNL1        0.0846
     15 CL         -6.3301    0.0474    1.4394 Cl      1  UNL1       -0.0798
     16 C          -2.4558    0.0625    1.5182 C.ar    1  UNL1        0.1548
     17 C          -2.0089   -0.1540    2.8762 C.2     1  UNL1        0.3557
     18 O          -2.5862    0.4616    3.8179 O.2     1  UNL1       -0.2434
     19 O          -0.9817   -0.9939    3.2511 O.3     1  UNL1       -0.4761
     20 C          -1.9077   -0.5503    0.4033 C.ar    1  UNL1        0.0123
     21 C          -0.7541   -1.4362    0.3480 C.3     1  UNL1        0.0016
     22 C           0.5631   -0.8370    0.2455 C.ar    1  UNL1       -0.0429
     23 C           0.9835    0.0385   -0.7095 C.ar    1  UNL1       -0.0577
     24 C           2.2966    0.5366   -0.7424 C.ar    1  UNL1       -0.0537
     25 C           3.2199    0.1564    0.1994 C.ar    1  UNL1       -0.0172
     26 C           4.5955    0.6389    0.2115 C.ar    1  UNL1       -0.0072
     27 C           5.0102    1.5171    1.2203 C.ar    1  UNL1       -0.0534
     28 C           6.2818    2.0120    1.2909 C.ar    1  UNL1       -0.0611
     29 C           7.2091    1.6239    0.3130 C.ar    1  UNL1       -0.0611
     30 C           6.8137    0.7623   -0.6827 C.ar    1  UNL1       -0.0504
     31 C           5.5019    0.2683   -0.7326 C.ar    1  UNL1        0.0282
     32 C           5.1523   -0.6409   -1.7956 C.ar    1  UNL1        0.1799
     33 N           3.9744   -1.2321   -2.0041 N.ar    1  UNL1       -0.1084
     34 N           4.0326   -2.0119   -3.0896 N.ar    1  UNL1       -0.0229
     35 N           5.2531   -1.8937   -3.5437 N.ar    1  UNL1       -0.0464
     36 N           5.9503   -1.0669   -2.7744 N.ar    1  UNL1       -0.2388
     37 C           2.8018   -0.7388    1.1830 C.ar    1  UNL1       -0.0537
     38 C           1.5272   -1.2029    1.1882 C.ar    1  UNL1       -0.0577
     39 H          -1.0195   -1.5447   -4.0742 H       1  UNL1        0.0230
     40 H          -1.5196   -2.9587   -5.0486 H       1  UNL1        0.0230
     41 H          -1.1641   -3.1133   -3.2556 H       1  UNL1        0.0230
     42 H          -3.4412   -1.4329   -4.3897 H       1  UNL1        0.0263
     43 H          -3.6167   -3.1887   -3.8677 H       1  UNL1        0.0263
     44 H          -4.3179   -1.6859   -2.0769 H       1  UNL1        0.0269
     45 H          -2.8601   -2.6082   -1.6582 H       1  UNL1        0.0269
     46 H          -1.4231   -0.7946   -2.2218 H       1  UNL1        0.0329
     47 H          -2.7754    0.2482   -2.8044 H       1  UNL1        0.0329
     48 H          -2.6628    3.0065    2.5787 H       1  UNL1        0.0639
     49 H          -3.9528    4.3050    4.0966 H       1  UNL1        0.0619
     50 H          -6.3620    3.7884    4.5161 H       1  UNL1        0.0633
     51 H          -0.4991   -0.8272    4.1396 H       1  UNL1        0.2955
     52 H          -0.8281   -2.1763   -0.5169 H       1  UNL1        0.0363
     53 H          -0.8317   -2.1246    1.2390 H       1  UNL1        0.0363
     54 H           0.3112    0.3996   -1.4831 H       1  UNL1        0.0621
     55 H           2.6202    1.2372   -1.5122 H       1  UNL1        0.0624
     56 H           4.2894    1.8153    1.9746 H       1  UNL1        0.0624
     57 H           6.6205    2.6900    2.0623 H       1  UNL1        0.0618
     58 H           8.2148    1.9934    0.3377 H       1  UNL1        0.0618
     59 H           7.5088    0.4459   -1.4532 H       1  UNL1        0.0625
     60 H           6.9531   -0.8343   -2.9622 H       1  UNL1        0.1923
     61 H           3.5437   -1.0258    1.9156 H       1  UNL1        0.0624
     62 H           1.2287   -1.9041    1.9628 H       1  UNL1        0.0621
@<TRIPOS>BOND
     1     1     2    1
     2     2     3    1
     3     3     4    1
     4     4     5    1
     5     5     6   ar
     6     6     7   ar
     7     7     8    1
     8     8     9   ar
     9     9    10   ar
    10    10    11   ar
    11    11    12   ar
    12    12    13    1
    13    12    14   ar
    14    14    15    1
    15     7    16   ar
    16    16    17    1
    17    17    18    2
    18    17    19    1
    19    16    20   ar
    20    20    21    1
    21    21    22    1
    22    22    23   ar
    23    23    24   ar
    24    24    25   ar
    25    25    26    1
    26    26    27   ar
    27    27    28   ar
    28    28    29   ar
    29    29    30   ar
    30    30    31   ar
    31    31    32    1
    32    32    33   ar
    33    33    34   ar
    34    34    35   ar
    35    35    36   ar
    36    25    37   ar
    37    37    38   ar
    38    20     5   ar
    39    38    22   ar
    40    14     8   ar
    41    31    26   ar
    42    36    32   ar
    43     1    39    1
    44     1    40    1
    45     1    41    1
    46     2    42    1
    47     2    43    1
    48     3    44    1
    49     3    45    1
    50     4    46    1
    51     4    47    1
    52     9    48    1
    53    10    49    1
    54    11    50    1
    55    19    51    1
    56    21    52    1
    57    21    53    1
    58    23    54    1
    59    24    55    1
    60    27    56    1
    61    28    57    1
    62    29    58    1
    63    30    59    1
    64    36    60    1
    65    37    61    1
    66    38    62    1
