@<TRIPOS>MOLECULE
*****
 41 43 0 0 0
SMALL
GASTEIGER

@<TRIPOS>ATOM
      1 C           7.2696    1.0752   -0.5492 C.3     1  UNL1        0.0788
      2 O           5.8953    1.3057   -0.4326 O.3     1  UNL1       -0.4951
      3 C           4.9946    0.2991   -0.2946 C.ar    1  UNL1        0.1204
      4 C           5.3393   -1.0211   -0.2594 C.ar    1  UNL1       -0.0193
      5 C           4.3532   -2.0069   -0.1127 C.ar    1  UNL1       -0.0472
      6 C           3.0318   -1.6131   -0.0055 C.ar    1  UNL1        0.0257
      7 C           2.6590   -0.2993   -0.0366 C.ar    1  UNL1       -0.0287
      8 C           3.6528    0.6443   -0.1824 C.ar    1  UNL1       -0.0158
      9 C           1.1640   -0.1733    0.1385 C.3     1  UNL1        0.0020
     10 C           0.6777   -1.5508    0.1537 C.2     1  UNL1        0.0047
     11 C          -0.5646   -1.9994    0.1756 C.2     1  UNL1       -0.0474
     12 C          -1.7079   -1.1109    0.1890 C.ar    1  UNL1       -0.0245
     13 C          -1.8432   -0.0297    1.0112 C.ar    1  UNL1       -0.0528
     14 C          -2.9638    0.8083    0.9662 C.ar    1  UNL1       -0.0401
     15 C          -3.9769    0.5566    0.0746 C.ar    1  UNL1        0.0292
     16 N          -5.1368    1.3627   -0.0198 N.pl3   1  UNL1       -0.3360
     17 C          -6.1613    1.0555   -0.9749 C.3     1  UNL1        0.0004
     18 C          -5.2892    2.4935    0.8496 C.3     1  UNL1        0.0004
     19 C          -3.8497   -0.5400   -0.7649 C.ar    1  UNL1       -0.0401
     20 C          -2.7380   -1.3585   -0.7099 C.ar    1  UNL1       -0.0528
     21 C           1.8410   -2.4635    0.1163 C.2     1  UNL1        0.1898
     22 O           1.8073   -3.7258    0.1779 O.2     1  UNL1       -0.2870
     23 H           7.7794    1.9408   -0.0402 H       1  UNL1        0.0660
     24 H           7.5290    1.0815   -1.6482 H       1  UNL1        0.0660
     25 H           7.5730    0.1232   -0.0971 H       1  UNL1        0.0660
     26 H           6.3388   -1.3942   -0.3396 H       1  UNL1        0.0654
     27 H           4.6326   -3.0396   -0.0862 H       1  UNL1        0.0626
     28 H           3.3416    1.6991   -0.2081 H       1  UNL1        0.0657
     29 H           0.8150    0.4078   -0.7543 H       1  UNL1        0.0363
     30 H           1.0481    0.3976    1.0688 H       1  UNL1        0.0363
     31 H          -0.7234   -3.1038    0.1837 H       1  UNL1        0.0627
     32 H          -1.1213    0.2503    1.7561 H       1  UNL1        0.0624
     33 H          -3.0505    1.6723    1.6354 H       1  UNL1        0.0636
     34 H          -6.5373    0.0128   -0.9032 H       1  UNL1        0.0428
     35 H          -5.7252    1.2163   -1.9993 H       1  UNL1        0.0428
     36 H          -7.0504    1.7214   -0.8539 H       1  UNL1        0.0428
     37 H          -6.1808    3.0665    0.5314 H       1  UNL1        0.0428
     38 H          -4.3815    3.1412    0.8115 H       1  UNL1        0.0428
     39 H          -5.4274    2.0887    1.8828 H       1  UNL1        0.0428
     40 H          -4.6193   -0.7923   -1.4940 H       1  UNL1        0.0636
     41 H          -2.6944   -2.1980   -1.3884 H       1  UNL1        0.0624
@<TRIPOS>BOND
     1     1     2    1
     2     2     3    1
     3     3     4   ar
     4     4     5   ar
     5     5     6   ar
     6     6     7   ar
     7     7     8   ar
     8     7     9    1
     9     9    10    1
    10    10    11    2
    11    11    12    1
    12    12    13   ar
    13    13    14   ar
    14    14    15   ar
    15    15    16    1
    16    16    17    1
    17    16    18    1
    18    15    19   ar
    19    19    20   ar
    20    10    21    1
    21    21    22    2
    22     8     3   ar
    23    20    12   ar
    24    21     6    1
    25     1    23    1
    26     1    24    1
    27     1    25    1
    28     4    26    1
    29     5    27    1
    30     8    28    1
    31     9    29    1
    32     9    30    1
    33    11    31    1
    34    13    32    1
    35    14    33    1
    36    17    34    1
    37    17    35    1
    38    17    36    1
    39    18    37    1
    40    18    38    1
    41    18    39    1
    42    19    40    1
    43    20    41    1
