
     RDKit          3D

 52 55  0  0  0  0  0  0  0  0999 V2000
   -1.6995    0.5092    0.7574 C   0  0  2  0  0  0  0  0  0  0  0  0
   -1.7327    1.8404    1.4420 C   0  0  0  0  0  0  0  0  0  0  0  0
   -0.8309    0.4634   -0.4053 N   0  0  0  0  0  0  0  0  0  0  0  0
   -1.0147    1.3619   -1.5314 C   0  0  0  0  0  0  0  0  0  0  0  0
   -0.2450    0.5724   -2.6027 C   0  0  0  0  0  0  0  0  0  0  0  0
    0.9668    0.0258   -1.8470 C   0  0  2  0  0  0  0  0  0  0  0  0
    1.5388   -1.1047   -2.4788 N   0  0  0  0  0  0  0  0  0  0  0  0
    3.1458   -1.0676   -2.9352 S   0  0  0  0  0  0  0  0  0  0  0  0
    3.4940   -0.0177   -3.9434 O   0  0  0  0  0  0  0  0  0  0  0  0
    3.4397   -2.3922   -3.6333 O   0  0  0  0  0  0  0  0  0  0  0  0
    4.1993   -0.8545   -1.5595 C   0  0  0  0  0  0  0  0  0  0  0  0
    4.1534   -0.6931   -0.1771 C   0  0  0  0  0  0  0  0  0  0  0  0
    5.3517   -0.5583    0.4705 C   0  0  0  0  0  0  0  0  0  0  0  0
    6.5183   -0.5860   -0.2422 C   0  0  0  0  0  0  0  0  0  0  0  0
    5.9837   -0.8086   -1.9045 S   0  0  0  0  0  0  0  0  0  0  0  0
    7.7442   -0.4601    0.3214 C   0  0  0  0  0  0  0  0  0  0  0  0
    7.9121   -0.2902    1.6901 C   0  0  0  0  0  0  0  0  0  0  0  0
    6.7125   -0.2677    2.3724 C   0  0  0  0  0  0  0  0  0  0  0  0
    6.8867   -0.0519    4.1278 Cl  0  0  0  0  0  0  0  0  0  0  0  0
    5.4490   -0.3920    1.8381 C   0  0  0  0  0  0  0  0  0  0  0  0
    0.2967   -0.4264   -0.5994 C   0  0  0  0  0  0  0  0  0  0  0  0
    0.5083   -1.3599    0.2478 O   0  0  0  0  0  0  0  0  0  0  0  0
   -3.0306    0.0210    0.3273 C   0  0  0  0  0  0  0  0  0  0  0  0
   -3.0199   -0.3309   -0.8789 O   0  0  0  0  0  0  0  0  0  0  0  0
   -4.3581   -0.2110    0.7657 N   0  0  0  0  0  0  0  0  0  0  0  0
   -5.2507   -0.7484   -0.2380 C   0  0  0  0  0  0  0  0  0  0  0  0
   -6.2386    0.3868   -0.5403 C   0  0  0  0  0  0  0  0  0  0  0  0
   -6.7728    0.9111    0.6158 O   0  0  0  0  0  0  0  0  0  0  0  0
   -6.5308    0.1249    1.7333 C   0  0  0  0  0  0  0  0  0  0  0  0
   -5.0557   -0.0288    2.0367 C   0  0  0  0  0  0  0  0  0  0  0  0
   -1.3662   -0.2473    1.5304 H   0  0  0  0  0  0  0  0  0  0  0  0
   -0.7893    2.0713    1.9778 H   0  0  0  0  0  0  0  0  0  0  0  0
   -1.9124    2.6831    0.7490 H   0  0  0  0  0  0  0  0  0  0  0  0
   -2.5031    1.7708    2.2364 H   0  0  0  0  0  0  0  0  0  0  0  0
   -2.0421    1.5177   -1.8372 H   0  0  0  0  0  0  0  0  0  0  0  0
   -0.4512    2.3145   -1.3841 H   0  0  0  0  0  0  0  0  0  0  0  0
   -0.8965   -0.2825   -2.8555 H   0  0  0  0  0  0  0  0  0  0  0  0
    0.0405    1.2167   -3.4361 H   0  0  0  0  0  0  0  0  0  0  0  0
    1.6798    0.8534   -1.6723 H   0  0  0  0  0  0  0  0  0  0  0  0
    1.2660   -1.9828   -2.0335 H   0  0  0  0  0  0  0  0  0  0  0  0
    3.1429   -0.6976    0.1890 H   0  0  0  0  0  0  0  0  0  0  0  0
    8.5959   -0.4967   -0.3367 H   0  0  0  0  0  0  0  0  0  0  0  0
    8.8628   -0.1895    2.1530 H   0  0  0  0  0  0  0  0  0  0  0  0
    4.6054   -0.3492    2.5455 H   0  0  0  0  0  0  0  0  0  0  0  0
   -4.7719   -0.9961   -1.1937 H   0  0  0  0  0  0  0  0  0  0  0  0
   -5.7983   -1.6265    0.1970 H   0  0  0  0  0  0  0  0  0  0  0  0
   -6.9706    0.0348   -1.2831 H   0  0  0  0  0  0  0  0  0  0  0  0
   -5.6063    1.1658   -1.0559 H   0  0  0  0  0  0  0  0  0  0  0  0
   -6.9812    0.6627    2.6121 H   0  0  0  0  0  0  0  0  0  0  0  0
   -6.9893   -0.8700    1.6627 H   0  0  0  0  0  0  0  0  0  0  0  0
   -4.9695   -0.9444    2.6589 H   0  0  0  0  0  0  0  0  0  0  0  0
   -4.6668    0.8249    2.5889 H   0  0  0  0  0  0  0  0  0  0  0  0
  1  2  1  0
  1  3  1  0
  3  4  1  0
  4  5  1  0
  5  6  1  0
  6  7  1  0
  7  8  1  0
  8  9  2  0
  8 10  2  0
  8 11  1  0
 11 12  2  0
 12 13  1  0
 13 14  2  0
 14 15  1  0
 14 16  1  0
 16 17  2  0
 17 18  1  0
 18 19  1  0
 18 20  2  0
  6 21  1  0
 21 22  2  0
  1 23  1  0
 23 24  2  0
 23 25  1  0
 25 26  1  0
 26 27  1  0
 27 28  1  0
 28 29  1  0
 29 30  1  0
 21  3  1  0
 30 25  1  0
 15 11  1  0
 20 13  1  0
  1 31  1  1
  2 32  1  0
  2 33  1  0
  2 34  1  0
  4 35  1  0
  4 36  1  0
  5 37  1  0
  5 38  1  0
  6 39  1  1
  7 40  1  0
 12 41  1  0
 16 42  1  0
 17 43  1  0
 20 44  1  0
 26 45  1  0
 26 46  1  0
 27 47  1  0
 27 48  1  0
 29 49  1  0
 29 50  1  0
 30 51  1  0
 30 52  1  0
M  END
$$$$
