@<TRIPOS>MOLECULE
*****
 52 55 0 0 0
SMALL
GASTEIGER

@<TRIPOS>ATOM
      1 C          -1.6995    0.5092    0.7574 C.3     1  UNL1        0.0996
      2 C          -1.7327    1.8404    1.4420 C.3     1  UNL1       -0.0379
      3 N          -0.8309    0.4634   -0.4053 N.am    1  UNL1       -0.2888
      4 C          -1.0147    1.3619   -1.5314 C.3     1  UNL1        0.0174
      5 C          -0.2450    0.5724   -2.6027 C.3     1  UNL1       -0.0116
      6 C           0.9668    0.0258   -1.8470 C.3     1  UNL1        0.1064
      7 N           1.5388   -1.1047   -2.4788 N.3     1  UNL1       -0.1775
      8 S           3.1458   -1.0676   -2.9352 S.O2    1  UNL1        0.0654
      9 O           3.4940   -0.0177   -3.9434 O.2     1  UNL1       -0.1525
     10 O           3.4397   -2.3922   -3.6333 O.2     1  UNL1       -0.1525
     11 C           4.1993   -0.8545   -1.5595 C.ar    1  UNL1        0.1436
     12 C           4.1534   -0.6931   -0.1771 C.ar    1  UNL1       -0.0203
     13 C           5.3517   -0.5583    0.4705 C.ar    1  UNL1       -0.0075
     14 C           6.5183   -0.5860   -0.2422 C.ar    1  UNL1        0.0213
     15 S           5.9837   -0.8086   -1.9045 S.2     1  UNL1       -0.0685
     16 C           7.7442   -0.4601    0.3214 C.ar    1  UNL1       -0.0460
     17 C           7.9121   -0.2902    1.6901 C.ar    1  UNL1       -0.0423
     18 C           6.7125   -0.2677    2.3724 C.ar    1  UNL1        0.0416
     19 CL          6.8867   -0.0519    4.1278 Cl      1  UNL1       -0.0835
     20 C           5.4490   -0.3920    1.8381 C.ar    1  UNL1       -0.0351
     21 C           0.2967   -0.4264   -0.5994 C.2     1  UNL1        0.2349
     22 O           0.5083   -1.3599    0.2478 O.2     1  UNL1       -0.2738
     23 C          -3.0306    0.0210    0.3273 C.2     1  UNL1        0.2360
     24 O          -3.0199   -0.3309   -0.8789 O.2     1  UNL1       -0.2736
     25 N          -4.3581   -0.2110    0.7657 N.am    1  UNL1       -0.2956
     26 C          -5.2507   -0.7484   -0.2380 C.3     1  UNL1        0.0382
     27 C          -6.2386    0.3868   -0.5403 C.3     1  UNL1        0.0635
     28 O          -6.7728    0.9111    0.6158 O.3     1  UNL1       -0.3767
     29 C          -6.5308    0.1249    1.7333 C.3     1  UNL1        0.0635
     30 C          -5.0557   -0.0288    2.0367 C.3     1  UNL1        0.0382
     31 H          -1.3662   -0.2473    1.5304 H       1  UNL1        0.0594
     32 H          -0.7893    2.0713    1.9778 H       1  UNL1        0.0252
     33 H          -1.9124    2.6831    0.7490 H       1  UNL1        0.0252
     34 H          -2.5031    1.7708    2.2364 H       1  UNL1        0.0252
     35 H          -2.0421    1.5177   -1.8372 H       1  UNL1        0.0465
     36 H          -0.4512    2.3145   -1.3841 H       1  UNL1        0.0465
     37 H          -0.8965   -0.2825   -2.8555 H       1  UNL1        0.0301
     38 H           0.0405    1.2167   -3.4361 H       1  UNL1        0.0301
     39 H           1.6798    0.8534   -1.6723 H       1  UNL1        0.0573
     40 H           1.2660   -1.9828   -2.0335 H       1  UNL1        0.1489
     41 H           3.1429   -0.6976    0.1890 H       1  UNL1        0.0649
     42 H           8.5959   -0.4967   -0.3367 H       1  UNL1        0.0629
     43 H           8.8628   -0.1895    2.1530 H       1  UNL1        0.0632
     44 H           4.6054   -0.3492    2.5455 H       1  UNL1        0.0638
     45 H          -4.7719   -0.9961   -1.1937 H       1  UNL1        0.0487
     46 H          -5.7983   -1.6265    0.1970 H       1  UNL1        0.0487
     47 H          -6.9706    0.0348   -1.2831 H       1  UNL1        0.0575
     48 H          -5.6063    1.1658   -1.0559 H       1  UNL1        0.0575
     49 H          -6.9812    0.6627    2.6121 H       1  UNL1        0.0575
     50 H          -6.9893   -0.8700    1.6627 H       1  UNL1        0.0575
     51 H          -4.9695   -0.9444    2.6589 H       1  UNL1        0.0487
     52 H          -4.6668    0.8249    2.5889 H       1  UNL1        0.0487
@<TRIPOS>BOND
     1     1     2    1
     2     1     3    1
     3     3     4    1
     4     4     5    1
     5     5     6    1
     6     6     7    1
     7     7     8    1
     8     8     9    2
     9     8    10    2
    10     8    11    1
    11    11    12   ar
    12    12    13   ar
    13    13    14   ar
    14    14    15   ar
    15    14    16   ar
    16    16    17   ar
    17    17    18   ar
    18    18    19    1
    19    18    20   ar
    20     6    21    1
    21    21    22    2
    22     1    23    1
    23    23    24    2
    24    23    25   am
    25    25    26    1
    26    26    27    1
    27    27    28    1
    28    28    29    1
    29    29    30    1
    30    21     3   am
    31    30    25    1
    32    15    11   ar
    33    20    13   ar
    34     1    31    1
    35     2    32    1
    36     2    33    1
    37     2    34    1
    38     4    35    1
    39     4    36    1
    40     5    37    1
    41     5    38    1
    42     6    39    1
    43     7    40    1
    44    12    41    1
    45    16    42    1
    46    17    43    1
    47    20    44    1
    48    26    45    1
    49    26    46    1
    50    27    47    1
    51    27    48    1
    52    29    49    1
    53    29    50    1
    54    30    51    1
    55    30    52    1
