@<TRIPOS>MOLECULE
*****
 48 51 0 0 0
SMALL
GASTEIGER

@<TRIPOS>ATOM
      1 C          -1.9450   -0.6456   -0.4031 C.3     1  UNL1       -0.0298
      2 C          -3.1244   -0.7124   -1.3027 C.3     1  UNL1       -0.0470
      3 C          -4.2307   -1.0162   -0.2904 C.3     1  UNL1       -0.0261
      4 C          -3.7325   -0.4484    1.0444 C.3     1  UNL1        0.0609
      5 O          -4.6808    0.4745    1.4856 O.3     1  UNL1       -0.3912
      6 C          -2.4486    0.2556    0.7054 C.3     1  UNL1       -0.0030
      7 C          -2.7172    1.6533    0.2726 C.3     1  UNL1       -0.0569
      8 C          -1.4429    0.2342    1.8091 C.3     1  UNL1       -0.0445
      9 C          -0.0758    0.5854    1.3396 C.3     1  UNL1       -0.0454
     10 C           0.3280   -0.2829    0.1750 C.3     1  UNL1       -0.0124
     11 C           1.7066   -0.0764   -0.2674 C.ar    1  UNL1       -0.0371
     12 C           2.0276    0.1515   -1.5898 C.ar    1  UNL1       -0.0402
     13 C           1.0058    0.2025   -2.6458 C.3     1  UNL1       -0.0270
     14 C          -0.2050   -0.6446   -2.2330 C.3     1  UNL1       -0.0454
     15 C          -0.6928   -0.0765   -0.9415 C.3     1  UNL1       -0.0305
     16 C           3.3567    0.3360   -1.9176 C.ar    1  UNL1       -0.0131
     17 C           4.3592    0.2990   -0.9704 C.ar    1  UNL1        0.1587
     18 O           5.6934    0.4900   -1.3385 O.3     1  UNL1       -0.5033
     19 C           4.0030    0.0676    0.3519 C.ar    1  UNL1        0.1615
     20 O           5.0394    0.0411    1.2512 O.3     1  UNL1       -0.4914
     21 C           4.9066   -0.1761    2.6321 C.3     1  UNL1        0.0790
     22 C           2.6715   -0.1221    0.7129 C.ar    1  UNL1       -0.0126
     23 H          -1.7721   -1.6429    0.0272 H       1  UNL1        0.0310
     24 H          -3.3253    0.1590   -1.9208 H       1  UNL1        0.0269
     25 H          -2.9761   -1.5830   -1.9896 H       1  UNL1        0.0269
     26 H          -5.2056   -0.6234   -0.5847 H       1  UNL1        0.0290
     27 H          -4.2235   -2.1418   -0.1964 H       1  UNL1        0.0290
     28 H          -3.6020   -1.2568    1.7877 H       1  UNL1        0.0599
     29 H          -5.3400    0.0294    2.1057 H       1  UNL1        0.2098
     30 H          -1.8433    2.3303    0.3174 H       1  UNL1        0.0236
     31 H          -3.4416    2.0807    1.0262 H       1  UNL1        0.0236
     32 H          -3.2032    1.7856   -0.6940 H       1  UNL1        0.0236
     33 H          -1.4250   -0.6777    2.4081 H       1  UNL1        0.0272
     34 H          -1.7505    1.0499    2.5261 H       1  UNL1        0.0272
     35 H           0.0679    1.6481    1.0647 H       1  UNL1        0.0271
     36 H           0.6325    0.3587    2.1680 H       1  UNL1        0.0271
     37 H           0.1840   -1.3435    0.5143 H       1  UNL1        0.0352
     38 H           0.6268    1.2434   -2.7227 H       1  UNL1        0.0313
     39 H           1.3897   -0.1387   -3.6210 H       1  UNL1        0.0313
     40 H           0.0748   -1.7196   -2.1501 H       1  UNL1        0.0271
     41 H          -0.9820   -0.4630   -2.9914 H       1  UNL1        0.0271
     42 H          -0.7788    1.0366   -1.0926 H       1  UNL1        0.0310
     43 H           3.6529    0.5190   -2.9527 H       1  UNL1        0.0658
     44 H           6.2976   -0.2790   -1.6029 H       1  UNL1        0.2923
     45 H           4.4472    0.7221    3.0845 H       1  UNL1        0.0660
     46 H           4.2447   -1.0529    2.7752 H       1  UNL1        0.0660
     47 H           5.9234   -0.3369    3.0633 H       1  UNL1        0.0660
     48 H           2.5255   -0.2931    1.7708 H       1  UNL1        0.0658
@<TRIPOS>BOND
     1     1     2    1
     2     2     3    1
     3     3     4    1
     4     4     5    1
     5     4     6    1
     6     6     7    1
     7     6     8    1
     8     8     9    1
     9     9    10    1
    10    10    11    1
    11    11    12   ar
    12    12    13    1
    13    13    14    1
    14    14    15    1
    15    12    16   ar
    16    16    17   ar
    17    17    18    1
    18    17    19   ar
    19    19    20    1
    20    20    21    1
    21    19    22   ar
    22     6     1    1
    23    15    10    1
    24    15     1    1
    25    22    11   ar
    26     1    23    1
    27     2    24    1
    28     2    25    1
    29     3    26    1
    30     3    27    1
    31     4    28    1
    32     5    29    1
    33     7    30    1
    34     7    31    1
    35     7    32    1
    36     8    33    1
    37     8    34    1
    38     9    35    1
    39     9    36    1
    40    10    37    1
    41    13    38    1
    42    13    39    1
    43    14    40    1
    44    14    41    1
    45    15    42    1
    46    16    43    1
    47    18    44    1
    48    21    45    1
    49    21    46    1
    50    21    47    1
    51    22    48    1
