
     RDKit          3D

 48 51  0  0  0  0  0  0  0  0999 V2000
   -1.9450   -0.6456   -0.4031 C   0  0  2  0  0  0  0  0  0  0  0  0
   -3.1244   -0.7124   -1.3027 C   0  0  0  0  0  0  0  0  0  0  0  0
   -4.2307   -1.0162   -0.2904 C   0  0  0  0  0  0  0  0  0  0  0  0
   -3.7325   -0.4484    1.0444 C   0  0  2  0  0  0  0  0  0  0  0  0
   -4.6808    0.4745    1.4856 O   0  0  0  0  0  0  0  0  0  0  0  0
   -2.4486    0.2556    0.7054 C   0  0  2  0  0  0  0  0  0  0  0  0
   -2.7172    1.6533    0.2726 C   0  0  0  0  0  0  0  0  0  0  0  0
   -1.4429    0.2342    1.8091 C   0  0  0  0  0  0  0  0  0  0  0  0
   -0.0758    0.5854    1.3396 C   0  0  0  0  0  0  0  0  0  0  0  0
    0.3280   -0.2829    0.1750 C   0  0  2  0  0  0  0  0  0  0  0  0
    1.7066   -0.0764   -0.2674 C   0  0  0  0  0  0  0  0  0  0  0  0
    2.0276    0.1515   -1.5898 C   0  0  0  0  0  0  0  0  0  0  0  0
    1.0058    0.2025   -2.6458 C   0  0  0  0  0  0  0  0  0  0  0  0
   -0.2050   -0.6446   -2.2330 C   0  0  0  0  0  0  0  0  0  0  0  0
   -0.6928   -0.0765   -0.9415 C   0  0  1  0  0  0  0  0  0  0  0  0
    3.3567    0.3360   -1.9176 C   0  0  0  0  0  0  0  0  0  0  0  0
    4.3592    0.2990   -0.9704 C   0  0  0  0  0  0  0  0  0  0  0  0
    5.6934    0.4900   -1.3385 O   0  0  0  0  0  0  0  0  0  0  0  0
    4.0030    0.0676    0.3519 C   0  0  0  0  0  0  0  0  0  0  0  0
    5.0394    0.0411    1.2512 O   0  0  0  0  0  0  0  0  0  0  0  0
    4.9066   -0.1761    2.6321 C   0  0  0  0  0  0  0  0  0  0  0  0
    2.6715   -0.1221    0.7129 C   0  0  0  0  0  0  0  0  0  0  0  0
   -1.7721   -1.6429    0.0272 H   0  0  0  0  0  0  0  0  0  0  0  0
   -3.3253    0.1590   -1.9208 H   0  0  0  0  0  0  0  0  0  0  0  0
   -2.9761   -1.5830   -1.9896 H   0  0  0  0  0  0  0  0  0  0  0  0
   -5.2056   -0.6234   -0.5847 H   0  0  0  0  0  0  0  0  0  0  0  0
   -4.2235   -2.1418   -0.1964 H   0  0  0  0  0  0  0  0  0  0  0  0
   -3.6020   -1.2568    1.7877 H   0  0  0  0  0  0  0  0  0  0  0  0
   -5.3400    0.0294    2.1057 H   0  0  0  0  0  0  0  0  0  0  0  0
   -1.8433    2.3303    0.3174 H   0  0  0  0  0  0  0  0  0  0  0  0
   -3.4416    2.0807    1.0262 H   0  0  0  0  0  0  0  0  0  0  0  0
   -3.2032    1.7856   -0.6940 H   0  0  0  0  0  0  0  0  0  0  0  0
   -1.4250   -0.6777    2.4081 H   0  0  0  0  0  0  0  0  0  0  0  0
   -1.7505    1.0499    2.5261 H   0  0  0  0  0  0  0  0  0  0  0  0
    0.0679    1.6481    1.0647 H   0  0  0  0  0  0  0  0  0  0  0  0
    0.6325    0.3587    2.1680 H   0  0  0  0  0  0  0  0  0  0  0  0
    0.1840   -1.3435    0.5143 H   0  0  0  0  0  0  0  0  0  0  0  0
    0.6268    1.2434   -2.7227 H   0  0  0  0  0  0  0  0  0  0  0  0
    1.3897   -0.1387   -3.6210 H   0  0  0  0  0  0  0  0  0  0  0  0
    0.0748   -1.7196   -2.1501 H   0  0  0  0  0  0  0  0  0  0  0  0
   -0.9820   -0.4630   -2.9914 H   0  0  0  0  0  0  0  0  0  0  0  0
   -0.7788    1.0366   -1.0926 H   0  0  0  0  0  0  0  0  0  0  0  0
    3.6529    0.5190   -2.9527 H   0  0  0  0  0  0  0  0  0  0  0  0
    6.2976   -0.2790   -1.6029 H   0  0  0  0  0  0  0  0  0  0  0  0
    4.4472    0.7221    3.0845 H   0  0  0  0  0  0  0  0  0  0  0  0
    4.2447   -1.0529    2.7752 H   0  0  0  0  0  0  0  0  0  0  0  0
    5.9234   -0.3369    3.0633 H   0  0  0  0  0  0  0  0  0  0  0  0
    2.5255   -0.2931    1.7708 H   0  0  0  0  0  0  0  0  0  0  0  0
  1  2  1  0
  2  3  1  0
  3  4  1  0
  4  5  1  0
  4  6  1  0
  6  7  1  6
  6  8  1  0
  8  9  1  0
  9 10  1  0
 10 11  1  0
 11 12  2  0
 12 13  1  0
 13 14  1  0
 14 15  1  0
 12 16  1  0
 16 17  2  0
 17 18  1  0
 17 19  1  0
 19 20  1  0
 20 21  1  0
 19 22  2  0
  6  1  1  0
 15 10  1  0
 15  1  1  0
 22 11  1  0
  1 23  1  1
  2 24  1  0
  2 25  1  0
  3 26  1  0
  3 27  1  0
  4 28  1  1
  5 29  1  0
  7 30  1  0
  7 31  1  0
  7 32  1  0
  8 33  1  0
  8 34  1  0
  9 35  1  0
  9 36  1  0
 10 37  1  1
 13 38  1  0
 13 39  1  0
 14 40  1  0
 14 41  1  0
 15 42  1  6
 16 43  1  0
 18 44  1  0
 21 45  1  0
 21 46  1  0
 21 47  1  0
 22 48  1  0
M  END
$$$$
