@<TRIPOS>MOLECULE
*****
 47 48 0 0 0
SMALL
GASTEIGER

@<TRIPOS>ATOM
      1 C           6.0572    1.2669    3.0948 C.3     1  UNL1        0.0790
      2 O           6.2039    1.6520    1.7562 O.3     1  UNL1       -0.4914
      3 C           5.4418    1.0715    0.7496 C.ar    1  UNL1        0.1618
      4 C           4.5112    0.1003    0.9828 C.ar    1  UNL1       -0.0092
      5 C           3.7247   -0.5020   -0.0438 C.ar    1  UNL1       -0.0212
      6 C           2.8214   -1.5377    0.3431 C.2     1  UNL1       -0.0512
      7 C           1.8617   -2.1433   -0.1942 C.2     1  UNL1       -0.0182
      8 C           1.1932   -2.0960   -1.4510 C.2     1  UNL1        0.1635
      9 O           1.3962   -1.3710   -2.4358 O.2     1  UNL1       -0.2922
     10 C           0.0189   -3.0702   -1.6984 C.3     1  UNL1        0.0724
     11 C          -1.1989   -2.1364   -1.5565 C.2     1  UNL1        0.1635
     12 O          -1.7264   -1.8627   -2.6369 O.2     1  UNL1       -0.2922
     13 C          -1.5891   -1.6893   -0.2674 C.2     1  UNL1       -0.0182
     14 C          -2.4698   -0.9497    0.2123 C.2     1  UNL1       -0.0512
     15 C          -3.5673   -0.1401   -0.2439 C.ar    1  UNL1       -0.0212
     16 C          -3.8964    0.1523   -1.5379 C.ar    1  UNL1       -0.0509
     17 C          -5.0113    0.9219   -1.9210 C.ar    1  UNL1       -0.0160
     18 C          -5.8136    1.4086   -0.9591 C.ar    1  UNL1        0.1585
     19 O          -6.9310    2.1754   -1.2867 O.3     1  UNL1       -0.5033
     20 C          -5.5584    1.1647    0.3839 C.ar    1  UNL1        0.1618
     21 O          -6.4385    1.7050    1.2972 O.3     1  UNL1       -0.4914
     22 C          -6.3293    1.5443    2.6785 C.3     1  UNL1        0.0790
     23 C          -4.4675    0.4143    0.7106 C.ar    1  UNL1       -0.0092
     24 C           3.9739   -0.0293   -1.3066 C.ar    1  UNL1       -0.0509
     25 C           4.9235    0.9593   -1.5266 C.ar    1  UNL1       -0.0160
     26 C           5.6675    1.5249   -0.5260 C.ar    1  UNL1        0.1585
     27 O           6.6149    2.5150   -0.7655 O.3     1  UNL1       -0.5033
     28 H           6.5354    0.2762    3.2596 H       1  UNL1        0.0660
     29 H           6.5460    2.0336    3.7548 H       1  UNL1        0.0660
     30 H           4.9769    1.2426    3.3492 H       1  UNL1        0.0660
     31 H           4.3918   -0.2031    2.0129 H       1  UNL1        0.0661
     32 H           3.0371   -1.9218    1.4127 H       1  UNL1        0.0625
     33 H           1.4167   -2.9475    0.5330 H       1  UNL1        0.0653
     34 H           0.0346   -3.3797   -2.7467 H       1  UNL1        0.0426
     35 H           0.0032   -3.8647   -0.9661 H       1  UNL1        0.0426
     36 H          -0.8897   -2.1411    0.5442 H       1  UNL1        0.0653
     37 H          -2.3704   -0.8777    1.3774 H       1  UNL1        0.0625
     38 H          -3.2565   -0.1970   -2.3245 H       1  UNL1        0.0625
     39 H          -5.1784    1.0916   -2.9815 H       1  UNL1        0.0655
     40 H          -7.4389    1.8403   -2.1168 H       1  UNL1        0.2923
     41 H          -6.0485    2.5596    3.0940 H       1  UNL1        0.0660
     42 H          -5.6552    0.7688    3.0281 H       1  UNL1        0.0660
     43 H          -7.3725    1.3865    3.1026 H       1  UNL1        0.0660
     44 H          -4.2568    0.2206    1.7514 H       1  UNL1        0.0661
     45 H           3.4655   -0.4379   -2.1469 H       1  UNL1        0.0625
     46 H           5.0960    1.3097   -2.5446 H       1  UNL1        0.0655
     47 H           7.5511    2.1921   -1.0627 H       1  UNL1        0.2923
@<TRIPOS>BOND
     1     1     2    1
     2     2     3    1
     3     3     4   ar
     4     4     5   ar
     5     5     6    1
     6     6     7    2
     7     7     8    1
     8     8     9    2
     9     8    10    1
    10    10    11    1
    11    11    12    2
    12    11    13    1
    13    13    14    2
    14    14    15    1
    15    15    16   ar
    16    16    17   ar
    17    17    18   ar
    18    18    19    1
    19    18    20   ar
    20    20    21    1
    21    21    22    1
    22    20    23   ar
    23     5    24   ar
    24    24    25   ar
    25    25    26   ar
    26    26    27    1
    27    26     3   ar
    28    23    15   ar
    29     1    28    1
    30     1    29    1
    31     1    30    1
    32     4    31    1
    33     6    32    1
    34     7    33    1
    35    10    34    1
    36    10    35    1
    37    13    36    1
    38    14    37    1
    39    16    38    1
    40    17    39    1
    41    19    40    1
    42    22    41    1
    43    22    42    1
    44    22    43    1
    45    23    44    1
    46    24    45    1
    47    25    46    1
    48    27    47    1
