
     RDKit          3D

 47 48  0  0  0  0  0  0  0  0999 V2000
    6.0572    1.2669    3.0948 C   0  0  0  0  0  0  0  0  0  0  0  0
    6.2039    1.6520    1.7562 O   0  0  0  0  0  0  0  0  0  0  0  0
    5.4418    1.0715    0.7496 C   0  0  0  0  0  0  0  0  0  0  0  0
    4.5112    0.1003    0.9828 C   0  0  0  0  0  0  0  0  0  0  0  0
    3.7247   -0.5020   -0.0438 C   0  0  0  0  0  0  0  0  0  0  0  0
    2.8214   -1.5377    0.3431 C   0  0  0  0  0  0  0  0  0  0  0  0
    1.8617   -2.1433   -0.1942 C   0  0  0  0  0  0  0  0  0  0  0  0
    1.1932   -2.0960   -1.4510 C   0  0  0  0  0  0  0  0  0  0  0  0
    1.3962   -1.3710   -2.4358 O   0  0  0  0  0  0  0  0  0  0  0  0
    0.0189   -3.0702   -1.6984 C   0  0  0  0  0  0  0  0  0  0  0  0
   -1.1989   -2.1364   -1.5565 C   0  0  0  0  0  0  0  0  0  0  0  0
   -1.7264   -1.8627   -2.6369 O   0  0  0  0  0  0  0  0  0  0  0  0
   -1.5891   -1.6893   -0.2674 C   0  0  0  0  0  0  0  0  0  0  0  0
   -2.4698   -0.9497    0.2123 C   0  0  0  0  0  0  0  0  0  0  0  0
   -3.5673   -0.1401   -0.2439 C   0  0  0  0  0  0  0  0  0  0  0  0
   -3.8964    0.1523   -1.5379 C   0  0  0  0  0  0  0  0  0  0  0  0
   -5.0113    0.9219   -1.9210 C   0  0  0  0  0  0  0  0  0  0  0  0
   -5.8136    1.4086   -0.9591 C   0  0  0  0  0  0  0  0  0  0  0  0
   -6.9310    2.1754   -1.2867 O   0  0  0  0  0  0  0  0  0  0  0  0
   -5.5584    1.1647    0.3839 C   0  0  0  0  0  0  0  0  0  0  0  0
   -6.4385    1.7050    1.2972 O   0  0  0  0  0  0  0  0  0  0  0  0
   -6.3293    1.5443    2.6785 C   0  0  0  0  0  0  0  0  0  0  0  0
   -4.4675    0.4143    0.7106 C   0  0  0  0  0  0  0  0  0  0  0  0
    3.9739   -0.0293   -1.3066 C   0  0  0  0  0  0  0  0  0  0  0  0
    4.9235    0.9593   -1.5266 C   0  0  0  0  0  0  0  0  0  0  0  0
    5.6675    1.5249   -0.5260 C   0  0  0  0  0  0  0  0  0  0  0  0
    6.6149    2.5150   -0.7655 O   0  0  0  0  0  0  0  0  0  0  0  0
    6.5354    0.2762    3.2596 H   0  0  0  0  0  0  0  0  0  0  0  0
    6.5460    2.0336    3.7548 H   0  0  0  0  0  0  0  0  0  0  0  0
    4.9769    1.2426    3.3492 H   0  0  0  0  0  0  0  0  0  0  0  0
    4.3918   -0.2031    2.0129 H   0  0  0  0  0  0  0  0  0  0  0  0
    3.0371   -1.9218    1.4127 H   0  0  0  0  0  0  0  0  0  0  0  0
    1.4167   -2.9475    0.5330 H   0  0  0  0  0  0  0  0  0  0  0  0
    0.0346   -3.3797   -2.7467 H   0  0  0  0  0  0  0  0  0  0  0  0
    0.0032   -3.8647   -0.9661 H   0  0  0  0  0  0  0  0  0  0  0  0
   -0.8897   -2.1411    0.5442 H   0  0  0  0  0  0  0  0  0  0  0  0
   -2.3704   -0.8777    1.3774 H   0  0  0  0  0  0  0  0  0  0  0  0
   -3.2565   -0.1970   -2.3245 H   0  0  0  0  0  0  0  0  0  0  0  0
   -5.1784    1.0916   -2.9815 H   0  0  0  0  0  0  0  0  0  0  0  0
   -7.4389    1.8403   -2.1168 H   0  0  0  0  0  0  0  0  0  0  0  0
   -6.0485    2.5596    3.0940 H   0  0  0  0  0  0  0  0  0  0  0  0
   -5.6552    0.7688    3.0281 H   0  0  0  0  0  0  0  0  0  0  0  0
   -7.3725    1.3865    3.1026 H   0  0  0  0  0  0  0  0  0  0  0  0
   -4.2568    0.2206    1.7514 H   0  0  0  0  0  0  0  0  0  0  0  0
    3.4655   -0.4379   -2.1469 H   0  0  0  0  0  0  0  0  0  0  0  0
    5.0960    1.3097   -2.5446 H   0  0  0  0  0  0  0  0  0  0  0  0
    7.5511    2.1921   -1.0627 H   0  0  0  0  0  0  0  0  0  0  0  0
  1  2  1  0
  2  3  1  0
  3  4  2  0
  4  5  1  0
  5  6  1  0
  6  7  2  3
  7  8  1  0
  8  9  2  0
  8 10  1  0
 10 11  1  0
 11 12  2  0
 11 13  1  0
 13 14  2  3
 14 15  1  0
 15 16  2  0
 16 17  1  0
 17 18  2  0
 18 19  1  0
 18 20  1  0
 20 21  1  0
 21 22  1  0
 20 23  2  0
  5 24  2  0
 24 25  1  0
 25 26  2  0
 26 27  1  0
 26  3  1  0
 23 15  1  0
  1 28  1  0
  1 29  1  0
  1 30  1  0
  4 31  1  0
  6 32  1  0
  7 33  1  0
 10 34  1  0
 10 35  1  0
 13 36  1  0
 14 37  1  0
 16 38  1  0
 17 39  1  0
 19 40  1  0
 22 41  1  0
 22 42  1  0
 22 43  1  0
 23 44  1  0
 24 45  1  0
 25 46  1  0
 27 47  1  0
M  END
$$$$
