@<TRIPOS>MOLECULE
*****
 57 59 0 0 0
SMALL
GASTEIGER

@<TRIPOS>ATOM
      1 C           5.8786    0.7454    0.0860 C.3     1  UNL1       -0.0129
      2 N           5.9579    1.1840   -1.2724 N.3     1  UNL1       -0.3051
      3 C           6.1542    0.1179   -2.2055 C.3     1  UNL1       -0.0129
      4 C           4.9994    2.1661   -1.6598 C.3     1  UNL1        0.0325
      5 C           3.5845    1.6866   -1.7082 C.3     1  UNL1        0.1022
      6 O           3.0833    1.2058   -0.5010 O.3     1  UNL1       -0.4907
      7 C           1.7978    0.7285   -0.3505 C.ar    1  UNL1        0.1206
      8 C           0.9892    0.7344   -1.4466 C.ar    1  UNL1       -0.0194
      9 C          -0.3107    0.3022   -1.4817 C.ar    1  UNL1       -0.0506
     10 C          -0.8991   -0.1978   -0.3106 C.ar    1  UNL1       -0.0168
     11 C          -0.0643   -0.2033    0.8137 C.ar    1  UNL1       -0.0506
     12 C           1.2442    0.2484    0.7875 C.ar    1  UNL1       -0.0194
     13 C          -2.2001   -0.7907    0.0730 C.2     1  UNL1       -0.0070
     14 C          -2.8738   -0.2146    1.1141 C.2     1  UNL1       -0.0309
     15 C          -4.1762   -0.8331    1.4766 C.3     1  UNL1       -0.0131
     16 C          -4.0942   -1.3556    2.8870 C.3     1  UNL1        0.0266
     17 CL         -5.6238   -2.1586    3.3591 Cl      1  UNL1       -0.1251
     18 C          -2.3033    0.9883    1.7044 C.ar    1  UNL1       -0.0212
     19 C          -2.1248    1.9243    0.6645 C.ar    1  UNL1       -0.0543
     20 C          -1.5723    3.1667    0.9635 C.ar    1  UNL1       -0.0612
     21 C          -1.1918    3.5211    2.2391 C.ar    1  UNL1       -0.0617
     22 C          -1.3627    2.6144    3.2615 C.ar    1  UNL1       -0.0612
     23 C          -1.9045    1.4075    2.9407 C.ar    1  UNL1       -0.0543
     24 C          -2.6134   -2.0006   -0.6408 C.ar    1  UNL1       -0.0170
     25 C          -2.7497   -2.1583   -2.0001 C.ar    1  UNL1       -0.0540
     26 C          -3.0982   -3.3258   -2.6230 C.ar    1  UNL1       -0.0612
     27 C          -3.3394   -4.4487   -1.8789 C.ar    1  UNL1       -0.0617
     28 C          -3.2284   -4.3954   -0.4800 C.ar    1  UNL1       -0.0612
     29 C          -2.8740   -3.1789    0.0342 C.ar    1  UNL1       -0.0540
     30 H           5.4270   -0.2874    0.0825 H       1  UNL1        0.0391
     31 H           5.2439    1.4809    0.6291 H       1  UNL1        0.0391
     32 H           6.8958    0.7167    0.5304 H       1  UNL1        0.0391
     33 H           7.2686    0.0539   -2.3595 H       1  UNL1        0.0391
     34 H           5.6484    0.3933   -3.1704 H       1  UNL1        0.0391
     35 H           5.7331   -0.8353   -1.8415 H       1  UNL1        0.0391
     36 H           5.2751    2.5228   -2.6762 H       1  UNL1        0.0460
     37 H           5.1249    3.0348   -0.9795 H       1  UNL1        0.0460
     38 H           2.9391    2.5269   -2.0309 H       1  UNL1        0.0709
     39 H           3.4910    0.8970   -2.4708 H       1  UNL1        0.0709
     40 H           1.2538    1.0830   -2.4569 H       1  UNL1        0.0654
     41 H          -1.0163    0.2766   -2.2715 H       1  UNL1        0.0625
     42 H          -0.2980   -0.5698    1.8278 H       1  UNL1        0.0625
     43 H           1.9141    0.2548    1.6489 H       1  UNL1        0.0654
     44 H          -4.4862   -1.6160    0.7989 H       1  UNL1        0.0325
     45 H          -4.9954   -0.0493    1.4125 H       1  UNL1        0.0325
     46 H          -3.2315   -2.0061    3.0870 H       1  UNL1        0.0433
     47 H          -3.9970   -0.4880    3.6118 H       1  UNL1        0.0433
     48 H          -2.3473    1.9076   -0.3940 H       1  UNL1        0.0624
     49 H          -1.3775    3.9842    0.2594 H       1  UNL1        0.0618
     50 H          -0.7566    4.4777    2.5185 H       1  UNL1        0.0618
     51 H          -1.1138    2.7480    4.3043 H       1  UNL1        0.0618
     52 H          -2.0491    0.6423    3.6840 H       1  UNL1        0.0624
     53 H          -2.5906   -1.3249   -2.6604 H       1  UNL1        0.0624
     54 H          -3.1905   -3.3940   -3.6938 H       1  UNL1        0.0618
     55 H          -3.6146   -5.3647   -2.3889 H       1  UNL1        0.0618
     56 H          -3.4286   -5.2953    0.0378 H       1  UNL1        0.0618
     57 H          -2.8064   -3.2502    1.1154 H       1  UNL1        0.0624
@<TRIPOS>BOND
     1     1     2    1
     2     2     3    1
     3     2     4    1
     4     4     5    1
     5     5     6    1
     6     6     7    1
     7     7     8   ar
     8     8     9   ar
     9     9    10   ar
    10    10    11   ar
    11    11    12   ar
    12    10    13    1
    13    13    14    2
    14    14    15    1
    15    15    16    1
    16    16    17    1
    17    14    18    1
    18    18    19   ar
    19    19    20   ar
    20    20    21   ar
    21    21    22   ar
    22    22    23   ar
    23    13    24    1
    24    24    25   ar
    25    25    26   ar
    26    26    27   ar
    27    27    28   ar
    28    28    29   ar
    29    12     7   ar
    30    23    18   ar
    31    29    24   ar
    32     1    30    1
    33     1    31    1
    34     1    32    1
    35     3    33    1
    36     3    34    1
    37     3    35    1
    38     4    36    1
    39     4    37    1
    40     5    38    1
    41     5    39    1
    42     8    40    1
    43     9    41    1
    44    11    42    1
    45    12    43    1
    46    15    44    1
    47    15    45    1
    48    16    46    1
    49    16    47    1
    50    19    48    1
    51    20    49    1
    52    21    50    1
    53    22    51    1
    54    23    52    1
    55    25    53    1
    56    26    54    1
    57    27    55    1
    58    28    56    1
    59    29    57    1
