
     RDKit          3D

 60 64  0  0  0  0  0  0  0  0999 V2000
   -3.6626   -1.0371    2.5067 C   0  0  0  0  0  0  0  0  0  0  0  0
   -3.7942   -0.2142    1.2166 C   0  0  1  0  0  0  0  0  0  0  0  0
   -2.5859    0.1398    0.8058 O   0  0  0  0  0  0  0  0  0  0  0  0
   -1.6631    1.0239    0.5018 C   0  0  0  0  0  0  0  0  0  0  0  0
   -0.4117    0.6238    0.0646 N   0  0  0  0  0  0  0  0  0  0  0  0
    0.5489    1.4659   -0.2530 C   0  0  0  0  0  0  0  0  0  0  0  0
    1.8612    0.9722   -0.7129 C   0  0  0  0  0  0  0  0  0  0  0  0
    2.8676    1.8290   -1.0458 C   0  0  0  0  0  0  0  0  0  0  0  0
    4.1000    1.3622   -1.4780 C   0  0  0  0  0  0  0  0  0  0  0  0
    4.2903    0.0143   -1.5653 C   0  0  0  0  0  0  0  0  0  0  0  0
    3.2923   -0.8783   -1.2358 C   0  0  0  0  0  0  0  0  0  0  0  0
    2.0777   -0.3831   -0.8093 C   0  0  0  0  0  0  0  0  0  0  0  0
    3.3506   -2.3605   -1.2793 C   0  0  0  0  0  0  0  0  0  0  0  0
    4.3976   -2.9107   -0.3404 C   0  0  0  0  0  0  0  0  0  0  0  0
    5.6329   -2.1696   -0.3960 N   0  0  0  0  0  0  0  0  0  0  0  0
    5.7006   -1.1120    0.5740 C   0  0  0  0  0  0  0  0  0  0  0  0
    5.9796   -1.7527   -1.7313 C   0  0  0  0  0  0  0  0  0  0  0  0
    5.6635   -0.3304   -2.0452 C   0  0  0  0  0  0  0  0  0  0  0  0
    0.2975    2.8135   -0.1454 C   0  0  0  0  0  0  0  0  0  0  0  0
   -0.9280    3.3005    0.2841 C   0  0  0  0  0  0  0  0  0  0  0  0
   -1.4205    4.5375    0.4729 N   0  0  0  0  0  0  0  0  0  0  0  0
   -2.6615    4.5057    0.8997 N   0  0  0  0  0  0  0  0  0  0  0  0
   -3.5591    5.6093    1.2259 C   0  0  0  0  0  0  0  0  0  0  0  0
   -2.9832    3.1798    0.9898 C   0  0  0  0  0  0  0  0  0  0  0  0
   -1.9127    2.3972    0.6091 C   0  0  0  0  0  0  0  0  0  0  0  0
   -4.5394   -1.0545    0.1696 C   0  0  1  0  0  0  0  0  0  0  0  0
   -3.8089   -2.3189   -0.1387 C   0  0  0  0  0  0  0  0  0  0  0  0
   -4.7948   -3.3642   -0.2659 N   0  0  0  0  0  0  0  0  0  0  0  0
   -6.0375   -2.9002    0.2296 C   0  0  0  0  0  0  0  0  0  0  0  0
   -7.0715   -3.6090    0.3022 O   0  0  0  0  0  0  0  0  0  0  0  0
   -5.8916   -1.4720    0.6316 C   0  0  0  0  0  0  0  0  0  0  0  0
   -4.3631   -1.8696    2.5409 H   0  0  0  0  0  0  0  0  0  0  0  0
   -2.6311   -1.4602    2.5591 H   0  0  0  0  0  0  0  0  0  0  0  0
   -3.7575   -0.3333    3.3577 H   0  0  0  0  0  0  0  0  0  0  0  0
   -4.4611    0.6418    1.4550 H   0  0  0  0  0  0  0  0  0  0  0  0
    2.7749    2.9115   -0.9961 H   0  0  0  0  0  0  0  0  0  0  0  0
    4.9023    2.0480   -1.7431 H   0  0  0  0  0  0  0  0  0  0  0  0
    1.2908   -1.1078   -0.5499 H   0  0  0  0  0  0  0  0  0  0  0  0
    3.4878   -2.7524   -2.3047 H   0  0  0  0  0  0  0  0  0  0  0  0
    2.3710   -2.7370   -0.9180 H   0  0  0  0  0  0  0  0  0  0  0  0
    4.6227   -3.9395   -0.6804 H   0  0  0  0  0  0  0  0  0  0  0  0
    4.0591   -2.9463    0.7054 H   0  0  0  0  0  0  0  0  0  0  0  0
    4.7041   -0.9163    1.0509 H   0  0  0  0  0  0  0  0  0  0  0  0
    6.1054   -0.1680    0.2015 H   0  0  0  0  0  0  0  0  0  0  0  0
    6.3618   -1.4469    1.4024 H   0  0  0  0  0  0  0  0  0  0  0  0
    7.0969   -1.8788   -1.8287 H   0  0  0  0  0  0  0  0  0  0  0  0
    5.5379   -2.4516   -2.4493 H   0  0  0  0  0  0  0  0  0  0  0  0
    5.6020   -0.2415   -3.1697 H   0  0  0  0  0  0  0  0  0  0  0  0
    6.4147    0.3953   -1.7334 H   0  0  0  0  0  0  0  0  0  0  0  0
    1.0329    3.5660   -0.3866 H   0  0  0  0  0  0  0  0  0  0  0  0
   -3.3118    5.9162    2.2774 H   0  0  0  0  0  0  0  0  0  0  0  0
   -4.6013    5.3277    1.0861 H   0  0  0  0  0  0  0  0  0  0  0  0
   -3.2388    6.4737    0.5894 H   0  0  0  0  0  0  0  0  0  0  0  0
   -3.9311    2.8194    1.3108 H   0  0  0  0  0  0  0  0  0  0  0  0
   -4.6273   -0.4414   -0.7433 H   0  0  0  0  0  0  0  0  0  0  0  0
   -3.3165   -2.2302   -1.1419 H   0  0  0  0  0  0  0  0  0  0  0  0
   -3.0379   -2.5718    0.6381 H   0  0  0  0  0  0  0  0  0  0  0  0
   -4.6195   -4.3033   -0.6573 H   0  0  0  0  0  0  0  0  0  0  0  0
   -6.1187   -1.2880    1.6793 H   0  0  0  0  0  0  0  0  0  0  0  0
   -6.6831   -0.9228    0.0418 H   0  0  0  0  0  0  0  0  0  0  0  0
  1  2  1  0
  2  3  1  0
  3  4  1  0
  4  5  2  0
  5  6  1  0
  6  7  1  0
  7  8  2  0
  8  9  1  0
  9 10  2  0
 10 11  1  0
 11 12  2  0
 11 13  1  0
 13 14  1  0
 14 15  1  0
 15 16  1  0
 15 17  1  0
 17 18  1  0
  6 19  2  0
 19 20  1  0
 20 21  2  0
 21 22  1  0
 22 23  1  0
 22 24  1  0
 24 25  2  0
  2 26  1  0
 26 27  1  0
 27 28  1  0
 28 29  1  0
 29 30  2  0
 29 31  1  0
 25  4  1  0
 31 26  1  0
 12  7  1  0
 25 20  1  0
 18 10  1  0
  1 32  1  0
  1 33  1  0
  1 34  1  0
  2 35  1  1
  8 36  1  0
  9 37  1  0
 12 38  1  0
 13 39  1  0
 13 40  1  0
 14 41  1  0
 14 42  1  0
 16 43  1  0
 16 44  1  0
 16 45  1  0
 17 46  1  0
 17 47  1  0
 18 48  1  0
 18 49  1  0
 19 50  1  0
 23 51  1  0
 23 52  1  0
 23 53  1  0
 24 54  1  0
 26 55  1  6
 27 56  1  0
 27 57  1  0
 28 58  1  0
 31 59  1  0
 31 60  1  0
M  END
$$$$
