@<TRIPOS>MOLECULE
*****
 60 64 0 0 0
SMALL
GASTEIGER

@<TRIPOS>ATOM
      1 C          -3.6626   -1.0371    2.5067 C.3     1  UNL1       -0.0274
      2 C          -3.7942   -0.2142    1.2166 C.3     1  UNL1        0.1037
      3 O          -2.5859    0.1398    0.8058 O.3     1  UNL1       -0.4725
      4 C          -1.6631    1.0239    0.5018 C.ar    1  UNL1        0.2265
      5 N          -0.4117    0.6238    0.0646 N.ar    1  UNL1       -0.2122
      6 C           0.5489    1.4659   -0.2530 C.ar    1  UNL1        0.0769
      7 C           1.8612    0.9722   -0.7129 C.ar    1  UNL1        0.0008
      8 C           2.8676    1.8290   -1.0458 C.ar    1  UNL1       -0.0523
      9 C           4.1000    1.3622   -1.4780 C.ar    1  UNL1       -0.0577
     10 C           4.2903    0.0143   -1.5653 C.ar    1  UNL1       -0.0429
     11 C           3.2923   -0.8783   -1.2358 C.ar    1  UNL1       -0.0423
     12 C           2.0777   -0.3831   -0.8093 C.ar    1  UNL1       -0.0491
     13 C           3.3506   -2.3605   -1.2793 C.3     1  UNL1       -0.0146
     14 C           4.3976   -2.9107   -0.3404 C.3     1  UNL1        0.0026
     15 N           5.6329   -2.1696   -0.3960 N.3     1  UNL1       -0.3047
     16 C           5.7006   -1.1120    0.5740 C.3     1  UNL1       -0.0127
     17 C           5.9796   -1.7527   -1.7313 C.3     1  UNL1        0.0026
     18 C           5.6635   -0.3304   -2.0452 C.3     1  UNL1       -0.0146
     19 C           0.2975    2.8135   -0.1454 C.ar    1  UNL1       -0.0077
     20 C          -0.9280    3.3005    0.2841 C.ar    1  UNL1        0.0999
     21 N          -1.4205    4.5375    0.4729 N.ar    1  UNL1       -0.1712
     22 N          -2.6615    4.5057    0.8997 N.ar    1  UNL1       -0.2732
     23 C          -3.5591    5.6093    1.2259 C.3     1  UNL1        0.0302
     24 C          -2.9832    3.1798    0.9898 C.ar    1  UNL1        0.0380
     25 C          -1.9127    2.3972    0.6091 C.ar    1  UNL1        0.0812
     26 C          -4.5394   -1.0545    0.1696 C.3     1  UNL1        0.0196
     27 C          -3.8089   -2.3189   -0.1387 C.3     1  UNL1        0.0182
     28 N          -4.7948   -3.3642   -0.2659 N.am    1  UNL1       -0.3149
     29 C          -6.0375   -2.9002    0.2296 C.2     1  UNL1        0.2135
     30 O          -7.0715   -3.6090    0.3022 O.2     1  UNL1       -0.2758
     31 C          -5.8916   -1.4720    0.6316 C.3     1  UNL1        0.0315
     32 H          -4.3631   -1.8696    2.5409 H       1  UNL1        0.0265
     33 H          -2.6311   -1.4602    2.5591 H       1  UNL1        0.0265
     34 H          -3.7575   -0.3333    3.3577 H       1  UNL1        0.0265
     35 H          -4.4611    0.6418    1.4550 H       1  UNL1        0.0734
     36 H           2.7749    2.9115   -0.9961 H       1  UNL1        0.0624
     37 H           4.9023    2.0480   -1.7431 H       1  UNL1        0.0621
     38 H           1.2908   -1.1078   -0.5499 H       1  UNL1        0.0627
     39 H           3.4878   -2.7524   -2.3047 H       1  UNL1        0.0326
     40 H           2.3710   -2.7370   -0.9180 H       1  UNL1        0.0326
     41 H           4.6227   -3.9395   -0.6804 H       1  UNL1        0.0430
     42 H           4.0591   -2.9463    0.7054 H       1  UNL1        0.0430
     43 H           4.7041   -0.9163    1.0509 H       1  UNL1        0.0391
     44 H           6.1054   -0.1680    0.2015 H       1  UNL1        0.0391
     45 H           6.3618   -1.4469    1.4024 H       1  UNL1        0.0391
     46 H           7.0969   -1.8788   -1.8287 H       1  UNL1        0.0430
     47 H           5.5379   -2.4516   -2.4493 H       1  UNL1        0.0430
     48 H           5.6020   -0.2415   -3.1697 H       1  UNL1        0.0326
     49 H           6.4147    0.3953   -1.7334 H       1  UNL1        0.0326
     50 H           1.0329    3.5660   -0.3866 H       1  UNL1        0.0661
     51 H          -3.3118    5.9162    2.2774 H       1  UNL1        0.0473
     52 H          -4.6013    5.3277    1.0861 H       1  UNL1        0.0473
     53 H          -3.2388    6.4737    0.5894 H       1  UNL1        0.0473
     54 H          -3.9311    2.8194    1.3108 H       1  UNL1        0.0834
     55 H          -4.6273   -0.4414   -0.7433 H       1  UNL1        0.0356
     56 H          -3.3165   -2.2302   -1.1419 H       1  UNL1        0.0466
     57 H          -3.0379   -2.5718    0.6381 H       1  UNL1        0.0466
     58 H          -4.6195   -4.3033   -0.6573 H       1  UNL1        0.1487
     59 H          -6.1187   -1.2880    1.6793 H       1  UNL1        0.0363
     60 H          -6.6831   -0.9228    0.0418 H       1  UNL1        0.0363
@<TRIPOS>BOND
     1     1     2    1
     2     2     3    1
     3     3     4    1
     4     4     5   ar
     5     5     6   ar
     6     6     7    1
     7     7     8   ar
     8     8     9   ar
     9     9    10   ar
    10    10    11   ar
    11    11    12   ar
    12    11    13    1
    13    13    14    1
    14    14    15    1
    15    15    16    1
    16    15    17    1
    17    17    18    1
    18     6    19   ar
    19    19    20   ar
    20    20    21   ar
    21    21    22   ar
    22    22    23    1
    23    22    24   ar
    24    24    25   ar
    25     2    26    1
    26    26    27    1
    27    27    28    1
    28    28    29   am
    29    29    30    2
    30    29    31    1
    31    25     4   ar
    32    31    26    1
    33    12     7   ar
    34    25    20   ar
    35    18    10    1
    36     1    32    1
    37     1    33    1
    38     1    34    1
    39     2    35    1
    40     8    36    1
    41     9    37    1
    42    12    38    1
    43    13    39    1
    44    13    40    1
    45    14    41    1
    46    14    42    1
    47    16    43    1
    48    16    44    1
    49    16    45    1
    50    17    46    1
    51    17    47    1
    52    18    48    1
    53    18    49    1
    54    19    50    1
    55    23    51    1
    56    23    52    1
    57    23    53    1
    58    24    54    1
    59    26    55    1
    60    27    56    1
    61    27    57    1
    62    28    58    1
    63    31    59    1
    64    31    60    1
