
     RDKit          3D

 23 23  0  0  0  0  0  0  0  0999 V2000
    2.0268    0.4429   -0.1965 C   0  0  1  0  0  0  0  0  0  0  0  0
    1.9638   -0.7906   -0.9541 N   0  0  0  0  0  0  0  0  0  0  0  0
    1.0488    0.3269    0.9582 C   0  0  0  0  0  0  0  0  0  0  0  0
   -0.3299    0.1162    0.4483 C   0  0  0  0  0  0  0  0  0  0  0  0
   -0.8570   -1.1365    0.2172 C   0  0  0  0  0  0  0  0  0  0  0  0
   -2.1363   -1.3620   -0.2569 C   0  0  0  0  0  0  0  0  0  0  0  0
   -2.9321   -0.2423   -0.5131 C   0  0  0  0  0  0  0  0  0  0  0  0
   -4.2395   -0.4202   -0.9960 O   0  0  0  0  0  0  0  0  0  0  0  0
   -2.4297    1.0272   -0.2905 C   0  0  0  0  0  0  0  0  0  0  0  0
   -1.1337    1.2119    0.1884 C   0  0  0  0  0  0  0  0  0  0  0  0
    3.4222    0.6095    0.2899 C   0  0  0  0  0  0  0  0  0  0  0  0
    4.3985   -0.1327    0.1150 O   0  0  0  0  0  0  0  0  0  0  0  0
    1.7968    1.2910   -0.8529 H   0  0  0  0  0  0  0  0  0  0  0  0
    2.8768   -0.8376   -1.4892 H   0  0  0  0  0  0  0  0  0  0  0  0
    1.9916   -1.5833   -0.2731 H   0  0  0  0  0  0  0  0  0  0  0  0
    1.0840    1.2919    1.5134 H   0  0  0  0  0  0  0  0  0  0  0  0
    1.3773   -0.4377    1.6895 H   0  0  0  0  0  0  0  0  0  0  0  0
   -0.2732   -2.0101    0.4035 H   0  0  0  0  0  0  0  0  0  0  0  0
   -2.5286   -2.3585   -0.4308 H   0  0  0  0  0  0  0  0  0  0  0  0
   -4.9674   -0.5452   -0.2793 H   0  0  0  0  0  0  0  0  0  0  0  0
   -3.0965    1.8696   -0.5082 H   0  0  0  0  0  0  0  0  0  0  0  0
   -0.8309    2.2245    0.3301 H   0  0  0  0  0  0  0  0  0  0  0  0
    3.7684    1.4452    0.8872 H   0  0  0  0  0  0  0  0  0  0  0  0
  1  2  1  0
  1  3  1  0
  3  4  1  0
  4  5  2  0
  5  6  1  0
  6  7  2  0
  7  8  1  0
  7  9  1  0
  9 10  2  0
  1 11  1  0
 11 12  2  0
 10  4  1  0
  1 13  1  6
  2 14  1  0
  2 15  1  0
  3 16  1  0
  3 17  1  0
  5 18  1  0
  6 19  1  0
  8 20  1  0
  9 21  1  0
 10 22  1  0
 11 23  1  0
M  END
$$$$
