@<TRIPOS>MOLECULE
*****
 23 23 0 0 0
SMALL
GASTEIGER

@<TRIPOS>ATOM
      1 CA          2.0268    0.4429   -0.1965 C.3     1  TYR1        0.0650
      2 N           1.9638   -0.7906   -0.9541 N.3     1  TYR1       -0.3213
      3 CB          1.0488    0.3269    0.9582 C.3     1  TYR1       -0.0058
      4 CG         -0.3299    0.1162    0.4483 C.ar    1  TYR1       -0.0453
      5 CD1        -0.8570   -1.1365    0.2172 C.ar    1  TYR1       -0.0551
      6 CE1        -2.1363   -1.3620   -0.2569 C.ar    1  TYR1       -0.0199
      7 CZ         -2.9321   -0.2423   -0.5131 C.ar    1  TYR1        0.1169
      8 OH         -4.2395   -0.4202   -0.9960 O.3     1  TYR1       -0.5068
      9 CE2        -2.4297    1.0272   -0.2905 C.ar    1  TYR1       -0.0199
     10 CD2        -1.1337    1.2119    0.1884 C.ar    1  TYR1       -0.0551
     11 C           3.4222    0.6095    0.2899 C.2     1  TYR1        0.1372
     12 O           4.3985   -0.1327    0.1150 O.2     1  TYR1       -0.2994
     13 HA          1.7968    1.2910   -0.8529 H       1  TYR1        0.0537
     14 H1          2.8768   -0.8376   -1.4892 H       1  TYR1        0.1189
     15 H2          1.9916   -1.5833   -0.2731 H       1  TYR1        0.1189
     16 HB1         1.0840    1.2919    1.5134 H       1  TYR1        0.0332
     17 HB2         1.3773   -0.4377    1.6895 H       1  TYR1        0.0332
     18 HD1        -0.2732   -2.0101    0.4035 H       1  TYR1        0.0621
     19 HE1        -2.5286   -2.3585   -0.4308 H       1  TYR1        0.0654
     20 HH         -4.9674   -0.5452   -0.2793 H       1  TYR1        0.2921
     21 HE2        -3.0965    1.8696   -0.5082 H       1  TYR1        0.0654
     22 HD2        -0.8309    2.2245    0.3301 H       1  TYR1        0.0621
     23 H           3.7684    1.4452    0.8872 H       1  TYR1        0.1043
@<TRIPOS>BOND
     1     1     2    1
     2     1     3    1
     3     3     4    1
     4     4     5   ar
     5     5     6   ar
     6     6     7   ar
     7     7     8    1
     8     7     9   ar
     9     9    10   ar
    10     1    11    1
    11    11    12    2
    12    10     4   ar
    13     1    13    1
    14     2    14    1
    15     2    15    1
    16     3    16    1
    17     3    17    1
    18     5    18    1
    19     6    19    1
    20     8    20    1
    21     9    21    1
    22    10    22    1
    23    11    23    1
