@<TRIPOS>MOLECULE
*****
 63 66 0 0 0
SMALL
GASTEIGER

@<TRIPOS>ATOM
      1 C           2.8995    3.4999   -0.1250 C.3     1  UNL1       -0.0584
      2 C           4.0259    2.8395   -0.8655 C.3     1  UNL1        0.0028
      3 C           4.1367    1.4378   -0.3905 C.ar    1  UNL1        0.1119
      4 N           4.9154    1.0904    0.6609 N.ar    1  UNL1       -0.2304
      5 C           4.8328   -0.2368    0.8696 C.ar    1  UNL1        0.1111
      6 C           5.4143   -1.0820    1.7925 C.ar    1  UNL1       -0.0198
      7 C           6.3463   -0.5802    2.8355 C.3     1  UNL1       -0.0375
      8 C           5.1392   -2.4295    1.7662 C.ar    1  UNL1       -0.0356
      9 C           4.2612   -2.8875    0.7801 C.ar    1  UNL1        0.0409
     10 C           3.9743   -4.3489    0.7661 C.3     1  UNL1       -0.0223
     11 N           3.7230   -2.0335   -0.0908 N.ar    1  UNL1       -0.2326
     12 C           3.9610   -0.7099   -0.1051 C.ar    1  UNL1        0.1612
     13 N           3.5438    0.3324   -0.8698 N.ar    1  UNL1       -0.3081
     14 C           2.6400    0.2081   -1.9793 C.3     1  UNL1        0.0513
     15 C           1.2152    0.3367   -1.6388 C.ar    1  UNL1       -0.0273
     16 C           0.4645   -0.7288   -1.1946 C.ar    1  UNL1       -0.0551
     17 C          -0.8943   -0.5782   -0.8840 C.ar    1  UNL1       -0.0403
     18 C          -1.5005    0.6476   -1.0208 C.ar    1  UNL1        0.0309
     19 N          -2.8830    0.8253   -0.6987 N.pl3   1  UNL1       -0.3277
     20 CA         -3.7022   -0.2677   -0.2432 C.3     1  UNL1        0.1442
     21 C          -3.9244   -1.2788   -1.2708 C.2     1  UNL1        0.3298
     22 O          -3.3347   -1.0569   -2.4072 O.2     1  UNL1       -0.2485
     23 OXT        -4.6530   -2.4257   -1.2444 O.3     1  UNL1       -0.4791
     24 C          -4.9064    0.0648    0.4973 C.ar    1  UNL1       -0.0137
     25 C          -5.4506    1.3492    0.3948 C.ar    1  UNL1       -0.0560
     26 C          -6.6310    1.6855    1.0101 C.ar    1  UNL1       -0.0614
     27 C          -7.2958    0.7304    1.7479 C.ar    1  UNL1       -0.0615
     28 C          -6.7579   -0.5300    1.8476 C.ar    1  UNL1       -0.0585
     29 C          -5.5598   -0.8979    1.2340 C.ar    1  UNL1       -0.0450
     30 C          -5.0446   -2.2753    1.4884 C.3     1  UNL1       -0.0394
     31 C          -0.7656    1.7062   -1.4593 C.ar    1  UNL1       -0.0293
     32 C          -1.3949    3.0546   -1.6190 C.3     1  UNL1       -0.0380
     33 C           0.5907    1.5556   -1.7692 C.ar    1  UNL1       -0.0522
     34 H           2.2466    2.7315    0.2953 H       1  UNL1        0.0234
     35 H           2.3591    4.2028   -0.8064 H       1  UNL1        0.0234
     36 H           3.3234    4.1693    0.6792 H       1  UNL1        0.0234
     37 H           4.9656    3.4141   -0.6630 H       1  UNL1        0.0340
     38 H           3.8907    2.8828   -1.9655 H       1  UNL1        0.0340
     39 H           6.4502   -1.2922    3.6571 H       1  UNL1        0.0278
     40 H           7.3202   -0.3759    2.3155 H       1  UNL1        0.0278
     41 H           5.9676    0.4195    3.1674 H       1  UNL1        0.0278
     42 H           5.5751   -3.1205    2.4715 H       1  UNL1        0.0639
     43 H           3.0160   -4.5739    0.2567 H       1  UNL1        0.0292
     44 H           3.9779   -4.6995    1.8182 H       1  UNL1        0.0292
     45 H           4.8182   -4.8675    0.2283 H       1  UNL1        0.0292
     46 H           2.7724   -0.7703   -2.5203 H       1  UNL1        0.0542
     47 H           2.9582    0.9743   -2.7450 H       1  UNL1        0.0542
     48 H           0.9182   -1.7192   -1.0752 H       1  UNL1        0.0621
     49 H          -1.4216   -1.4530   -0.5347 H       1  UNL1        0.0636
     50 H          -3.2500    1.7837   -0.8186 H       1  UNL1        0.1472
     51 HA         -3.0015   -0.7654    0.5547 H       1  UNL1        0.0665
     52 HXT        -4.2948   -3.3116   -1.5790 H       1  UNL1        0.2951
     53 H          -4.9832    2.1355   -0.1683 H       1  UNL1        0.0621
     54 H          -7.0503    2.6916    0.9257 H       1  UNL1        0.0618
     55 H          -8.2333    0.9663    2.2459 H       1  UNL1        0.0618
     56 H          -7.2721   -1.2717    2.4191 H       1  UNL1        0.0620
     57 H          -5.1159   -2.3761    2.6337 H       1  UNL1        0.0278
     58 H          -3.9826   -2.4024    1.2915 H       1  UNL1        0.0278
     59 H          -5.7366   -3.0176    1.0761 H       1  UNL1        0.0278
     60 H          -1.7531    3.4610   -0.6491 H       1  UNL1        0.0278
     61 H          -0.6875    3.7495   -2.0820 H       1  UNL1        0.0278
     62 H          -2.2643    2.9712   -2.3106 H       1  UNL1        0.0278
     63 H           1.1022    2.4473   -2.1149 H       1  UNL1        0.0624
@<TRIPOS>BOND
     1     1     2    1
     2     2     3    1
     3     3     4   ar
     4     4     5   ar
     5     5     6   ar
     6     6     7    1
     7     6     8   ar
     8     8     9   ar
     9     9    10    1
    10     9    11   ar
    11    11    12   ar
    12    12    13   ar
    13    13    14    1
    14    14    15    1
    15    15    16   ar
    16    16    17   ar
    17    17    18   ar
    18    18    19    1
    19    19    20    1
    20    20    21    1
    21    21    22    2
    22    21    23    1
    23    20    24    1
    24    24    25   ar
    25    25    26   ar
    26    26    27   ar
    27    27    28   ar
    28    28    29   ar
    29    29    30    1
    30    18    31   ar
    31    31    32    1
    32    31    33   ar
    33    13     3   ar
    34    33    15   ar
    35    12     5   ar
    36    29    24   ar
    37     1    34    1
    38     1    35    1
    39     1    36    1
    40     2    37    1
    41     2    38    1
    42     7    39    1
    43     7    40    1
    44     7    41    1
    45     8    42    1
    46    10    43    1
    47    10    44    1
    48    10    45    1
    49    14    46    1
    50    14    47    1
    51    16    48    1
    52    17    49    1
    53    19    50    1
    54    20    51    1
    55    23    52    1
    56    25    53    1
    57    26    54    1
    58    27    55    1
    59    28    56    1
    60    30    57    1
    61    30    58    1
    62    30    59    1
    63    32    60    1
    64    32    61    1
    65    32    62    1
    66    33    63    1
