
     RDKit          3D

 63 66  0  0  0  0  0  0  0  0999 V2000
    2.8995    3.4999   -0.1250 C   0  0  0  0  0  0  0  0  0  0  0  0
    4.0259    2.8395   -0.8655 C   0  0  0  0  0  0  0  0  0  0  0  0
    4.1367    1.4378   -0.3905 C   0  0  0  0  0  0  0  0  0  0  0  0
    4.9154    1.0904    0.6609 N   0  0  0  0  0  0  0  0  0  0  0  0
    4.8328   -0.2368    0.8696 C   0  0  0  0  0  0  0  0  0  0  0  0
    5.4143   -1.0820    1.7925 C   0  0  0  0  0  0  0  0  0  0  0  0
    6.3463   -0.5802    2.8355 C   0  0  0  0  0  0  0  0  0  0  0  0
    5.1392   -2.4295    1.7662 C   0  0  0  0  0  0  0  0  0  0  0  0
    4.2612   -2.8875    0.7801 C   0  0  0  0  0  0  0  0  0  0  0  0
    3.9743   -4.3489    0.7661 C   0  0  0  0  0  0  0  0  0  0  0  0
    3.7230   -2.0335   -0.0908 N   0  0  0  0  0  0  0  0  0  0  0  0
    3.9610   -0.7099   -0.1051 C   0  0  0  0  0  0  0  0  0  0  0  0
    3.5438    0.3324   -0.8698 N   0  0  0  0  0  0  0  0  0  0  0  0
    2.6400    0.2081   -1.9793 C   0  0  0  0  0  0  0  0  0  0  0  0
    1.2152    0.3367   -1.6388 C   0  0  0  0  0  0  0  0  0  0  0  0
    0.4645   -0.7288   -1.1946 C   0  0  0  0  0  0  0  0  0  0  0  0
   -0.8943   -0.5782   -0.8840 C   0  0  0  0  0  0  0  0  0  0  0  0
   -1.5005    0.6476   -1.0208 C   0  0  0  0  0  0  0  0  0  0  0  0
   -2.8830    0.8253   -0.6987 N   0  0  0  0  0  0  0  0  0  0  0  0
   -3.7022   -0.2677   -0.2432 C   0  0  0  0  0  0  0  0  0  0  0  0
   -3.9244   -1.2788   -1.2708 C   0  0  0  0  0  0  0  0  0  0  0  0
   -3.3347   -1.0569   -2.4072 O   0  0  0  0  0  0  0  0  0  0  0  0
   -4.6530   -2.4257   -1.2444 O   0  0  0  0  0  0  0  0  0  0  0  0
   -4.9064    0.0648    0.4973 C   0  0  0  0  0  0  0  0  0  0  0  0
   -5.4506    1.3492    0.3948 C   0  0  0  0  0  0  0  0  0  0  0  0
   -6.6310    1.6855    1.0101 C   0  0  0  0  0  0  0  0  0  0  0  0
   -7.2958    0.7304    1.7479 C   0  0  0  0  0  0  0  0  0  0  0  0
   -6.7579   -0.5300    1.8476 C   0  0  0  0  0  0  0  0  0  0  0  0
   -5.5598   -0.8979    1.2340 C   0  0  0  0  0  0  0  0  0  0  0  0
   -5.0446   -2.2753    1.4884 C   0  0  0  0  0  0  0  0  0  0  0  0
   -0.7656    1.7062   -1.4593 C   0  0  0  0  0  0  0  0  0  0  0  0
   -1.3949    3.0546   -1.6190 C   0  0  0  0  0  0  0  0  0  0  0  0
    0.5907    1.5556   -1.7692 C   0  0  0  0  0  0  0  0  0  0  0  0
    2.2466    2.7315    0.2953 H   0  0  0  0  0  0  0  0  0  0  0  0
    2.3591    4.2028   -0.8064 H   0  0  0  0  0  0  0  0  0  0  0  0
    3.3234    4.1693    0.6792 H   0  0  0  0  0  0  0  0  0  0  0  0
    4.9656    3.4141   -0.6630 H   0  0  0  0  0  0  0  0  0  0  0  0
    3.8907    2.8828   -1.9655 H   0  0  0  0  0  0  0  0  0  0  0  0
    6.4502   -1.2922    3.6571 H   0  0  0  0  0  0  0  0  0  0  0  0
    7.3202   -0.3759    2.3155 H   0  0  0  0  0  0  0  0  0  0  0  0
    5.9676    0.4195    3.1674 H   0  0  0  0  0  0  0  0  0  0  0  0
    5.5751   -3.1205    2.4715 H   0  0  0  0  0  0  0  0  0  0  0  0
    3.0160   -4.5739    0.2567 H   0  0  0  0  0  0  0  0  0  0  0  0
    3.9779   -4.6995    1.8182 H   0  0  0  0  0  0  0  0  0  0  0  0
    4.8182   -4.8675    0.2283 H   0  0  0  0  0  0  0  0  0  0  0  0
    2.7724   -0.7703   -2.5203 H   0  0  0  0  0  0  0  0  0  0  0  0
    2.9582    0.9743   -2.7450 H   0  0  0  0  0  0  0  0  0  0  0  0
    0.9182   -1.7192   -1.0752 H   0  0  0  0  0  0  0  0  0  0  0  0
   -1.4216   -1.4530   -0.5347 H   0  0  0  0  0  0  0  0  0  0  0  0
   -3.2500    1.7837   -0.8186 H   0  0  0  0  0  0  0  0  0  0  0  0
   -3.0015   -0.7654    0.5547 H   0  0  0  0  0  0  0  0  0  0  0  0
   -4.2948   -3.3116   -1.5790 H   0  0  0  0  0  0  0  0  0  0  0  0
   -4.9832    2.1355   -0.1683 H   0  0  0  0  0  0  0  0  0  0  0  0
   -7.0503    2.6916    0.9257 H   0  0  0  0  0  0  0  0  0  0  0  0
   -8.2333    0.9663    2.2459 H   0  0  0  0  0  0  0  0  0  0  0  0
   -7.2721   -1.2717    2.4191 H   0  0  0  0  0  0  0  0  0  0  0  0
   -5.1159   -2.3761    2.6337 H   0  0  0  0  0  0  0  0  0  0  0  0
   -3.9826   -2.4024    1.2915 H   0  0  0  0  0  0  0  0  0  0  0  0
   -5.7366   -3.0176    1.0761 H   0  0  0  0  0  0  0  0  0  0  0  0
   -1.7531    3.4610   -0.6491 H   0  0  0  0  0  0  0  0  0  0  0  0
   -0.6875    3.7495   -2.0820 H   0  0  0  0  0  0  0  0  0  0  0  0
   -2.2643    2.9712   -2.3106 H   0  0  0  0  0  0  0  0  0  0  0  0
    1.1022    2.4473   -2.1149 H   0  0  0  0  0  0  0  0  0  0  0  0
  1  2  1  0
  2  3  1  0
  3  4  2  0
  4  5  1  0
  5  6  2  0
  6  7  1  0
  6  8  1  0
  8  9  2  0
  9 10  1  0
  9 11  1  0
 11 12  2  0
 12 13  1  0
 13 14  1  0
 14 15  1  0
 15 16  2  0
 16 17  1  0
 17 18  2  0
 18 19  1  0
 19 20  1  0
 20 21  1  0
 21 22  2  0
 21 23  1  0
 20 24  1  0
 24 25  2  0
 25 26  1  0
 26 27  2  0
 27 28  1  0
 28 29  2  0
 29 30  1  0
 18 31  1  0
 31 32  1  0
 31 33  2  0
 13  3  1  0
 33 15  1  0
 12  5  1  0
 29 24  1  0
  1 34  1  0
  1 35  1  0
  1 36  1  0
  2 37  1  0
  2 38  1  0
  7 39  1  0
  7 40  1  0
  7 41  1  0
  8 42  1  0
 10 43  1  0
 10 44  1  0
 10 45  1  0
 14 46  1  0
 14 47  1  0
 16 48  1  0
 17 49  1  0
 19 50  1  0
 20 51  1  0
 23 52  1  0
 25 53  1  0
 26 54  1  0
 27 55  1  0
 28 56  1  0
 30 57  1  0
 30 58  1  0
 30 59  1  0
 32 60  1  0
 32 61  1  0
 32 62  1  0
 33 63  1  0
M  END
$$$$
