
     RDKit          3D

 71 73  0  0  0  0  0  0  0  0999 V2000
   -4.0272   -4.4683    0.2606 C   0  0  0  0  0  0  0  0  0  0  0  0
   -3.6227   -3.1707   -0.4036 C   0  0  2  0  0  0  0  0  0  0  0  0
   -4.6512   -2.1118   -0.0578 C   0  0  0  0  0  0  0  0  0  0  0  0
   -4.0242   -0.7427   -0.3602 C   0  0  0  0  0  0  0  0  0  0  0  0
   -3.1504   -0.9294   -1.5340 N   0  0  0  0  0  0  0  0  0  0  0  0
   -3.5983   -1.9164   -2.4926 C   0  0  2  0  0  0  0  0  0  0  0  0
   -3.3875   -3.2822   -1.8729 C   0  0  0  0  0  0  0  0  0  0  0  0
   -3.0075   -1.8023   -3.8249 C   0  0  0  0  0  0  0  0  0  0  0  0
   -2.3927   -1.6118   -5.0523 O   0  0  0  0  0  0  0  0  0  0  0  0
   -3.5336   -2.7457   -4.5084 O   0  0  0  0  0  0  0  0  0  0  0  0
   -1.9266   -0.3230   -1.9205 C   0  0  0  0  0  0  0  0  0  0  0  0
   -1.0850   -0.3694   -2.8521 O   0  0  0  0  0  0  0  0  0  0  0  0
   -1.1451    0.8048   -1.1024 C   0  0  2  0  0  0  0  0  0  0  0  0
   -2.0847    1.9357   -1.0581 C   0  0  0  0  0  0  0  0  0  0  0  0
   -1.6173    3.0952   -0.2577 C   0  0  0  0  0  0  0  0  0  0  0  0
   -1.5623    2.6144    1.2024 C   0  0  0  0  0  0  0  0  0  0  0  0
   -1.0920    3.6706    2.0691 N   0  0  0  0  0  0  0  0  0  0  0  0
   -1.0119    3.3218    3.4615 C   0  0  0  0  0  0  0  0  0  0  0  0
   -0.8389    4.3274    4.4392 N   0  0  0  0  0  0  0  0  0  0  0  0
   -1.0960    2.0943    3.8502 N   0  0  0  0  0  0  0  0  0  0  0  0
    0.0137    1.0312   -1.8967 N   0  0  0  0  0  0  0  0  0  0  0  0
    1.4932    0.3927   -1.5205 S   0  0  0  0  0  0  0  0  0  0  0  0
    2.4681    0.7995   -2.6408 O   0  0  0  0  0  0  0  0  0  0  0  0
    1.4248   -1.1371   -1.6116 O   0  0  0  0  0  0  0  0  0  0  0  0
    2.2324    0.8818   -0.0539 C   0  0  0  0  0  0  0  0  0  0  0  0
    1.9725    1.8165    0.9037 C   0  0  0  0  0  0  0  0  0  0  0  0
    2.6802    2.1103    2.0420 C   0  0  0  0  0  0  0  0  0  0  0  0
    3.8225    1.3505    2.2483 C   0  0  0  0  0  0  0  0  0  0  0  0
    4.1882    0.3668    1.3338 C   0  0  0  0  0  0  0  0  0  0  0  0
    3.4036    0.1398    0.2023 C   0  0  0  0  0  0  0  0  0  0  0  0
    3.9426   -0.8774   -0.6185 N   0  0  0  0  0  0  0  0  0  0  0  0
    4.8654   -1.8820   -0.0730 C   0  0  0  0  0  0  0  0  0  0  0  0
    5.9824   -1.1908    0.6862 C   0  0  0  0  0  0  0  0  0  0  0  0
    6.8285   -0.3423   -0.2643 C   0  0  0  0  0  0  0  0  0  0  0  0
    5.4265   -0.3005    1.7704 C   0  0  0  0  0  0  0  0  0  0  0  0
   -5.0450   -4.4195    0.6968 H   0  0  0  0  0  0  0  0  0  0  0  0
   -3.9809   -5.3157   -0.4465 H   0  0  0  0  0  0  0  0  0  0  0  0
   -3.3149   -4.6587    1.1122 H   0  0  0  0  0  0  0  0  0  0  0  0
   -2.6622   -2.7848    0.0474 H   0  0  0  0  0  0  0  0  0  0  0  0
   -4.8266   -2.1652    1.0307 H   0  0  0  0  0  0  0  0  0  0  0  0
   -5.6203   -2.2532   -0.5446 H   0  0  0  0  0  0  0  0  0  0  0  0
   -3.4026   -0.5152    0.5133 H   0  0  0  0  0  0  0  0  0  0  0  0
   -4.8350   -0.0252   -0.5573 H   0  0  0  0  0  0  0  0  0  0  0  0
   -4.7031   -1.7717   -2.5784 H   0  0  0  0  0  0  0  0  0  0  0  0
   -2.3634   -3.6608   -2.0988 H   0  0  0  0  0  0  0  0  0  0  0  0
   -4.1038   -3.9765   -2.3139 H   0  0  0  0  0  0  0  0  0  0  0  0
   -1.4008   -1.7598   -5.1840 H   0  0  0  0  0  0  0  0  0  0  0  0
   -0.9402    0.3053   -0.1839 H   0  0  0  0  0  0  0  0  0  0  0  0
   -2.2866    2.2586   -2.1248 H   0  0  0  0  0  0  0  0  0  0  0  0
   -3.0423    1.5563   -0.6120 H   0  0  0  0  0  0  0  0  0  0  0  0
   -2.3646    3.9244   -0.3102 H   0  0  0  0  0  0  0  0  0  0  0  0
   -0.6287    3.4663   -0.5534 H   0  0  0  0  0  0  0  0  0  0  0  0
   -1.0144    1.6858    1.2893 H   0  0  0  0  0  0  0  0  0  0  0  0
   -2.6204    2.4105    1.5418 H   0  0  0  0  0  0  0  0  0  0  0  0
   -0.8262    4.6245    1.7187 H   0  0  0  0  0  0  0  0  0  0  0  0
   -1.0336    5.0200    5.1831 H   0  0  0  0  0  0  0  0  0  0  0  0
    0.1055    4.7030    4.6009 H   0  0  0  0  0  0  0  0  0  0  0  0
   -1.0393    1.8336    4.8547 H   0  0  0  0  0  0  0  0  0  0  0  0
   -0.0330    1.8020   -2.5836 H   0  0  0  0  0  0  0  0  0  0  0  0
    1.1061    2.3602    0.6304 H   0  0  0  0  0  0  0  0  0  0  0  0
    2.2810    2.8961    2.6573 H   0  0  0  0  0  0  0  0  0  0  0  0
    4.3470    1.6230    3.1658 H   0  0  0  0  0  0  0  0  0  0  0  0
    3.6794   -0.9034   -1.6166 H   0  0  0  0  0  0  0  0  0  0  0  0
    4.3257   -2.5407    0.6145 H   0  0  0  0  0  0  0  0  0  0  0  0
    5.3234   -2.4452   -0.8988 H   0  0  0  0  0  0  0  0  0  0  0  0
    6.6083   -1.9699    1.1454 H   0  0  0  0  0  0  0  0  0  0  0  0
    7.6790   -0.9266   -0.6257 H   0  0  0  0  0  0  0  0  0  0  0  0
    7.1835    0.5718    0.2966 H   0  0  0  0  0  0  0  0  0  0  0  0
    6.1653    0.0243   -1.0606 H   0  0  0  0  0  0  0  0  0  0  0  0
    5.1886   -0.9550    2.6387 H   0  0  0  0  0  0  0  0  0  0  0  0
    6.2053    0.4324    2.0627 H   0  0  0  0  0  0  0  0  0  0  0  0
  1  2  1  0
  2  3  1  0
  3  4  1  0
  4  5  1  0
  5  6  1  0
  6  7  1  0
  6  8  1  0
  8  9  1  0
  8 10  2  0
  5 11  1  0
 11 12  2  0
 11 13  1  0
 13 14  1  0
 14 15  1  0
 15 16  1  0
 16 17  1  0
 17 18  1  0
 18 19  1  0
 18 20  2  3
 13 21  1  0
 21 22  1  0
 22 23  2  0
 22 24  2  0
 22 25  1  0
 25 26  2  0
 26 27  1  0
 27 28  2  0
 28 29  1  0
 29 30  2  0
 30 31  1  0
 31 32  1  0
 32 33  1  0
 33 34  1  0
 33 35  1  0
  7  2  1  0
 30 25  1  0
 35 29  1  0
  1 36  1  0
  1 37  1  0
  1 38  1  0
  2 39  1  1
  3 40  1  0
  3 41  1  0
  4 42  1  0
  4 43  1  0
  6 44  1  6
  7 45  1  0
  7 46  1  0
  9 47  1  0
 13 48  1  1
 14 49  1  0
 14 50  1  0
 15 51  1  0
 15 52  1  0
 16 53  1  0
 16 54  1  0
 17 55  1  0
 19 56  1  0
 19 57  1  0
 20 58  1  0
 21 59  1  0
 26 60  1  0
 27 61  1  0
 28 62  1  0
 31 63  1  0
 32 64  1  0
 32 65  1  0
 33 66  1  0
 34 67  1  0
 34 68  1  0
 34 69  1  0
 35 70  1  0
 35 71  1  0
M  END
$$$$
