@<TRIPOS>MOLECULE
*****
 71 73 0 0 0
SMALL
GASTEIGER

@<TRIPOS>ATOM
      1 C          -4.0272   -4.4683    0.2606 C.3     1  UNL1       -0.0623
      2 C          -3.6227   -3.1707   -0.4036 C.3     1  UNL1       -0.0403
      3 C          -4.6512   -2.1118   -0.0578 C.3     1  UNL1       -0.0345
      4 C          -4.0242   -0.7427   -0.3602 C.3     1  UNL1        0.0158
      5 N          -3.1504   -0.9294   -1.5340 N.am    1  UNL1       -0.2867
      6 C          -3.5983   -1.9164   -2.4926 C.3     1  UNL1        0.1230
      7 C          -3.3875   -3.2822   -1.8729 C.3     1  UNL1       -0.0213
      8 C          -3.0075   -1.8023   -3.8249 C.2     1  UNL1        0.3255
      9 O          -2.3927   -1.6118   -5.0523 O.3     1  UNL1       -0.4793
     10 O          -3.5336   -2.7457   -4.5084 O.2     1  UNL1       -0.2489
     11 C          -1.9266   -0.3230   -1.9205 C.2     1  UNL1        0.2349
     12 O          -1.0850   -0.3694   -2.8521 O.2     1  UNL1       -0.2738
     13 C          -1.1451    0.8048   -1.1024 C.3     1  UNL1        0.1051
     14 C          -2.0847    1.9357   -1.0581 C.3     1  UNL1       -0.0246
     15 C          -1.6173    3.0952   -0.2577 C.3     1  UNL1       -0.0203
     16 C          -1.5623    2.6144    1.2024 C.3     1  UNL1        0.0647
     17 N          -1.0920    3.6706    2.0691 N.pl3   1  UNL1       -0.2761
     18 C          -1.0119    3.3218    3.4615 C.cat   1  UNL1        0.3762
     19 N          -0.8389    4.3274    4.4392 N.pl3   1  UNL1       -0.2893
     20 N          -1.0960    2.0943    3.8502 N.pl3   1  UNL1       -0.1298
     21 N           0.0137    1.0312   -1.8967 N.3     1  UNL1       -0.1780
     22 S           1.4932    0.3927   -1.5205 S.O2    1  UNL1        0.0608
     23 O           2.4681    0.7995   -2.6408 O.2     1  UNL1       -0.1530
     24 O           1.4248   -1.1371   -1.6116 O.2     1  UNL1       -0.1530
     25 C           2.2324    0.8818   -0.0539 C.ar    1  UNL1        0.1262
     26 C           1.9725    1.8165    0.9037 C.ar    1  UNL1       -0.0335
     27 C           2.6802    2.1103    2.0420 C.ar    1  UNL1       -0.0595
     28 C           3.8225    1.3505    2.2483 C.ar    1  UNL1       -0.0567
     29 C           4.1882    0.3668    1.3338 C.ar    1  UNL1       -0.0243
     30 C           3.4036    0.1398    0.2023 C.ar    1  UNL1        0.0570
     31 N           3.9426   -0.8774   -0.6185 N.pl3   1  UNL1       -0.3418
     32 C           4.8654   -1.8820   -0.0730 C.3     1  UNL1        0.0120
     33 C           5.9824   -1.1908    0.6862 C.3     1  UNL1       -0.0243
     34 C           6.8285   -0.3423   -0.2643 C.3     1  UNL1       -0.0607
     35 C           5.4265   -0.3005    1.7704 C.3     1  UNL1       -0.0219
     36 H          -5.0450   -4.4195    0.6968 H       1  UNL1        0.0232
     37 H          -3.9809   -5.3157   -0.4465 H       1  UNL1        0.0232
     38 H          -3.3149   -4.6587    1.1122 H       1  UNL1        0.0232
     39 H          -2.6622   -2.7848    0.0474 H       1  UNL1        0.0299
     40 H          -4.8266   -2.1652    1.0307 H       1  UNL1        0.0283
     41 H          -5.6203   -2.2532   -0.5446 H       1  UNL1        0.0283
     42 H          -3.4026   -0.5152    0.5133 H       1  UNL1        0.0465
     43 H          -4.8350   -0.0252   -0.5573 H       1  UNL1        0.0465
     44 H          -4.7031   -1.7717   -2.5784 H       1  UNL1        0.0616
     45 H          -2.3634   -3.6608   -2.0988 H       1  UNL1        0.0291
     46 H          -4.1038   -3.9765   -2.3139 H       1  UNL1        0.0291
     47 H          -1.4008   -1.7598   -5.1840 H       1  UNL1        0.2951
     48 H          -0.9402    0.3053   -0.1839 H       1  UNL1        0.0573
     49 H          -2.2866    2.2586   -2.1248 H       1  UNL1        0.0286
     50 H          -3.0423    1.5563   -0.6120 H       1  UNL1        0.0286
     51 H          -2.3646    3.9244   -0.3102 H       1  UNL1        0.0296
     52 H          -0.6287    3.4663   -0.5534 H       1  UNL1        0.0296
     53 H          -1.0144    1.6858    1.2893 H       1  UNL1        0.0655
     54 H          -2.6204    2.4105    1.5418 H       1  UNL1        0.0655
     55 H          -0.8262    4.6245    1.7187 H       1  UNL1        0.2579
     56 H          -1.0336    5.0200    5.1831 H       1  UNL1        0.2546
     57 H           0.1055    4.7030    4.6009 H       1  UNL1        0.2546
     58 H          -1.0393    1.8336    4.8547 H       1  UNL1        0.3062
     59 H          -0.0330    1.8020   -2.5836 H       1  UNL1        0.1489
     60 H           1.1061    2.3602    0.6304 H       1  UNL1        0.0638
     61 H           2.2810    2.8961    2.6573 H       1  UNL1        0.0618
     62 H           4.3470    1.6230    3.1658 H       1  UNL1        0.0621
     63 H           3.6794   -0.9034   -1.6166 H       1  UNL1        0.1461
     64 H           4.3257   -2.5407    0.6145 H       1  UNL1        0.0464
     65 H           5.3234   -2.4452   -0.8988 H       1  UNL1        0.0464
     66 H           6.6083   -1.9699    1.1454 H       1  UNL1        0.0316
     67 H           7.6790   -0.9266   -0.6257 H       1  UNL1        0.0233
     68 H           7.1835    0.5718    0.2966 H       1  UNL1        0.0233
     69 H           6.1653    0.0243   -1.0606 H       1  UNL1        0.0233
     70 H           5.1886   -0.9550    2.6387 H       1  UNL1        0.0317
     71 H           6.2053    0.4324    2.0627 H       1  UNL1        0.0317
@<TRIPOS>BOND
     1     1     2    1
     2     2     3    1
     3     3     4    1
     4     4     5    1
     5     5     6    1
     6     6     7    1
     7     6     8    1
     8     8     9    1
     9     8    10    2
    10     5    11   am
    11    11    12    2
    12    11    13    1
    13    13    14    1
    14    14    15    1
    15    15    16    1
    16    16    17    1
    17    17    18    1
    18    18    19    1
    19    18    20    2
    20    13    21    1
    21    21    22    1
    22    22    23    2
    23    22    24    2
    24    22    25    1
    25    25    26   ar
    26    26    27   ar
    27    27    28   ar
    28    28    29   ar
    29    29    30   ar
    30    30    31    1
    31    31    32    1
    32    32    33    1
    33    33    34    1
    34    33    35    1
    35     7     2    1
    36    30    25   ar
    37    35    29    1
    38     1    36    1
    39     1    37    1
    40     1    38    1
    41     2    39    1
    42     3    40    1
    43     3    41    1
    44     4    42    1
    45     4    43    1
    46     6    44    1
    47     7    45    1
    48     7    46    1
    49     9    47    1
    50    13    48    1
    51    14    49    1
    52    14    50    1
    53    15    51    1
    54    15    52    1
    55    16    53    1
    56    16    54    1
    57    17    55    1
    58    19    56    1
    59    19    57    1
    60    20    58    1
    61    21    59    1
    62    26    60    1
    63    27    61    1
    64    28    62    1
    65    31    63    1
    66    32    64    1
    67    32    65    1
    68    33    66    1
    69    34    67    1
    70    34    68    1
    71    34    69    1
    72    35    70    1
    73    35    71    1
