@<TRIPOS>MOLECULE
*****
 56 59 0 0 0
SMALL
GASTEIGER

@<TRIPOS>ATOM
      1 C          -5.4490    0.0811   -1.8075 C.3     1  UNL1       -0.0375
      2 C          -5.5127   -0.3959   -0.4041 C.ar    1  UNL1       -0.0195
      3 C          -6.7025   -1.0681   -0.0606 C.ar    1  UNL1       -0.0467
      4 C          -6.8674   -1.4955    1.2128 C.ar    1  UNL1        0.0358
      5 C          -8.1031   -2.2115    1.6344 C.3     1  UNL1        0.2658
      6 F          -8.2364   -3.3854    0.9245 F       1  UNL1       -0.2039
      7 F          -9.2118   -1.4285    1.4003 F       1  UNL1       -0.2039
      8 C          -5.8687   -1.2634    2.1437 C.ar    1  UNL1        0.0369
      9 N          -4.7543   -0.6236    1.7814 N.ar    1  UNL1       -0.2496
     10 C          -4.5312   -0.1681    0.5040 C.ar    1  UNL1        0.1286
     11 C          -3.2718    0.4440    0.2290 C.2     1  UNL1        0.2668
     12 O          -2.6669    0.9689    1.2551 O.2     1  UNL1       -0.2682
     13 N          -2.5714    0.5696   -0.9706 N.am    1  UNL1       -0.2802
     14 C          -1.2956    1.2510   -1.0069 C.ar    1  UNL1        0.0343
     15 C          -1.2652    2.6095   -1.2435 C.ar    1  UNL1       -0.0377
     16 C          -0.0524    3.2985   -1.2852 C.ar    1  UNL1       -0.0243
     17 C           1.1113    2.5853   -1.0839 C.ar    1  UNL1        0.1311
     18 F           2.3306    3.2196   -1.1156 F       1  UNL1       -0.2050
     19 C           1.1201    1.2172   -0.8431 C.ar    1  UNL1        0.0420
     20 C           2.3885    0.4975   -0.6337 C.3     1  UNL1        0.1959
     21 C           3.2762    0.6885   -1.8476 C.3     1  UNL1       -0.0112
     22 C           2.1012   -0.9626   -0.3726 C.3     1  UNL1        0.1183
     23 S           3.6319   -1.7767   -0.0424 S.O2    1  UNL1       -0.0095
     24 O           3.4021   -2.8175    1.0206 O.2     1  UNL1       -0.1731
     25 O           4.1664   -2.4940   -1.2452 O.2     1  UNL1       -0.1731
     26 C           4.7666   -0.5849    0.5898 C.3     1  UNL1        0.1886
     27 C           5.6867   -1.2247    1.6059 C.3     1  UNL1       -0.0164
     28 C           6.8288   -0.4564    0.9918 C.3     1  UNL1       -0.0479
     29 C           5.9817   -0.3361   -0.2749 C.3     1  UNL1       -0.0164
     30 C           4.0823    0.6173    1.0724 C.2     1  UNL1        0.3072
     31 N           4.6062    1.2999    2.2049 N.pl3   1  UNL1       -0.2488
     32 N           3.0366    1.0766    0.5188 N.2     1  UNL1       -0.0727
     33 C          -0.1115    0.5983   -0.8149 C.ar    1  UNL1       -0.0301
     34 H          -4.9927    1.0665   -1.8839 H       1  UNL1        0.0278
     35 H          -4.9599   -0.6368   -2.4818 H       1  UNL1        0.0278
     36 H          -6.5212    0.2528   -2.1886 H       1  UNL1        0.0278
     37 H          -7.4779   -1.2452   -0.7947 H       1  UNL1        0.0626
     38 H          -8.0384   -2.4753    2.7166 H       1  UNL1        0.1072
     39 H          -6.0148   -1.6119    3.1631 H       1  UNL1        0.0834
     40 H          -2.9326    0.1606   -1.8420 H       1  UNL1        0.1552
     41 H          -2.1676    3.1691   -1.4007 H       1  UNL1        0.0637
     42 H          -0.0216    4.3492   -1.4677 H       1  UNL1        0.0647
     43 H           2.6088    0.9640   -2.7164 H       1  UNL1        0.0279
     44 H           3.7744   -0.2459   -2.1534 H       1  UNL1        0.0279
     45 H           4.0057    1.5183   -1.6707 H       1  UNL1        0.0279
     46 H           1.4931   -1.0056    0.5541 H       1  UNL1        0.0550
     47 H           1.5457   -1.4188   -1.2147 H       1  UNL1        0.0550
     48 H           5.4660   -1.0294    2.6532 H       1  UNL1        0.0292
     49 H           5.8338   -2.3219    1.4072 H       1  UNL1        0.0292
     50 H           6.9726    0.4968    1.5343 H       1  UNL1        0.0267
     51 H           7.7472   -1.0396    0.7947 H       1  UNL1        0.0267
     52 H           6.0004    0.7325   -0.5920 H       1  UNL1        0.0292
     53 H           6.1914   -1.0831   -1.0391 H       1  UNL1        0.0292
     54 H           4.6700    0.8564    3.1538 H       1  UNL1        0.2881
     55 H           4.9342    2.2801    2.0625 H       1  UNL1        0.2881
     56 H          -0.1619   -0.4701   -0.6305 H       1  UNL1        0.0641
@<TRIPOS>BOND
     1     1     2    1
     2     2     3   ar
     3     3     4   ar
     4     4     5    1
     5     5     6    1
     6     5     7    1
     7     4     8   ar
     8     8     9   ar
     9     9    10   ar
    10    10    11    1
    11    11    12    2
    12    11    13   am
    13    13    14    1
    14    14    15   ar
    15    15    16   ar
    16    16    17   ar
    17    17    18    1
    18    17    19   ar
    19    19    20    1
    20    20    21    1
    21    20    22    1
    22    22    23    1
    23    23    24    2
    24    23    25    2
    25    23    26    1
    26    26    27    1
    27    27    28    1
    28    28    29    1
    29    26    30    1
    30    30    31    1
    31    30    32    2
    32    19    33   ar
    33    10     2   ar
    34    33    14   ar
    35    32    20    1
    36    29    26    1
    37     1    34    1
    38     1    35    1
    39     1    36    1
    40     3    37    1
    41     5    38    1
    42     8    39    1
    43    13    40    1
    44    15    41    1
    45    16    42    1
    46    21    43    1
    47    21    44    1
    48    21    45    1
    49    22    46    1
    50    22    47    1
    51    27    48    1
    52    27    49    1
    53    28    50    1
    54    28    51    1
    55    29    52    1
    56    29    53    1
    57    31    54    1
    58    31    55    1
    59    33    56    1
