@<TRIPOS>MOLECULE
*****
 70 73 0 0 0
SMALL
GASTEIGER

@<TRIPOS>ATOM
      1 C          -2.6317    0.7686    0.1710 C.3     1  UNL1        0.0216
      2 C          -4.0477    0.8662   -0.2123 C.3     1  UNL1       -0.0094
      3 C          -4.7235   -0.4441   -0.4052 C.ar    1  UNL1       -0.0206
      4 C          -5.9616   -0.7655   -0.9549 C.ar    1  UNL1        0.0060
      5 N          -6.1061   -2.1238   -0.8849 N.ar    1  UNL1       -0.3604
      6 C          -5.0318   -2.7007   -0.3211 C.ar    1  UNL1        0.0470
      7 C          -4.5293   -3.9304    0.0412 C.ar    1  UNL1       -0.0378
      8 C          -3.2724   -4.0616    0.6462 C.ar    1  UNL1       -0.0595
      9 C          -2.4833   -2.9319    0.9019 C.ar    1  UNL1       -0.0576
     10 C          -2.9635   -1.6856    0.5483 C.ar    1  UNL1       -0.0334
     11 C          -4.2038   -1.6617   -0.0374 C.ar    1  UNL1        0.0064
     12 C          -2.1402   -0.4840    0.8005 C.3     1  UNL1        0.0014
     13 C          -0.6960   -0.6865    0.3742 C.3     1  UNL1       -0.0324
     14 C           0.0135    0.5976    0.7059 C.3     1  UNL1        0.0495
     15 C          -0.8175    1.5655    1.4744 C.3     1  UNL1        0.0106
     16 N          -2.1199    1.8504    0.9688 N.3     1  UNL1       -0.2942
     17 C          -2.9899    2.4310    1.9332 C.3     1  UNL1        0.0172
     18 C          -3.4182    1.5677    3.0379 C.2     1  UNL1       -0.0772
     19 C          -4.6750    1.2443    3.3225 C.2     1  UNL1       -0.1014
     20 C           0.6649    1.2492   -0.4495 C.2     1  UNL1        0.2273
     21 O           0.2291    2.3963   -0.7530 O.2     1  UNL1       -0.2748
     22 N           1.7112    0.7589   -1.2592 N.am    1  UNL1       -0.2257
     23 C           2.3245   -0.5340   -1.0361 C.3     1  UNL1        0.0250
     24 C           3.5116   -0.4307   -0.0964 C.3     1  UNL1       -0.0238
     25 C           4.0862   -1.8251    0.0748 C.3     1  UNL1       -0.0003
     26 N           5.2282   -1.8246    0.9604 N.3     1  UNL1       -0.3083
     27 C           4.8819   -1.5232    2.3327 C.3     1  UNL1       -0.0130
     28 C           6.2982   -0.9824    0.4732 C.3     1  UNL1       -0.0130
     29 C           2.2772    1.4535   -2.3551 C.2     1  UNL1        0.3085
     30 O           3.1897    0.6730   -2.8044 O.2     1  UNL1       -0.2522
     31 N           2.1095    2.6863   -3.0285 N.am    1  UNL1       -0.2992
     32 C           3.0434    2.8220   -4.1356 C.3     1  UNL1        0.0102
     33 C           4.4820    2.7639   -3.6988 C.3     1  UNL1       -0.0495
     34 H          -2.0462    0.8859   -0.7980 H       1  UNL1        0.0472
     35 H          -4.6853    1.5360    0.4417 H       1  UNL1        0.0329
     36 H          -4.1844    1.3793   -1.2170 H       1  UNL1        0.0329
     37 H          -6.7181   -0.1114   -1.3776 H       1  UNL1        0.0810
     38 H          -6.9184   -2.7302   -1.2056 H       1  UNL1        0.1653
     39 H          -5.1887   -4.7816   -0.1823 H       1  UNL1        0.0638
     40 H          -2.9733   -5.0837    0.8918 H       1  UNL1        0.0618
     41 H          -1.5254   -3.0874    1.3689 H       1  UNL1        0.0621
     42 H          -2.0812   -0.3759    1.9045 H       1  UNL1        0.0364
     43 H          -0.2296   -1.5282    0.9193 H       1  UNL1        0.0279
     44 H          -0.7454   -0.8519   -0.7344 H       1  UNL1        0.0279
     45 H           0.8733    0.3184    1.3929 H       1  UNL1        0.0407
     46 H          -0.9110    1.2003    2.5168 H       1  UNL1        0.0434
     47 H          -0.2614    2.5328    1.5478 H       1  UNL1        0.0434
     48 H          -2.3598    3.2391    2.4321 H       1  UNL1        0.0470
     49 H          -3.8311    2.9691    1.5264 H       1  UNL1        0.0470
     50 H          -2.6012    1.1814    3.6523 H       1  UNL1        0.0579
     51 H          -5.4751    1.6365    2.7039 H       1  UNL1        0.0532
     52 H          -4.8785    0.5951    4.1653 H       1  UNL1        0.0532
     53 H           2.6838   -0.9692   -1.9827 H       1  UNL1        0.0470
     54 H           1.6047   -1.2286   -0.5464 H       1  UNL1        0.0470
     55 H           4.2987    0.1785   -0.5965 H       1  UNL1        0.0293
     56 H           3.2822    0.0177    0.8684 H       1  UNL1        0.0293
     57 H           4.4223   -2.2462   -0.8930 H       1  UNL1        0.0427
     58 H           3.3366   -2.5201    0.5041 H       1  UNL1        0.0427
     59 H           5.0953   -2.3671    3.0172 H       1  UNL1        0.0391
     60 H           3.8155   -1.2317    2.3985 H       1  UNL1        0.0391
     61 H           5.4820   -0.6520    2.7158 H       1  UNL1        0.0391
     62 H           6.2918    0.0388    0.8972 H       1  UNL1        0.0391
     63 H           7.2579   -1.4464    0.8072 H       1  UNL1        0.0391
     64 H           6.2786   -0.9989   -0.6218 H       1  UNL1        0.0391
     65 H           1.3501    3.2091   -2.5677 H       1  UNL1        0.1502
     66 H           2.8729    2.0521   -4.9083 H       1  UNL1        0.0460
     67 H           2.8499    3.8201   -4.5730 H       1  UNL1        0.0460
     68 H           4.9397    1.7664   -3.9018 H       1  UNL1        0.0245
     69 H           4.5902    3.0353   -2.6242 H       1  UNL1        0.0245
     70 H           5.0491    3.5204   -4.2762 H       1  UNL1        0.0245
@<TRIPOS>BOND
     1     1     2    1
     2     2     3    1
     3     3     4   ar
     4     4     5   ar
     5     5     6   ar
     6     6     7   ar
     7     7     8   ar
     8     8     9   ar
     9     9    10   ar
    10    10    11   ar
    11    10    12    1
    12    12    13    1
    13    13    14    1
    14    14    15    1
    15    15    16    1
    16    16    17    1
    17    17    18    1
    18    18    19    2
    19    14    20    1
    20    20    21    2
    21    20    22   am
    22    22    23    1
    23    23    24    1
    24    24    25    1
    25    25    26    1
    26    26    27    1
    27    26    28    1
    28    22    29   am
    29    29    30    2
    30    29    31   am
    31    31    32    1
    32    32    33    1
    33    12     1    1
    34    16     1    1
    35    11     3   ar
    36    11     6   ar
    37     1    34    1
    38     2    35    1
    39     2    36    1
    40     4    37    1
    41     5    38    1
    42     7    39    1
    43     8    40    1
    44     9    41    1
    45    12    42    1
    46    13    43    1
    47    13    44    1
    48    14    45    1
    49    15    46    1
    50    15    47    1
    51    17    48    1
    52    17    49    1
    53    18    50    1
    54    19    51    1
    55    19    52    1
    56    23    53    1
    57    23    54    1
    58    24    55    1
    59    24    56    1
    60    25    57    1
    61    25    58    1
    62    27    59    1
    63    27    60    1
    64    27    61    1
    65    28    62    1
    66    28    63    1
    67    28    64    1
    68    31    65    1
    69    32    66    1
    70    32    67    1
    71    33    68    1
    72    33    69    1
    73    33    70    1
