@<TRIPOS>MOLECULE
*****
 67 70 0 0 0
SMALL
GASTEIGER

@<TRIPOS>ATOM
      1 C          -1.9933    0.7896   -1.1800 C.3     1  UNL1        0.1296
      2 C          -2.5164    1.4472   -2.4002 C.3     1  UNL1       -0.0194
      3 C          -3.4577    0.5996   -3.2126 C.3     1  UNL1       -0.0443
      4 C          -3.8700    1.4669   -4.4110 C.3     1  UNL1       -0.0626
      5 C          -2.7338   -0.5836   -3.8226 C.3     1  UNL1       -0.0626
      6 N          -2.9228    0.3743   -0.2158 N.2     1  UNL1       -0.2349
      7 C          -3.8582    0.9595    0.3871 C.2     1  UNL1        0.2523
      8 O          -3.9969    2.3099    0.0137 O.2     1  UNL1       -0.4901
      9 C          -4.6017    0.1386    1.3372 C.ar    1  UNL1        0.1898
     10 C          -5.7388   -0.4937    0.8981 C.ar    1  UNL1       -0.0034
     11 C          -6.2611   -1.2002    1.9593 C.ar    1  UNL1        0.0209
     12 C          -7.3391   -2.0202    2.2127 C.ar    1  UNL1       -0.0510
     13 C          -7.5863   -2.5952    3.4449 C.ar    1  UNL1       -0.0610
     14 C          -6.7056   -2.3330    4.4752 C.ar    1  UNL1       -0.0582
     15 C          -5.6090   -1.5126    4.2594 C.ar    1  UNL1       -0.0187
     16 C          -5.3880   -0.9525    3.0181 C.ar    1  UNL1        0.1359
     17 O          -4.4217   -0.1545    2.5998 O.2     1  UNL1       -0.4501
     18 C          -1.0073    1.7107   -0.5462 C.2     1  UNL1        0.2086
     19 O          -0.4805    2.8373    0.0530 O.2     1  UNL1       -0.4942
     20 N           0.2248    1.5772   -0.2821 N.2     1  UNL1       -0.2419
     21 C           1.0658    0.4497   -0.5280 C.3     1  UNL1        0.1134
     22 C           2.1504    0.7418   -1.5477 C.3     1  UNL1       -0.0223
     23 C           3.2834   -0.2184   -1.2811 C.3     1  UNL1       -0.0362
     24 C           4.3200    0.3157   -0.3809 C.3     1  UNL1        0.0211
     25 N           4.2246    0.0167    0.9889 N.3     1  UNL1       -0.1680
     26 C           2.9769   -0.1214    1.5985 C.3     1  UNL1        0.0810
     27 C           1.7902    0.1016    0.7495 C.2     1  UNL1        0.1731
     28 O           0.8276   -0.1128    1.4767 O.2     1  UNL1       -0.2937
     29 S           5.5281    0.5210    1.9481 S.O2    1  UNL1        0.0784
     30 O           5.2982    0.0208    3.3524 O.2     1  UNL1       -0.1514
     31 O           5.6706    1.9981    1.8821 O.2     1  UNL1       -0.1514
     32 C           6.9784   -0.3005    1.3786 C.ar    1  UNL1        0.1938
     33 C           8.0989    0.3788    0.8987 C.ar    1  UNL1       -0.0165
     34 C           9.2087   -0.3366    0.4653 C.ar    1  UNL1       -0.0570
     35 C           9.1860   -1.7103    0.5160 C.ar    1  UNL1       -0.0435
     36 C           8.0637   -2.3520    0.9955 C.ar    1  UNL1        0.0298
     37 N           7.0036   -1.6379    1.4085 N.ar    1  UNL1       -0.2356
     38 H          -1.3770   -0.1130   -1.4669 H       1  UNL1        0.0643
     39 H          -2.9434    2.4383   -2.1507 H       1  UNL1        0.0293
     40 H          -1.6417    1.6806   -3.0524 H       1  UNL1        0.0293
     41 H          -4.3128    0.2054   -2.6669 H       1  UNL1        0.0296
     42 H          -2.8997    1.8029   -4.8699 H       1  UNL1        0.0232
     43 H          -4.4089    2.3681   -4.1243 H       1  UNL1        0.0232
     44 H          -4.4225    0.8774   -5.1604 H       1  UNL1        0.0232
     45 H          -2.4776   -1.3435   -3.0552 H       1  UNL1        0.0232
     46 H          -1.8381   -0.2428   -4.3884 H       1  UNL1        0.0232
     47 H          -3.4151   -1.0623   -4.5744 H       1  UNL1        0.0232
     48 H          -3.2251    2.9423    0.1769 H       1  UNL1        0.2938
     49 H          -6.2307   -0.5121   -0.0657 H       1  UNL1        0.0663
     50 H          -7.9822   -2.1756    1.3503 H       1  UNL1        0.0625
     51 H          -8.4755   -3.2145    3.4812 H       1  UNL1        0.0618
     52 H          -6.9683   -2.8199    5.4077 H       1  UNL1        0.0619
     53 H          -4.9517   -1.3425    5.1054 H       1  UNL1        0.0654
     54 H          -0.9594    3.7280    0.1001 H       1  UNL1        0.2935
     55 H           0.5476   -0.4568   -0.8965 H       1  UNL1        0.0625
     56 H           2.5139    1.7907   -1.4869 H       1  UNL1        0.0290
     57 H           1.7398    0.5903   -2.5757 H       1  UNL1        0.0290
     58 H           3.7478   -0.5685   -2.2253 H       1  UNL1        0.0279
     59 H           2.8773   -1.1647   -0.8168 H       1  UNL1        0.0279
     60 H           5.3180   -0.0147   -0.7351 H       1  UNL1        0.0444
     61 H           4.3308    1.4418   -0.4764 H       1  UNL1        0.0444
     62 H           2.8931    0.5400    2.4849 H       1  UNL1        0.0523
     63 H           2.9007   -1.1715    1.9948 H       1  UNL1        0.0523
     64 H           7.9750    1.4540    0.9173 H       1  UNL1        0.0653
     65 H          10.0402    0.2867    0.1055 H       1  UNL1        0.0619
     66 H          10.0847   -2.2009    0.1624 H       1  UNL1        0.0633
     67 H           8.1493   -3.4304    0.9927 H       1  UNL1        0.0830
@<TRIPOS>BOND
     1     1     2    1
     2     2     3    1
     3     3     4    1
     4     3     5    1
     5     1     6    1
     6     6     7    2
     7     7     8    1
     8     7     9    1
     9     9    10   ar
    10    10    11   ar
    11    11    12   ar
    12    12    13   ar
    13    13    14   ar
    14    14    15   ar
    15    15    16   ar
    16    16    17   ar
    17     1    18    1
    18    18    19    1
    19    18    20    2
    20    20    21    1
    21    21    22    1
    22    22    23    1
    23    23    24    1
    24    24    25    1
    25    25    26    1
    26    26    27    1
    27    27    28    2
    28    25    29    1
    29    29    30    2
    30    29    31    2
    31    29    32    1
    32    32    33   ar
    33    33    34   ar
    34    34    35   ar
    35    35    36   ar
    36    36    37   ar
    37    17     9   ar
    38    27    21    1
    39    37    32   ar
    40    16    11   ar
    41     1    38    1
    42     2    39    1
    43     2    40    1
    44     3    41    1
    45     4    42    1
    46     4    43    1
    47     4    44    1
    48     5    45    1
    49     5    46    1
    50     5    47    1
    51     8    48    1
    52    10    49    1
    53    12    50    1
    54    13    51    1
    55    14    52    1
    56    15    53    1
    57    19    54    1
    58    21    55    1
    59    22    56    1
    60    22    57    1
    61    23    58    1
    62    23    59    1
    63    24    60    1
    64    24    61    1
    65    26    62    1
    66    26    63    1
    67    33    64    1
    68    34    65    1
    69    35    66    1
    70    36    67    1
