
     RDKit          3D

 56 59  0  0  0  0  0  0  0  0999 V2000
    2.2786   -1.4677    0.6759 C   0  0  0  0  0  0  0  0  0  0  0  0
    3.6148   -0.9035    0.6024 C   0  0  0  0  0  0  0  0  0  0  0  0
    4.4837   -0.0191    0.1784 C   0  0  0  0  0  0  0  0  0  0  0  0
    5.9049    0.2189    0.3642 C   0  0  0  0  0  0  0  0  0  0  0  0
    6.6351   -0.6330    1.1557 C   0  0  0  0  0  0  0  0  0  0  0  0
    7.9803   -0.3446    1.2871 C   0  0  0  0  0  0  0  0  0  0  0  0
    8.5039    0.7519    0.6354 C   0  0  0  0  0  0  0  0  0  0  0  0
    7.7087    1.5831   -0.1578 C   0  0  0  0  0  0  0  0  0  0  0  0
    6.3524    1.3237   -0.3122 C   0  0  0  0  0  0  0  0  0  0  0  0
    1.2953   -0.7563   -0.0795 N   0  0  0  0  0  0  0  0  0  0  0  0
    0.9332    0.5331    0.4002 C   0  0  0  0  0  0  0  0  0  0  0  0
   -0.4232    0.8959   -0.2553 C   0  0  0  0  0  0  0  0  0  0  0  0
   -1.4906    0.1625    0.3417 N   0  0  0  0  0  0  0  0  0  0  0  0
   -0.8927   -1.1184    0.7761 C   0  0  0  0  0  0  0  0  0  0  0  0
    0.0960   -1.5505   -0.3075 C   0  0  0  0  0  0  0  0  0  0  0  0
   -2.6222   -0.1435   -0.4594 C   0  0  0  0  0  0  0  0  0  0  0  0
   -3.4217    0.9874   -0.9606 C   0  0  0  0  0  0  0  0  0  0  0  0
   -3.0186    2.1327   -1.6053 C   0  0  0  0  0  0  0  0  0  0  0  0
   -3.8261    3.1554   -2.0415 C   0  0  0  0  0  0  0  0  0  0  0  0
   -5.1812    3.0419   -1.8205 C   0  0  0  0  0  0  0  0  0  0  0  0
   -5.7192    1.9448   -1.1851 C   0  0  0  0  0  0  0  0  0  0  0  0
   -4.8194    0.9923   -0.7966 C   0  0  0  0  0  0  0  0  0  0  0  0
   -3.5423   -0.9480    0.4371 C   0  0  0  0  0  0  0  0  0  0  0  0
   -3.6961   -0.3668    1.6990 C   0  0  0  0  0  0  0  0  0  0  0  0
   -4.4928   -0.9235    2.6849 C   0  0  0  0  0  0  0  0  0  0  0  0
   -5.1416   -2.1012    2.3604 C   0  0  0  0  0  0  0  0  0  0  0  0
   -4.9943   -2.6798    1.1183 C   0  0  0  0  0  0  0  0  0  0  0  0
   -4.1909   -2.1045    0.1461 C   0  0  0  0  0  0  0  0  0  0  0  0
    1.9559   -1.5187    1.7619 H   0  0  0  0  0  0  0  0  0  0  0  0
    2.2832   -2.5347    0.3323 H   0  0  0  0  0  0  0  0  0  0  0  0
    4.2549   -1.5496    1.2280 H   0  0  0  0  0  0  0  0  0  0  0  0
    3.8068    0.5594   -0.4222 H   0  0  0  0  0  0  0  0  0  0  0  0
    6.2413   -1.4869    1.6655 H   0  0  0  0  0  0  0  0  0  0  0  0
    8.6080   -0.9851    1.9009 H   0  0  0  0  0  0  0  0  0  0  0  0
    9.5669    1.0073    0.7198 H   0  0  0  0  0  0  0  0  0  0  0  0
    8.1271    2.4568   -0.6752 H   0  0  0  0  0  0  0  0  0  0  0  0
    5.7694    1.9679   -0.9181 H   0  0  0  0  0  0  0  0  0  0  0  0
    1.6235    1.2994    0.0114 H   0  0  0  0  0  0  0  0  0  0  0  0
    0.8726    0.6180    1.4932 H   0  0  0  0  0  0  0  0  0  0  0  0
   -0.2472    0.7260   -1.3198 H   0  0  0  0  0  0  0  0  0  0  0  0
   -0.5276    1.9827    0.0328 H   0  0  0  0  0  0  0  0  0  0  0  0
   -1.6260   -1.9128    0.8970 H   0  0  0  0  0  0  0  0  0  0  0  0
   -0.3590   -0.9951    1.7400 H   0  0  0  0  0  0  0  0  0  0  0  0
   -0.2817   -1.3135   -1.3030 H   0  0  0  0  0  0  0  0  0  0  0  0
    0.2845   -2.6261   -0.2494 H   0  0  0  0  0  0  0  0  0  0  0  0
   -2.3302   -0.8274   -1.3016 H   0  0  0  0  0  0  0  0  0  0  0  0
   -1.9665    2.2495   -1.8011 H   0  0  0  0  0  0  0  0  0  0  0  0
   -3.4007    4.0123   -2.5395 H   0  0  0  0  0  0  0  0  0  0  0  0
   -5.8345    3.8349   -2.1559 H   0  0  0  0  0  0  0  0  0  0  0  0
   -6.7595    1.8464   -1.0094 H   0  0  0  0  0  0  0  0  0  0  0  0
   -5.2700    0.1242   -0.2905 H   0  0  0  0  0  0  0  0  0  0  0  0
   -3.2112    0.5608    2.0140 H   0  0  0  0  0  0  0  0  0  0  0  0
   -4.6203   -0.4851    3.6632 H   0  0  0  0  0  0  0  0  0  0  0  0
   -5.7812   -2.5894    3.0901 H   0  0  0  0  0  0  0  0  0  0  0  0
   -5.4830   -3.6086    0.8102 H   0  0  0  0  0  0  0  0  0  0  0  0
   -4.0098   -2.4762   -0.8546 H   0  0  0  0  0  0  0  0  0  0  0  0
  1  2  1  0
  2  3  2  3
  3  4  1  0
  4  5  2  0
  5  6  1  0
  6  7  2  0
  7  8  1  0
  8  9  2  0
  1 10  1  0
 10 11  1  0
 11 12  1  0
 12 13  1  0
 13 14  1  0
 14 15  1  0
 13 16  1  0
 16 17  1  0
 17 18  2  0
 18 19  1  0
 19 20  2  0
 20 21  1  0
 21 22  2  0
 16 23  1  0
 23 24  2  0
 24 25  1  0
 25 26  2  0
 26 27  1  0
 27 28  2  0
  9  4  1  0
 15 10  1  0
 22 17  1  0
 28 23  1  0
  1 29  1  0
  1 30  1  0
  2 31  1  0
  3 32  1  0
  5 33  1  0
  6 34  1  0
  7 35  1  0
  8 36  1  0
  9 37  1  0
 11 38  1  0
 11 39  1  0
 12 40  1  0
 12 41  1  0
 14 42  1  0
 14 43  1  0
 15 44  1  0
 15 45  1  0
 16 46  1  0
 18 47  1  0
 19 48  1  0
 20 49  1  0
 21 50  1  0
 22 51  1  0
 24 52  1  0
 25 53  1  0
 26 54  1  0
 27 55  1  0
 28 56  1  0
M  END
$$$$
