@<TRIPOS>MOLECULE
*****
 18 17 0 0 0
SMALL
GASTEIGER

@<TRIPOS>ATOM
      1 O           3.8145   -1.0079   -0.3985 O.3     1  UNL1       -0.3023
      2 P           2.6940    0.1774   -0.7829 P.3     1  UNL1        0.4808
      3 O           2.6840    1.3504    0.4377 O.3     1  UNL1       -0.3023
      4 O           3.1363    0.8891   -2.0540 O.2     1  UNL1       -0.2271
      5 O           1.1705   -0.4475   -1.0902 O.3     1  UNL1       -0.1859
      6 P           0.0369   -0.0903    0.0837 P.3     1  UNL1        0.4918
      7 O          -0.6968   -1.5543    0.5419 O.3     1  UNL1       -0.3019
      8 O           0.6113    0.5767    1.2964 O.2     1  UNL1       -0.2265
      9 O          -1.1280    0.9279   -0.5850 O.3     1  UNL1       -0.1859
     10 P          -2.6464    0.5487    0.0408 P.3     1  UNL1        0.4808
     11 O          -2.6933    1.0106    1.6614 O.3     1  UNL1       -0.3023
     12 O          -2.9983   -1.0898   -0.0581 O.3     1  UNL1       -0.3023
     13 O          -3.7152    1.2852   -0.7424 O.2     1  UNL1       -0.2271
     14 H           3.4199   -1.8693   -0.1383 H       1  UNL1        0.2220
     15 H           2.9227    0.9474    1.3233 H       1  UNL1        0.2220
     16 H          -0.7092   -2.1569   -0.2460 H       1  UNL1        0.2220
     17 H          -3.0142    1.9465    1.6764 H       1  UNL1        0.2220
     18 H          -2.8887   -1.4440   -0.9661 H       1  UNL1        0.2220
@<TRIPOS>BOND
     1     1     2    1
     2     2     3    1
     3     2     4    2
     4     2     5    1
     5     5     6    1
     6     6     7    1
     7     6     8    2
     8     6     9    1
     9     9    10    1
    10    10    11    1
    11    10    12    1
    12    10    13    2
    13     1    14    1
    14     3    15    1
    15     7    16    1
    16    11    17    1
    17    12    18    1
