@<TRIPOS>MOLECULE
*****
 25 24 0 0 0
SMALL
GASTEIGER

@<TRIPOS>ATOM
      1 C          -3.5878    0.3674   -0.3453 C.3     1  UNL1       -0.0384
      2 C          -2.2939   -0.2880    0.1101 C.3     1  UNL1        0.0647
      3 C          -2.4837   -1.0074    1.4080 C.3     1  UNL1       -0.0384
      4 O          -1.3283    0.7165    0.1550 O.3     1  UNL1       -0.2806
      5 P          -0.1262    0.5020   -1.0124 P.3     1  UNL1        0.5158
      6 F          -0.7967   -0.4387   -2.2422 F       1  UNL1       -0.1326
      7 O           0.2305    1.8556   -1.5732 O.2     1  UNL1       -0.2226
      8 O           1.1614   -0.2834   -0.3182 O.3     1  UNL1       -0.2806
      9 C           2.3656    0.3999   -0.4257 C.3     1  UNL1        0.0647
     10 C           3.3527   -0.5075   -1.1354 C.3     1  UNL1       -0.0384
     11 C           2.8952    0.6018    0.9849 C.3     1  UNL1       -0.0384
     12 H          -4.4616   -0.1825    0.0578 H       1  UNL1        0.0255
     13 H          -3.5775    1.4504   -0.0538 H       1  UNL1        0.0255
     14 H          -3.6386    0.3780   -1.4544 H       1  UNL1        0.0255
     15 H          -1.9983   -0.9773   -0.7075 H       1  UNL1        0.0596
     16 H          -2.3371   -2.1121    1.2813 H       1  UNL1        0.0255
     17 H          -3.5446   -0.9407    1.7825 H       1  UNL1        0.0255
     18 H          -1.8588   -0.5820    2.2022 H       1  UNL1        0.0255
     19 H           2.2893    1.3683   -0.9589 H       1  UNL1        0.0596
     20 H           3.3170   -1.4789   -0.6000 H       1  UNL1        0.0255
     21 H           3.1549   -0.6238   -2.2087 H       1  UNL1        0.0255
     22 H           4.3543   -0.0284   -1.0426 H       1  UNL1        0.0255
     23 H           3.8530    1.1285    1.0018 H       1  UNL1        0.0255
     24 H           2.0660    1.1140    1.5250 H       1  UNL1        0.0255
     25 H           2.9931   -0.4319    1.4080 H       1  UNL1        0.0255
@<TRIPOS>BOND
     1     1     2    1
     2     2     3    1
     3     2     4    1
     4     4     5    1
     5     5     6    1
     6     5     7    2
     7     5     8    1
     8     8     9    1
     9     9    10    1
    10     9    11    1
    11     1    12    1
    12     1    13    1
    13     1    14    1
    14     2    15    1
    15     3    16    1
    16     3    17    1
    17     3    18    1
    18     9    19    1
    19    10    20    1
    20    10    21    1
    21    10    22    1
    22    11    23    1
    23    11    24    1
    24    11    25    1
