
     RDKit          3D

 51 52  0  0  0  0  0  0  0  0999 V2000
    5.4298    2.4042   -0.9280 C   0  0  0  0  0  0  0  0  0  0  0  0
    4.6785    1.9960   -2.1959 C   0  0  0  0  0  0  0  0  0  0  0  0
    3.2025    2.1298   -1.9489 C   0  0  0  0  0  0  0  0  0  0  0  0
    2.7219    1.2618   -0.8082 C   0  0  0  0  0  0  0  0  0  0  0  0
    3.0114   -0.1691   -1.1324 C   0  0  0  0  0  0  0  0  0  0  0  0
    2.5900   -1.0671   -0.1269 O   0  0  0  0  0  0  0  0  0  0  0  0
    1.2983   -1.2067    0.3024 C   0  0  0  0  0  0  0  0  0  0  0  0
    0.4498   -2.1064   -0.3225 C   0  0  0  0  0  0  0  0  0  0  0  0
    0.8920   -2.8706   -1.3810 O   0  0  0  0  0  0  0  0  0  0  0  0
   -0.0002   -3.7752   -1.9936 C   0  0  0  0  0  0  0  0  0  0  0  0
   -0.8483   -2.2429    0.1131 C   0  0  0  0  0  0  0  0  0  0  0  0
   -1.3546   -1.4943    1.1827 C   0  0  0  0  0  0  0  0  0  0  0  0
   -2.7508   -1.6735    1.6444 C   0  0  0  0  0  0  0  0  0  0  0  0
   -3.6689   -0.8899    0.8148 C   0  0  0  0  0  0  0  0  0  0  0  0
   -4.3797   -1.5631   -0.1870 C   0  0  0  0  0  0  0  0  0  0  0  0
   -5.2276   -0.9199   -0.9983 N   0  0  0  0  0  0  0  0  0  0  0  0
   -5.4424    0.3916   -0.8988 C   0  0  0  0  0  0  0  0  0  0  0  0
   -6.3248    1.1357   -1.7245 N   0  0  0  0  0  0  0  0  0  0  0  0
   -4.7583    1.0421    0.0666 N   0  0  0  0  0  0  0  0  0  0  0  0
   -3.9003    0.4598    0.9058 C   0  0  0  0  0  0  0  0  0  0  0  0
   -3.2401    1.2122    1.8896 N   0  0  0  0  0  0  0  0  0  0  0  0
   -0.5249   -0.5993    1.8112 C   0  0  0  0  0  0  0  0  0  0  0  0
    0.7792   -0.4824    1.3509 C   0  0  0  0  0  0  0  0  0  0  0  0
    1.5997    0.4261    1.9978 O   0  0  0  0  0  0  0  0  0  0  0  0
    1.1671    1.2241    3.0833 C   0  0  0  0  0  0  0  0  0  0  0  0
    4.9332    3.3494   -0.5835 H   0  0  0  0  0  0  0  0  0  0  0  0
    5.3745    1.6399   -0.1492 H   0  0  0  0  0  0  0  0  0  0  0  0
    6.4753    2.6964   -1.2025 H   0  0  0  0  0  0  0  0  0  0  0  0
    4.9068    0.9777   -2.5237 H   0  0  0  0  0  0  0  0  0  0  0  0
    4.9621    2.7612   -2.9566 H   0  0  0  0  0  0  0  0  0  0  0  0
    2.6438    1.8229   -2.8733 H   0  0  0  0  0  0  0  0  0  0  0  0
    2.9910    3.1986   -1.7233 H   0  0  0  0  0  0  0  0  0  0  0  0
    3.3064    1.6112    0.0930 H   0  0  0  0  0  0  0  0  0  0  0  0
    1.6681    1.4541   -0.5549 H   0  0  0  0  0  0  0  0  0  0  0  0
    4.1379   -0.2800   -1.1483 H   0  0  0  0  0  0  0  0  0  0  0  0
    2.6677   -0.4604   -2.1350 H   0  0  0  0  0  0  0  0  0  0  0  0
   -0.8728   -3.1868   -2.3906 H   0  0  0  0  0  0  0  0  0  0  0  0
    0.4956   -4.3682   -2.7867 H   0  0  0  0  0  0  0  0  0  0  0  0
   -0.4124   -4.4196   -1.1824 H   0  0  0  0  0  0  0  0  0  0  0  0
   -1.5454   -2.9317   -0.3438 H   0  0  0  0  0  0  0  0  0  0  0  0
   -2.8416   -1.3246    2.7091 H   0  0  0  0  0  0  0  0  0  0  0  0
   -3.0631   -2.7473    1.6009 H   0  0  0  0  0  0  0  0  0  0  0  0
   -4.2248   -2.6379   -0.2951 H   0  0  0  0  0  0  0  0  0  0  0  0
   -6.0170    1.5428   -2.6544 H   0  0  0  0  0  0  0  0  0  0  0  0
   -7.3119    1.3206   -1.4641 H   0  0  0  0  0  0  0  0  0  0  0  0
   -2.8700    2.1747    1.7241 H   0  0  0  0  0  0  0  0  0  0  0  0
   -3.1136    0.7789    2.8514 H   0  0  0  0  0  0  0  0  0  0  0  0
   -0.8729    0.0059    2.6580 H   0  0  0  0  0  0  0  0  0  0  0  0
    0.6719    0.6559    3.8752 H   0  0  0  0  0  0  0  0  0  0  0  0
    0.4444    2.0025    2.7203 H   0  0  0  0  0  0  0  0  0  0  0  0
    2.0671    1.7409    3.5079 H   0  0  0  0  0  0  0  0  0  0  0  0
  1  2  1  0
  2  3  1  0
  3  4  1  0
  4  5  1  0
  5  6  1  0
  6  7  1  0
  7  8  2  0
  8  9  1  0
  9 10  1  0
  8 11  1  0
 11 12  2  0
 12 13  1  0
 13 14  1  0
 14 15  2  0
 15 16  1  0
 16 17  2  0
 17 18  1  0
 17 19  1  0
 19 20  2  0
 20 21  1  0
 12 22  1  0
 22 23  2  0
 23 24  1  0
 24 25  1  0
 23  7  1  0
 20 14  1  0
  1 26  1  0
  1 27  1  0
  1 28  1  0
  2 29  1  0
  2 30  1  0
  3 31  1  0
  3 32  1  0
  4 33  1  0
  4 34  1  0
  5 35  1  0
  5 36  1  0
 10 37  1  0
 10 38  1  0
 10 39  1  0
 11 40  1  0
 13 41  1  0
 13 42  1  0
 15 43  1  0
 18 44  1  0
 18 45  1  0
 21 46  1  0
 21 47  1  0
 22 48  1  0
 25 49  1  0
 25 50  1  0
 25 51  1  0
M  END
$$$$
