@<TRIPOS>MOLECULE
*****
 51 52 0 0 0
SMALL
GASTEIGER

@<TRIPOS>ATOM
      1 C           5.4298    2.4042   -0.9280 C.3     1  UNL1       -0.0653
      2 C           4.6785    1.9960   -2.1959 C.3     1  UNL1       -0.0558
      3 C           3.2025    2.1298   -1.9489 C.3     1  UNL1       -0.0502
      4 C           2.7219    1.2618   -0.8082 C.3     1  UNL1       -0.0186
      5 C           3.0114   -0.1691   -1.1324 C.3     1  UNL1        0.0899
      6 O           2.5900   -1.0671   -0.1269 O.3     1  UNL1       -0.4852
      7 C           1.2983   -1.2067    0.3024 C.ar    1  UNL1        0.2038
      8 C           0.4498   -2.1064   -0.3225 C.ar    1  UNL1        0.1654
      9 O           0.8920   -2.8706   -1.3810 O.3     1  UNL1       -0.4913
     10 C          -0.0002   -3.7752   -1.9936 C.3     1  UNL1        0.0790
     11 C          -0.8483   -2.2429    0.1131 C.ar    1  UNL1       -0.0126
     12 C          -1.3546   -1.4943    1.1827 C.ar    1  UNL1       -0.0358
     13 C          -2.7508   -1.6735    1.6444 C.3     1  UNL1        0.0025
     14 C          -3.6689   -0.8899    0.8148 C.ar    1  UNL1        0.0146
     15 C          -4.3797   -1.5631   -0.1870 C.ar    1  UNL1        0.0379
     16 N          -5.2276   -0.9199   -0.9983 N.ar    1  UNL1       -0.2227
     17 C          -5.4424    0.3916   -0.8988 C.ar    1  UNL1        0.2142
     18 N          -6.3248    1.1357   -1.7245 N.pl3   1  UNL1       -0.3274
     19 N          -4.7583    1.0421    0.0666 N.ar    1  UNL1       -0.1999
     20 C          -3.9003    0.4598    0.9058 C.ar    1  UNL1        0.1247
     21 N          -3.2401    1.2122    1.8896 N.pl3   1  UNL1       -0.3428
     22 C          -0.5249   -0.5993    1.8112 C.ar    1  UNL1       -0.0126
     23 C           0.7792   -0.4824    1.3509 C.ar    1  UNL1        0.1654
     24 O           1.5997    0.4261    1.9978 O.3     1  UNL1       -0.4913
     25 C           1.1671    1.2241    3.0833 C.3     1  UNL1        0.0790
     26 H           4.9332    3.3494   -0.5835 H       1  UNL1        0.0230
     27 H           5.3745    1.6399   -0.1492 H       1  UNL1        0.0230
     28 H           6.4753    2.6964   -1.2025 H       1  UNL1        0.0230
     29 H           4.9068    0.9777   -2.5237 H       1  UNL1        0.0263
     30 H           4.9621    2.7612   -2.9566 H       1  UNL1        0.0263
     31 H           2.6438    1.8229   -2.8733 H       1  UNL1        0.0266
     32 H           2.9910    3.1986   -1.7233 H       1  UNL1        0.0266
     33 H           3.3064    1.6112    0.0930 H       1  UNL1        0.0298
     34 H           1.6681    1.4541   -0.5549 H       1  UNL1        0.0298
     35 H           4.1379   -0.2800   -1.1483 H       1  UNL1        0.0696
     36 H           2.6677   -0.4604   -2.1350 H       1  UNL1        0.0696
     37 H          -0.8728   -3.1868   -2.3906 H       1  UNL1        0.0660
     38 H           0.4956   -4.3682   -2.7867 H       1  UNL1        0.0660
     39 H          -0.4124   -4.4196   -1.1824 H       1  UNL1        0.0660
     40 H          -1.5454   -2.9317   -0.3438 H       1  UNL1        0.0658
     41 H          -2.8416   -1.3246    2.7091 H       1  UNL1        0.0363
     42 H          -3.0631   -2.7473    1.6009 H       1  UNL1        0.0363
     43 H          -4.2248   -2.6379   -0.2951 H       1  UNL1        0.0834
     44 H          -6.0170    1.5428   -2.6544 H       1  UNL1        0.1452
     45 H          -7.3119    1.3206   -1.4641 H       1  UNL1        0.1452
     46 H          -2.8700    2.1747    1.7241 H       1  UNL1        0.1437
     47 H          -3.1136    0.7789    2.8514 H       1  UNL1        0.1437
     48 H          -0.8729    0.0059    2.6580 H       1  UNL1        0.0658
     49 H           0.6719    0.6559    3.8752 H       1  UNL1        0.0660
     50 H           0.4444    2.0025    2.7203 H       1  UNL1        0.0660
     51 H           2.0671    1.7409    3.5079 H       1  UNL1        0.0660
@<TRIPOS>BOND
     1     1     2    1
     2     2     3    1
     3     3     4    1
     4     4     5    1
     5     5     6    1
     6     6     7    1
     7     7     8   ar
     8     8     9    1
     9     9    10    1
    10     8    11   ar
    11    11    12   ar
    12    12    13    1
    13    13    14    1
    14    14    15   ar
    15    15    16   ar
    16    16    17   ar
    17    17    18    1
    18    17    19   ar
    19    19    20   ar
    20    20    21    1
    21    12    22   ar
    22    22    23   ar
    23    23    24    1
    24    24    25    1
    25    23     7   ar
    26    20    14   ar
    27     1    26    1
    28     1    27    1
    29     1    28    1
    30     2    29    1
    31     2    30    1
    32     3    31    1
    33     3    32    1
    34     4    33    1
    35     4    34    1
    36     5    35    1
    37     5    36    1
    38    10    37    1
    39    10    38    1
    40    10    39    1
    41    11    40    1
    42    13    41    1
    43    13    42    1
    44    15    43    1
    45    18    44    1
    46    18    45    1
    47    21    46    1
    48    21    47    1
    49    22    48    1
    50    25    49    1
    51    25    50    1
    52    25    51    1
