
     RDKit          3D

 67 71  0  0  0  0  0  0  0  0999 V2000
    8.7599   -3.0599    3.2477 C   0  0  0  0  0  0  0  0  0  0  0  0
    7.2545   -2.9317    2.9966 C   0  0  0  0  0  0  0  0  0  0  0  0
    6.5998   -3.9060    3.9836 C   0  0  0  0  0  0  0  0  0  0  0  0
    6.7776   -1.5769    3.4385 C   0  0  0  0  0  0  0  0  0  0  0  0
    7.4722   -1.0665    4.5566 C   0  0  0  0  0  0  0  0  0  0  0  0
    7.0503    0.2501    5.0067 C   0  0  0  0  0  0  0  0  0  0  0  0
    7.7304    0.7899    6.1928 C   0  0  0  0  0  0  0  0  0  0  0  0
    8.2637    1.2092    7.1079 N   0  0  0  0  0  0  0  0  0  0  0  0
    6.0802    0.8247    4.3476 C   0  0  0  0  0  0  0  0  0  0  0  0
    5.3957    0.3188    3.2480 C   0  0  0  0  0  0  0  0  0  0  0  0
    4.3461    0.7178    2.4429 N   0  0  0  0  0  0  0  0  0  0  0  0
    4.1769   -0.3274    1.5848 C   0  0  0  0  0  0  0  0  0  0  0  0
    3.0676   -0.2342    0.5834 C   0  0  0  0  0  0  0  0  0  0  0  0
    2.7522   -1.0661   -0.4038 C   0  0  0  0  0  0  0  0  0  0  0  0
    1.6780   -1.0861   -1.2385 C   0  0  0  0  0  0  0  0  0  0  0  0
    0.6963   -0.0066   -1.0239 C   0  0  0  0  0  0  0  0  0  0  0  0
   -0.5299    0.0790   -1.7471 C   0  0  0  0  0  0  0  0  0  0  0  0
   -0.9301    1.0877   -2.3801 O   0  0  0  0  0  0  0  0  0  0  0  0
   -1.4584   -1.0317   -1.8237 N   0  0  0  0  0  0  0  0  0  0  0  0
   -2.6826   -0.9849   -2.4907 C   0  0  0  0  0  0  0  0  0  0  0  0
   -3.6710    0.0800   -2.1990 C   0  0  1  0  0  0  0  0  0  0  0  0
   -4.8777   -0.2427   -3.1006 C   0  0  0  0  0  0  0  0  0  0  0  0
   -6.1760   -0.1949   -2.3848 C   0  0  0  0  0  0  0  0  0  0  0  0
   -6.3925    1.0588   -1.5684 C   0  0  2  0  0  0  0  0  0  0  0  0
   -6.8985    2.1677   -2.3416 C   0  0  0  0  0  0  0  0  0  0  0  0
   -6.1196    2.8359   -3.2338 C   0  0  0  0  0  0  0  0  0  0  0  0
   -6.5201    3.8765   -4.0631 C   0  0  0  0  0  0  0  0  0  0  0  0
   -7.9116    4.2384   -3.9145 C   0  0  0  0  0  0  0  0  0  0  0  0
   -8.4955    5.5563   -4.9677 Cl  0  0  0  0  0  0  0  0  0  0  0  0
   -8.6168    3.6231   -3.0981 C   0  0  0  0  0  0  0  0  0  0  0  0
   -8.2692    2.5537   -2.2183 C   0  0  0  0  0  0  0  0  0  0  0  0
   -5.1538    1.3329   -0.7810 C   0  0  0  0  0  0  0  0  0  0  0  0
   -4.1895    0.1191   -0.7946 C   0  0  0  0  0  0  0  0  0  0  0  0
    1.0194    0.8459   -0.0202 C   0  0  0  0  0  0  0  0  0  0  0  0
    2.1109    0.8074    0.7775 C   0  0  0  0  0  0  0  0  0  0  0  0
    4.9895   -1.2492    1.7768 O   0  0  0  0  0  0  0  0  0  0  0  0
    5.7984   -0.9538    2.8085 C   0  0  0  0  0  0  0  0  0  0  0  0
    9.3054   -2.3135    2.6909 H   0  0  0  0  0  0  0  0  0  0  0  0
    8.9985   -3.1681    4.3302 H   0  0  0  0  0  0  0  0  0  0  0  0
    9.0647   -4.0808    2.8361 H   0  0  0  0  0  0  0  0  0  0  0  0
    7.0028   -3.1522    1.9750 H   0  0  0  0  0  0  0  0  0  0  0  0
    5.6781   -3.4433    4.4506 H   0  0  0  0  0  0  0  0  0  0  0  0
    6.3274   -4.8424    3.5339 H   0  0  0  0  0  0  0  0  0  0  0  0
    7.2874   -4.0884    4.8688 H   0  0  0  0  0  0  0  0  0  0  0  0
    8.1767   -1.5793    5.0561 H   0  0  0  0  0  0  0  0  0  0  0  0
    5.6951    1.8260    4.7167 H   0  0  0  0  0  0  0  0  0  0  0  0
    3.5347   -1.9022   -0.5564 H   0  0  0  0  0  0  0  0  0  0  0  0
    1.4705   -1.7622   -2.0063 H   0  0  0  0  0  0  0  0  0  0  0  0
   -1.1611   -1.9082   -1.3336 H   0  0  0  0  0  0  0  0  0  0  0  0
   -3.2429   -1.9586   -2.1804 H   0  0  0  0  0  0  0  0  0  0  0  0
   -2.5851   -1.1052   -3.5814 H   0  0  0  0  0  0  0  0  0  0  0  0
   -3.3866    1.0956   -2.5635 H   0  0  0  0  0  0  0  0  0  0  0  0
   -4.9007    0.3493   -4.0291 H   0  0  0  0  0  0  0  0  0  0  0  0
   -4.7899   -1.3147   -3.4819 H   0  0  0  0  0  0  0  0  0  0  0  0
   -6.9642   -0.3198   -3.1694 H   0  0  0  0  0  0  0  0  0  0  0  0
   -6.2906   -1.0699   -1.7189 H   0  0  0  0  0  0  0  0  0  0  0  0
   -7.1755    0.7588   -0.8131 H   0  0  0  0  0  0  0  0  0  0  0  0
   -5.0467    2.5960   -3.3586 H   0  0  0  0  0  0  0  0  0  0  0  0
   -5.9571    4.4236   -4.7438 H   0  0  0  0  0  0  0  0  0  0  0  0
   -9.7360    3.8719   -2.9480 H   0  0  0  0  0  0  0  0  0  0  0  0
   -8.9106    2.1317   -1.5877 H   0  0  0  0  0  0  0  0  0  0  0  0
   -4.5798    2.1562   -1.2373 H   0  0  0  0  0  0  0  0  0  0  0  0
   -5.3707    1.6109    0.2688 H   0  0  0  0  0  0  0  0  0  0  0  0
   -3.4006    0.3346   -0.0480 H   0  0  0  0  0  0  0  0  0  0  0  0
   -4.7078   -0.7857   -0.4894 H   0  0  0  0  0  0  0  0  0  0  0  0
    0.2547    1.6385    0.1765 H   0  0  0  0  0  0  0  0  0  0  0  0
    2.2829    1.5472    1.5399 H   0  0  0  0  0  0  0  0  0  0  0  0
  1  2  1  0
  2  3  1  0
  2  4  1  0
  4  5  2  0
  5  6  1  0
  6  7  1  0
  7  8  3  0
  6  9  2  0
  9 10  1  0
 10 11  1  0
 11 12  2  0
 12 13  1  0
 13 14  2  0
 14 15  1  0
 15 16  2  0
 16 17  1  0
 17 18  2  0
 17 19  1  0
 19 20  1  0
 20 21  1  0
 21 22  1  0
 22 23  1  0
 23 24  1  0
 24 25  1  0
 25 26  2  0
 26 27  1  0
 27 28  2  0
 28 29  1  0
 28 30  1  0
 30 31  2  0
 24 32  1  0
 32 33  1  0
 16 34  1  0
 34 35  2  0
 12 36  1  0
 36 37  1  0
 37  4  1  0
 37 10  2  0
 35 13  1  0
 33 21  1  0
 31 25  1  0
  1 38  1  0
  1 39  1  0
  1 40  1  0
  2 41  1  0
  3 42  1  0
  3 43  1  0
  3 44  1  0
  5 45  1  0
  9 46  1  0
 14 47  1  0
 15 48  1  0
 19 49  1  0
 20 50  1  0
 20 51  1  0
 21 52  1  6
 22 53  1  0
 22 54  1  0
 23 55  1  0
 23 56  1  0
 24 57  1  1
 26 58  1  0
 27 59  1  0
 30 60  1  0
 31 61  1  0
 32 62  1  0
 32 63  1  0
 33 64  1  0
 33 65  1  0
 34 66  1  0
 35 67  1  0
M  END
$$$$
