@<TRIPOS>MOLECULE
*****
 67 71 0 0 0
SMALL
GASTEIGER

@<TRIPOS>ATOM
      1 C           8.7599   -3.0599    3.2477 C.3     1  UNL1       -0.0585
      2 C           7.2545   -2.9317    2.9966 C.3     1  UNL1       -0.0179
      3 C           6.5998   -3.9060    3.9836 C.3     1  UNL1       -0.0585
      4 C           6.7776   -1.5769    3.4385 C.ar    1  UNL1        0.0009
      5 C           7.4722   -1.0665    4.5566 C.ar    1  UNL1       -0.0373
      6 C           7.0503    0.2501    5.0067 C.ar    1  UNL1        0.0543
      7 C           7.7304    0.7899    6.1928 C.1     1  UNL1        0.0992
      8 N           8.2637    1.2092    7.1079 N.1     1  UNL1       -0.1909
      9 C           6.0802    0.8247    4.3476 C.ar    1  UNL1       -0.0152
     10 C           5.3957    0.3188    3.2480 C.ar    1  UNL1        0.1114
     11 N           4.3461    0.7178    2.4429 N.ar    1  UNL1       -0.2089
     12 C           4.1769   -0.3274    1.5848 C.ar    1  UNL1        0.2284
     13 C           3.0676   -0.2342    0.5834 C.ar    1  UNL1        0.0370
     14 C           2.7522   -1.0661   -0.4038 C.ar    1  UNL1       -0.0488
     15 C           1.6780   -1.0861   -1.2385 C.ar    1  UNL1       -0.0489
     16 C           0.6963   -0.0066   -1.0239 C.ar    1  UNL1        0.0367
     17 C          -0.5299    0.0790   -1.7471 C.2     1  UNL1        0.2441
     18 O          -0.9301    1.0877   -2.3801 O.2     1  UNL1       -0.2702
     19 N          -1.4584   -1.0317   -1.8237 N.am    1  UNL1       -0.3111
     20 C          -2.6826   -0.9849   -2.4907 C.3     1  UNL1        0.0147
     21 C          -3.6710    0.0800   -2.1990 C.3     1  UNL1       -0.0254
     22 C          -4.8777   -0.2427   -3.1006 C.3     1  UNL1       -0.0482
     23 C          -6.1760   -0.1949   -2.3848 C.3     1  UNL1       -0.0459
     24 C          -6.3925    1.0588   -1.5684 C.3     1  UNL1       -0.0158
     25 C          -6.8985    2.1677   -2.3416 C.ar    1  UNL1       -0.0442
     26 C          -6.1196    2.8359   -3.2338 C.ar    1  UNL1       -0.0569
     27 C          -6.5201    3.8765   -4.0631 C.ar    1  UNL1       -0.0431
     28 C          -7.9116    4.2384   -3.9145 C.ar    1  UNL1        0.0410
     29 CL         -8.4955    5.5563   -4.9677 Cl      1  UNL1       -0.0835
     30 C          -8.6168    3.6231   -3.0981 C.ar    1  UNL1       -0.0431
     31 C          -8.2692    2.5537   -2.2183 C.ar    1  UNL1       -0.0569
     32 C          -5.1538    1.3329   -0.7810 C.3     1  UNL1       -0.0459
     33 C          -4.1895    0.1191   -0.7946 C.3     1  UNL1       -0.0482
     34 C           1.0194    0.8459   -0.0202 C.ar    1  UNL1       -0.0489
     35 C           2.1109    0.8074    0.7775 C.ar    1  UNL1       -0.0488
     36 O           4.9895   -1.2492    1.7768 O.2     1  UNL1       -0.4350
     37 C           5.7984   -0.9538    2.8085 C.ar    1  UNL1        0.1592
     38 H           9.3054   -2.3135    2.6909 H       1  UNL1        0.0235
     39 H           8.9985   -3.1681    4.3302 H       1  UNL1        0.0235
     40 H           9.0647   -4.0808    2.8361 H       1  UNL1        0.0235
     41 H           7.0028   -3.1522    1.9750 H       1  UNL1        0.0345
     42 H           5.6781   -3.4433    4.4506 H       1  UNL1        0.0235
     43 H           6.3274   -4.8424    3.5339 H       1  UNL1        0.0235
     44 H           7.2874   -4.0884    4.8688 H       1  UNL1        0.0235
     45 H           8.1767   -1.5793    5.0561 H       1  UNL1        0.0634
     46 H           5.6951    1.8260    4.7167 H       1  UNL1        0.0653
     47 H           3.5347   -1.9022   -0.5564 H       1  UNL1        0.0625
     48 H           1.4705   -1.7622   -2.0063 H       1  UNL1        0.0625
     49 H          -1.1611   -1.9082   -1.3336 H       1  UNL1        0.1490
     50 H          -3.2429   -1.9586   -2.1804 H       1  UNL1        0.0465
     51 H          -2.5851   -1.1052   -3.5814 H       1  UNL1        0.0465
     52 H          -3.3866    1.0956   -2.5635 H       1  UNL1        0.0316
     53 H          -4.9007    0.3493   -4.0291 H       1  UNL1        0.0269
     54 H          -4.7899   -1.3147   -3.4819 H       1  UNL1        0.0269
     55 H          -6.9642   -0.3198   -3.1694 H       1  UNL1        0.0271
     56 H          -6.2906   -1.0699   -1.7189 H       1  UNL1        0.0271
     57 H          -7.1755    0.7588   -0.8131 H       1  UNL1        0.0349
     58 H          -5.0467    2.5960   -3.3586 H       1  UNL1        0.0621
     59 H          -5.9571    4.4236   -4.7438 H       1  UNL1        0.0632
     60 H          -9.7360    3.8719   -2.9480 H       1  UNL1        0.0632
     61 H          -8.9106    2.1317   -1.5877 H       1  UNL1        0.0621
     62 H          -4.5798    2.1562   -1.2373 H       1  UNL1        0.0271
     63 H          -5.3707    1.6109    0.2688 H       1  UNL1        0.0271
     64 H          -3.4006    0.3346   -0.0480 H       1  UNL1        0.0269
     65 H          -4.7078   -0.7857   -0.4894 H       1  UNL1        0.0269
     66 H           0.2547    1.6385    0.1765 H       1  UNL1        0.0625
     67 H           2.2829    1.5472    1.5399 H       1  UNL1        0.0625
@<TRIPOS>BOND
     1     1     2    1
     2     2     3    1
     3     2     4    1
     4     4     5   ar
     5     5     6   ar
     6     6     7    1
     7     7     8    3
     8     6     9   ar
     9     9    10   ar
    10    10    11   ar
    11    11    12   ar
    12    12    13    1
    13    13    14   ar
    14    14    15   ar
    15    15    16   ar
    16    16    17    1
    17    17    18    2
    18    17    19   am
    19    19    20    1
    20    20    21    1
    21    21    22    1
    22    22    23    1
    23    23    24    1
    24    24    25    1
    25    25    26   ar
    26    26    27   ar
    27    27    28   ar
    28    28    29    1
    29    28    30   ar
    30    30    31   ar
    31    24    32    1
    32    32    33    1
    33    16    34   ar
    34    34    35   ar
    35    12    36   ar
    36    36    37   ar
    37    37     4   ar
    38    37    10   ar
    39    35    13   ar
    40    33    21    1
    41    31    25   ar
    42     1    38    1
    43     1    39    1
    44     1    40    1
    45     2    41    1
    46     3    42    1
    47     3    43    1
    48     3    44    1
    49     5    45    1
    50     9    46    1
    51    14    47    1
    52    15    48    1
    53    19    49    1
    54    20    50    1
    55    20    51    1
    56    21    52    1
    57    22    53    1
    58    22    54    1
    59    23    55    1
    60    23    56    1
    61    24    57    1
    62    26    58    1
    63    27    59    1
    64    30    60    1
    65    31    61    1
    66    32    62    1
    67    32    63    1
    68    33    64    1
    69    33    65    1
    70    34    66    1
    71    35    67    1
