@<TRIPOS>MOLECULE
*****
 46 49 0 0 0
SMALL
GASTEIGER

@<TRIPOS>ATOM
      1 C          -3.2141    2.8047    1.9658 C.3     1  UNL1        0.0790
      2 O          -3.1638    1.4127    1.7652 O.3     1  UNL1       -0.4913
      3 C          -2.2956    0.7810    0.8992 C.ar    1  UNL1        0.1657
      4 C          -1.3969    1.5344    0.1520 C.ar    1  UNL1       -0.0082
      5 C          -0.5162    0.9328   -0.7193 C.ar    1  UNL1       -0.0050
      6 C           0.4371    1.6916   -1.5190 C.2     1  UNL1        0.0572
      7 C           1.7273    1.3651   -1.7083 C.2     1  UNL1        0.0589
      8 C           2.3504    0.1913   -1.1212 C.ar    1  UNL1        0.0129
      9 C           3.0599   -0.7989   -1.7826 C.ar    1  UNL1        0.0106
     10 N           3.5098   -1.7207   -0.9171 N.ar    1  UNL1       -0.3600
     11 C           3.1172   -1.3670    0.3092 C.ar    1  UNL1        0.0471
     12 C           3.3028   -1.9310    1.5469 C.ar    1  UNL1       -0.0378
     13 C           2.7904   -1.3431    2.6785 C.ar    1  UNL1       -0.0598
     14 C           2.0829   -0.1776    2.5811 C.ar    1  UNL1       -0.0611
     15 C           1.8869    0.4002    1.3507 C.ar    1  UNL1       -0.0520
     16 C           2.3976   -0.1887    0.2238 C.ar    1  UNL1        0.0075
     17 C           2.3525    2.3625   -2.5683 C.2     1  UNL1        0.2519
     18 O           3.5438    2.3988   -2.9671 O.2     1  UNL1       -0.2697
     19 N           1.3805    3.3411   -2.9129 N.am    1  UNL1       -0.2483
     20 C           0.1903    2.9188   -2.2573 C.2     1  UNL1        0.2518
     21 O          -0.9445    3.4992   -2.2858 O.2     1  UNL1       -0.2697
     22 C          -0.5797   -0.4576   -0.8066 C.ar    1  UNL1       -0.0082
     23 C          -1.4661   -1.2104   -0.0710 C.ar    1  UNL1        0.1657
     24 O          -1.5079   -2.5918   -0.1785 O.3     1  UNL1       -0.4913
     25 C          -0.6555   -3.3153   -1.0472 C.3     1  UNL1        0.0790
     26 C          -2.3387   -0.5883    0.7957 C.ar    1  UNL1        0.2035
     27 O          -3.2293   -1.3677    1.5345 O.3     1  UNL1       -0.4885
     28 C          -4.5184   -1.7026    1.0827 C.3     1  UNL1        0.0791
     29 H          -4.0166    3.0377    2.7051 H       1  UNL1        0.0660
     30 H          -3.4938    3.2861    1.0111 H       1  UNL1        0.0660
     31 H          -2.2309    3.1975    2.3137 H       1  UNL1        0.0660
     32 H          -1.3611    2.6313    0.2317 H       1  UNL1        0.0661
     33 H           3.2189   -0.8110   -2.8528 H       1  UNL1        0.0813
     34 H           4.0721   -2.5638   -1.1878 H       1  UNL1        0.1654
     35 H           3.8711   -2.8610    1.5854 H       1  UNL1        0.0638
     36 H           2.9425   -1.7976    3.6543 H       1  UNL1        0.0618
     37 H           1.6584    0.3216    3.4680 H       1  UNL1        0.0618
     38 H           1.3478    1.3115    1.3215 H       1  UNL1        0.0624
     39 H           1.5040    4.2036   -3.5250 H       1  UNL1        0.1581
     40 H           0.1149   -0.9152   -1.4935 H       1  UNL1        0.0661
     41 H          -1.0836   -3.1584   -2.0818 H       1  UNL1        0.0660
     42 H           0.3691   -2.9013   -1.0794 H       1  UNL1        0.0660
     43 H          -0.6893   -4.3892   -0.8645 H       1  UNL1        0.0660
     44 H          -4.3693   -2.4019    0.2236 H       1  UNL1        0.0660
     45 H          -5.0910   -2.2417    1.8441 H       1  UNL1        0.0660
     46 H          -5.0660   -0.8214    0.7030 H       1  UNL1        0.0660
@<TRIPOS>BOND
     1     1     2    1
     2     2     3    1
     3     3     4   ar
     4     4     5   ar
     5     5     6    1
     6     6     7    2
     7     7     8    1
     8     8     9   ar
     9     9    10   ar
    10    10    11   ar
    11    11    12   ar
    12    12    13   ar
    13    13    14   ar
    14    14    15   ar
    15    15    16   ar
    16     7    17    1
    17    17    18    2
    18    17    19   am
    19    19    20   am
    20    20    21    2
    21     5    22   ar
    22    22    23   ar
    23    23    24    1
    24    24    25    1
    25    23    26   ar
    26    26    27    1
    27    27    28    1
    28    26     3   ar
    29    20     6    1
    30    16     8   ar
    31    16    11   ar
    32     1    29    1
    33     1    30    1
    34     1    31    1
    35     4    32    1
    36     9    33    1
    37    10    34    1
    38    12    35    1
    39    13    36    1
    40    14    37    1
    41    15    38    1
    42    19    39    1
    43    22    40    1
    44    25    41    1
    45    25    42    1
    46    25    43    1
    47    28    44    1
    48    28    45    1
    49    28    46    1
