
     RDKit          3D

 69 71  0  0  0  0  0  0  0  0999 V2000
    7.8024    1.2933    0.6620 C   0  0  0  0  0  0  0  0  0  0  0  0
    7.1799    1.0490   -0.6129 N   0  0  0  0  0  0  0  0  0  0  0  0
    8.0355    0.1562   -1.3711 C   0  0  0  0  0  0  0  0  0  0  0  0
    5.8593    0.4674   -0.4795 C   0  0  0  0  0  0  0  0  0  0  0  0
    4.8720    1.4336    0.1175 C   0  0  0  0  0  0  0  0  0  0  0  0
    3.5761    0.7668    0.2139 N   0  0  0  0  0  0  0  0  0  0  0  0
    2.6768    0.8698   -0.9028 C   0  0  0  0  0  0  0  0  0  0  0  0
    1.3954    1.5673   -0.5384 C   0  0  0  0  0  0  0  0  0  0  0  0
    0.6102    0.6314    0.3342 N   0  0  0  0  0  0  0  0  0  0  0  0
   -0.4255    0.0501   -0.3609 C   0  0  0  0  0  0  0  0  0  0  0  0
   -0.5641    0.4374   -1.6082 O   0  0  0  0  0  0  0  0  0  0  0  0
   -1.4297   -0.9576    0.0758 C   0  0  0  0  0  0  0  0  0  0  0  0
   -1.3291   -1.7128    1.1949 C   0  0  0  0  0  0  0  0  0  0  0  0
   -2.2710   -2.6220    1.4809 C   0  0  0  0  0  0  0  0  0  0  0  0
   -2.4474   -3.5756    2.5953 C   0  0  0  0  0  0  0  0  0  0  0  0
   -1.7553   -4.8658    2.2108 C   0  0  0  0  0  0  0  0  0  0  0  0
   -3.9477   -3.8622    2.6888 C   0  0  0  0  0  0  0  0  0  0  0  0
   -2.0195   -3.0321    3.9156 C   0  0  0  0  0  0  0  0  0  0  0  0
   -3.4323   -2.4583    0.0977 S   0  0  0  0  0  0  0  0  0  0  0  0
   -2.5098   -1.1752   -0.7120 C   0  0  0  0  0  0  0  0  0  0  0  0
   -2.9701   -0.6042   -1.9381 N   0  0  0  0  0  0  0  0  0  0  0  0
   -3.8279    0.5286   -1.9264 C   0  0  0  0  0  0  0  0  0  0  0  0
   -4.1634    1.0039   -0.8173 O   0  0  0  0  0  0  0  0  0  0  0  0
   -4.3269    1.1531   -3.0988 N   0  0  0  0  0  0  0  0  0  0  0  0
   -5.1835    2.2856   -3.0438 C   0  0  0  0  0  0  0  0  0  0  0  0
   -4.6626    3.5614   -3.0363 C   0  0  0  0  0  0  0  0  0  0  0  0
   -5.4772    4.6753   -2.9832 C   0  0  0  0  0  0  0  0  0  0  0  0
   -6.8396    4.4906   -2.9371 C   0  0  0  0  0  0  0  0  0  0  0  0
   -7.3504    3.2007   -2.9453 C   0  0  0  0  0  0  0  0  0  0  0  0
   -9.1042    3.0004   -2.8855 Cl  0  0  0  0  0  0  0  0  0  0  0  0
   -6.5465    2.0980   -2.9977 C   0  0  0  0  0  0  0  0  0  0  0  0
   -7.2872    0.5072   -3.0039 Cl  0  0  0  0  0  0  0  0  0  0  0  0
    0.9530    0.4658    1.7127 C   0  0  0  0  0  0  0  0  0  0  0  0
    2.0803   -0.5505    1.8974 C   0  0  0  0  0  0  0  0  0  0  0  0
    3.3301    0.0666    1.4295 C   0  0  0  0  0  0  0  0  0  0  0  0
    4.3373   -0.0161    2.1785 O   0  0  0  0  0  0  0  0  0  0  0  0
    7.6862    2.3683    0.9706 H   0  0  0  0  0  0  0  0  0  0  0  0
    8.8965    1.1478    0.5490 H   0  0  0  0  0  0  0  0  0  0  0  0
    7.4636    0.6125    1.4632 H   0  0  0  0  0  0  0  0  0  0  0  0
    7.6004   -0.8657   -1.4489 H   0  0  0  0  0  0  0  0  0  0  0  0
    8.1836    0.5467   -2.3933 H   0  0  0  0  0  0  0  0  0  0  0  0
    9.0335    0.0157   -0.8923 H   0  0  0  0  0  0  0  0  0  0  0  0
    5.9464   -0.4185    0.1508 H   0  0  0  0  0  0  0  0  0  0  0  0
    5.4984    0.1846   -1.4894 H   0  0  0  0  0  0  0  0  0  0  0  0
    5.1599    1.7725    1.1200 H   0  0  0  0  0  0  0  0  0  0  0  0
    4.7167    2.3092   -0.5596 H   0  0  0  0  0  0  0  0  0  0  0  0
    2.3860   -0.1268   -1.3088 H   0  0  0  0  0  0  0  0  0  0  0  0
    3.1869    1.4787   -1.6926 H   0  0  0  0  0  0  0  0  0  0  0  0
    0.8223    1.8409   -1.4256 H   0  0  0  0  0  0  0  0  0  0  0  0
    1.6260    2.4647    0.0624 H   0  0  0  0  0  0  0  0  0  0  0  0
   -0.4665   -1.6360    1.9042 H   0  0  0  0  0  0  0  0  0  0  0  0
   -0.7322   -4.6322    1.8082 H   0  0  0  0  0  0  0  0  0  0  0  0
   -1.7114   -5.4936    3.1229 H   0  0  0  0  0  0  0  0  0  0  0  0
   -2.3591   -5.3288    1.4042 H   0  0  0  0  0  0  0  0  0  0  0  0
   -4.3692   -3.0200    3.2834 H   0  0  0  0  0  0  0  0  0  0  0  0
   -4.4052   -3.9033    1.7003 H   0  0  0  0  0  0  0  0  0  0  0  0
   -4.0469   -4.7869    3.2724 H   0  0  0  0  0  0  0  0  0  0  0  0
   -0.9817   -3.4226    4.1222 H   0  0  0  0  0  0  0  0  0  0  0  0
   -2.0711   -1.9398    3.9836 H   0  0  0  0  0  0  0  0  0  0  0  0
   -2.6402   -3.4249    4.7632 H   0  0  0  0  0  0  0  0  0  0  0  0
   -2.6905   -1.0002   -2.8622 H   0  0  0  0  0  0  0  0  0  0  0  0
   -4.0337    0.7386   -4.0278 H   0  0  0  0  0  0  0  0  0  0  0  0
   -3.5866    3.6942   -3.0730 H   0  0  0  0  0  0  0  0  0  0  0  0
   -5.0443    5.6607   -2.9787 H   0  0  0  0  0  0  0  0  0  0  0  0
   -7.5006    5.3524   -2.8947 H   0  0  0  0  0  0  0  0  0  0  0  0
    0.1356    0.3798    2.4227 H   0  0  0  0  0  0  0  0  0  0  0  0
    1.4775    1.4431    2.0758 H   0  0  0  0  0  0  0  0  0  0  0  0
    1.8493   -1.4857    1.3094 H   0  0  0  0  0  0  0  0  0  0  0  0
    2.1329   -0.8524    2.9524 H   0  0  0  0  0  0  0  0  0  0  0  0
  1  2  1  0
  2  3  1  0
  2  4  1  0
  4  5  1  0
  5  6  1  0
  6  7  1  0
  7  8  1  0
  8  9  1  0
  9 10  1  0
 10 11  2  0
 10 12  1  0
 12 13  1  0
 13 14  2  0
 14 15  1  0
 15 16  1  0
 15 17  1  0
 15 18  1  0
 14 19  1  0
 19 20  1  0
 20 21  1  0
 21 22  1  0
 22 23  2  0
 22 24  1  0
 24 25  1  0
 25 26  2  0
 26 27  1  0
 27 28  2  0
 28 29  1  0
 29 30  1  0
 29 31  2  0
 31 32  1  0
  9 33  1  0
 33 34  1  0
 34 35  1  0
 35 36  2  0
 35  6  1  0
 20 12  2  0
 31 25  1  0
  1 37  1  0
  1 38  1  0
  1 39  1  0
  3 40  1  0
  3 41  1  0
  3 42  1  0
  4 43  1  0
  4 44  1  0
  5 45  1  0
  5 46  1  0
  7 47  1  0
  7 48  1  0
  8 49  1  0
  8 50  1  0
 13 51  1  0
 16 52  1  0
 16 53  1  0
 16 54  1  0
 17 55  1  0
 17 56  1  0
 17 57  1  0
 18 58  1  0
 18 59  1  0
 18 60  1  0
 21 61  1  0
 24 62  1  0
 26 63  1  0
 27 64  1  0
 28 65  1  0
 33 66  1  0
 33 67  1  0
 34 68  1  0
 34 69  1  0
M  END
$$$$
