@<TRIPOS>MOLECULE
*****
 69 71 0 0 0
SMALL
GASTEIGER

@<TRIPOS>ATOM
      1 C           7.8024    1.2933    0.6620 C.3     1  UNL1       -0.0130
      2 N           7.1799    1.0490   -0.6129 N.3     1  UNL1       -0.3069
      3 C           8.0355    0.1562   -1.3711 C.3     1  UNL1       -0.0130
      4 C           5.8593    0.4674   -0.4795 C.3     1  UNL1        0.0141
      5 C           4.8720    1.4336    0.1175 C.3     1  UNL1        0.0275
      6 N           3.5761    0.7668    0.2139 N.am    1  UNL1       -0.2987
      7 C           2.6768    0.8698   -0.9028 C.3     1  UNL1        0.0305
      8 C           1.3954    1.5673   -0.5384 C.3     1  UNL1        0.0308
      9 N           0.6102    0.6314    0.3342 N.am    1  UNL1       -0.2955
     10 C          -0.4255    0.0501   -0.3609 C.2     1  UNL1        0.2490
     11 O          -0.5641    0.4374   -1.6082 O.2     1  UNL1       -0.2699
     12 C          -1.4297   -0.9576    0.0758 C.ar    1  UNL1        0.0657
     13 C          -1.3291   -1.7128    1.1949 C.ar    1  UNL1       -0.0370
     14 C          -2.2710   -2.6220    1.4809 C.ar    1  UNL1       -0.0023
     15 C          -2.4474   -3.5756    2.5953 C.3     1  UNL1       -0.0064
     16 C          -1.7553   -4.8658    2.2108 C.3     1  UNL1       -0.0556
     17 C          -3.9477   -3.8622    2.6888 C.3     1  UNL1       -0.0556
     18 C          -2.0195   -3.0321    3.9156 C.3     1  UNL1       -0.0556
     19 S          -3.4323   -2.4583    0.0977 S.2     1  UNL1       -0.0771
     20 C          -2.5098   -1.1752   -0.7120 C.ar    1  UNL1        0.0853
     21 N          -2.9701   -0.6042   -1.9381 N.am    1  UNL1       -0.2629
     22 C          -3.8279    0.5286   -1.9264 C.2     1  UNL1        0.3085
     23 O          -4.1634    1.0039   -0.8173 O.2     1  UNL1       -0.2521
     24 N          -4.3269    1.1531   -3.0988 N.am    1  UNL1       -0.2678
     25 C          -5.1835    2.2856   -3.0438 C.ar    1  UNL1        0.0546
     26 C          -4.6626    3.5614   -3.0363 C.ar    1  UNL1       -0.0389
     27 C          -5.4772    4.6753   -2.9832 C.ar    1  UNL1       -0.0585
     28 C          -6.8396    4.4906   -2.9371 C.ar    1  UNL1       -0.0419
     29 C          -7.3504    3.2007   -2.9453 C.ar    1  UNL1        0.0610
     30 CL         -9.1042    3.0004   -2.8855 Cl      1  UNL1       -0.0820
     31 C          -6.5465    2.0980   -2.9977 C.ar    1  UNL1        0.0804
     32 CL         -7.2872    0.5072   -3.0039 Cl      1  UNL1       -0.0801
     33 C           0.9530    0.4658    1.7127 C.3     1  UNL1        0.0233
     34 C           2.0803   -0.5505    1.8974 C.3     1  UNL1        0.0399
     35 C           3.3301    0.0666    1.4295 C.2     1  UNL1        0.2171
     36 O           4.3373   -0.0161    2.1785 O.2     1  UNL1       -0.2755
     37 H           7.6862    2.3683    0.9706 H       1  UNL1        0.0391
     38 H           8.8965    1.1478    0.5490 H       1  UNL1        0.0391
     39 H           7.4636    0.6125    1.4632 H       1  UNL1        0.0391
     40 H           7.6004   -0.8657   -1.4489 H       1  UNL1        0.0391
     41 H           8.1836    0.5467   -2.3933 H       1  UNL1        0.0391
     42 H           9.0335    0.0157   -0.8923 H       1  UNL1        0.0391
     43 H           5.9464   -0.4185    0.1508 H       1  UNL1        0.0442
     44 H           5.4984    0.1846   -1.4894 H       1  UNL1        0.0442
     45 H           5.1599    1.7725    1.1200 H       1  UNL1        0.0477
     46 H           4.7167    2.3092   -0.5596 H       1  UNL1        0.0477
     47 H           2.3860   -0.1268   -1.3088 H       1  UNL1        0.0480
     48 H           3.1869    1.4787   -1.6926 H       1  UNL1        0.0480
     49 H           0.8223    1.8409   -1.4256 H       1  UNL1        0.0480
     50 H           1.6260    2.4647    0.0624 H       1  UNL1        0.0480
     51 H          -0.4665   -1.6360    1.9042 H       1  UNL1        0.0634
     52 H          -0.7322   -4.6322    1.8082 H       1  UNL1        0.0238
     53 H          -1.7114   -5.4936    3.1229 H       1  UNL1        0.0238
     54 H          -2.3591   -5.3288    1.4042 H       1  UNL1        0.0238
     55 H          -4.3692   -3.0200    3.2834 H       1  UNL1        0.0238
     56 H          -4.4052   -3.9033    1.7003 H       1  UNL1        0.0238
     57 H          -4.0469   -4.7869    3.2724 H       1  UNL1        0.0238
     58 H          -0.9817   -3.4226    4.1222 H       1  UNL1        0.0238
     59 H          -2.0711   -1.9398    3.9836 H       1  UNL1        0.0238
     60 H          -2.6402   -3.4249    4.7632 H       1  UNL1        0.0238
     61 H          -2.6905   -1.0002   -2.8622 H       1  UNL1        0.1569
     62 H          -4.0337    0.7386   -4.0278 H       1  UNL1        0.1564
     63 H          -3.5866    3.6942   -3.0730 H       1  UNL1        0.0637
     64 H          -5.0443    5.6607   -2.9787 H       1  UNL1        0.0619
     65 H          -7.5006    5.3524   -2.8947 H       1  UNL1        0.0633
     66 H           0.1356    0.3798    2.4227 H       1  UNL1        0.0469
     67 H           1.4775    1.4431    2.0758 H       1  UNL1        0.0469
     68 H           1.8493   -1.4857    1.3094 H       1  UNL1        0.0374
     69 H           2.1329   -0.8524    2.9524 H       1  UNL1        0.0374
@<TRIPOS>BOND
     1     1     2    1
     2     2     3    1
     3     2     4    1
     4     4     5    1
     5     5     6    1
     6     6     7    1
     7     7     8    1
     8     8     9    1
     9     9    10   am
    10    10    11    2
    11    10    12    1
    12    12    13   ar
    13    13    14   ar
    14    14    15    1
    15    15    16    1
    16    15    17    1
    17    15    18    1
    18    14    19   ar
    19    19    20   ar
    20    20    21    1
    21    21    22   am
    22    22    23    2
    23    22    24   am
    24    24    25    1
    25    25    26   ar
    26    26    27   ar
    27    27    28   ar
    28    28    29   ar
    29    29    30    1
    30    29    31   ar
    31    31    32    1
    32     9    33    1
    33    33    34    1
    34    34    35    1
    35    35    36    2
    36    35     6   am
    37    20    12   ar
    38    31    25   ar
    39     1    37    1
    40     1    38    1
    41     1    39    1
    42     3    40    1
    43     3    41    1
    44     3    42    1
    45     4    43    1
    46     4    44    1
    47     5    45    1
    48     5    46    1
    49     7    47    1
    50     7    48    1
    51     8    49    1
    52     8    50    1
    53    13    51    1
    54    16    52    1
    55    16    53    1
    56    16    54    1
    57    17    55    1
    58    17    56    1
    59    17    57    1
    60    18    58    1
    61    18    59    1
    62    18    60    1
    63    21    61    1
    64    24    62    1
    65    26    63    1
    66    27    64    1
    67    28    65    1
    68    33    66    1
    69    33    67    1
    70    34    68    1
    71    34    69    1
