
     RDKit          3D

 58 62  0  0  0  0  0  0  0  0999 V2000
   -2.2978   -2.8030    0.3502 C   0  0  0  0  0  0  0  0  0  0  0  0
   -3.0415   -1.5362    0.4135 C   0  0  0  0  0  0  0  0  0  0  0  0
   -2.5433   -0.2704    0.5617 C   0  0  0  0  0  0  0  0  0  0  0  0
   -1.0699   -0.1203    0.6433 C   0  0  0  0  0  0  0  0  0  0  0  0
   -0.4922   -0.2014   -0.7664 C   0  0  0  0  0  0  0  0  0  0  0  0
    0.9105   -0.0633   -0.6371 N   0  0  0  0  0  0  0  0  0  0  0  0
    1.4254    1.1696   -0.2213 C   0  0  0  0  0  0  0  0  0  0  0  0
    2.8075    1.5543   -0.5805 C   0  0  0  0  0  0  0  0  0  0  0  0
    3.6423    0.4035   -1.0853 C   0  0  0  0  0  0  0  0  0  0  0  0
    3.1225   -0.8787   -0.4767 C   0  0  0  0  0  0  0  0  0  0  0  0
    1.7453   -1.0666   -1.1555 C   0  0  0  0  0  0  0  0  0  0  0  0
    5.0837    0.5976   -1.0019 C   0  0  0  0  0  0  0  0  0  0  0  0
    5.7790    1.2008   -2.0154 N   0  0  0  0  0  0  0  0  0  0  0  0
    7.0144    1.2681   -1.7287 O   0  0  0  0  0  0  0  0  0  0  0  0
    7.3270    0.7613   -0.5670 C   0  0  0  0  0  0  0  0  0  0  0  0
    6.1079    0.3447   -0.1224 C   0  0  0  0  0  0  0  0  0  0  0  0
    5.9803   -0.2715    1.1152 C   0  0  0  0  0  0  0  0  0  0  0  0
    7.0638   -0.4859    1.9352 C   0  0  0  0  0  0  0  0  0  0  0  0
    8.3042   -0.0522    1.4620 C   0  0  0  0  0  0  0  0  0  0  0  0
    9.4372   -0.2277    2.2163 F   0  0  0  0  0  0  0  0  0  0  0  0
    8.4438    0.5685    0.2198 C   0  0  0  0  0  0  0  0  0  0  0  0
   -3.3996    0.8098    0.6170 C   0  0  0  0  0  0  0  0  0  0  0  0
   -2.8158    1.9296    0.7554 O   0  0  0  0  0  0  0  0  0  0  0  0
   -4.7328    0.6456    0.5270 N   0  0  0  0  0  0  0  0  0  0  0  0
   -5.4506    1.8929    0.6047 C   0  0  0  0  0  0  0  0  0  0  0  0
   -6.8969    1.5846    0.9029 C   0  0  0  0  0  0  0  0  0  0  0  0
   -7.4024    0.4558    0.0480 C   0  0  0  0  0  0  0  0  0  0  0  0
   -6.6959   -0.8425    0.2753 C   0  0  0  0  0  0  0  0  0  0  0  0
   -6.8589   -1.6868   -0.8430 O   0  0  0  0  0  0  0  0  0  0  0  0
   -5.2120   -0.6141    0.3801 C   0  0  0  0  0  0  0  0  0  0  0  0
   -4.3861   -1.6675    0.3259 N   0  0  0  0  0  0  0  0  0  0  0  0
   -2.6964   -3.3926   -0.5244 H   0  0  0  0  0  0  0  0  0  0  0  0
   -2.4873   -3.4376    1.2712 H   0  0  0  0  0  0  0  0  0  0  0  0
   -1.2151   -2.7180    0.2937 H   0  0  0  0  0  0  0  0  0  0  0  0
   -0.7738    0.8289    1.1306 H   0  0  0  0  0  0  0  0  0  0  0  0
   -0.6402   -0.9297    1.2993 H   0  0  0  0  0  0  0  0  0  0  0  0
   -0.8428   -1.0493   -1.3394 H   0  0  0  0  0  0  0  0  0  0  0  0
   -0.9139    0.7035   -1.3013 H   0  0  0  0  0  0  0  0  0  0  0  0
    0.7395    1.9980   -0.5914 H   0  0  0  0  0  0  0  0  0  0  0  0
    1.2448    1.2279    0.9017 H   0  0  0  0  0  0  0  0  0  0  0  0
    3.2682    2.0240    0.3308 H   0  0  0  0  0  0  0  0  0  0  0  0
    2.7789    2.3878   -1.3211 H   0  0  0  0  0  0  0  0  0  0  0  0
    3.3551    0.3192   -2.1846 H   0  0  0  0  0  0  0  0  0  0  0  0
    3.7884   -1.7200   -0.6393 H   0  0  0  0  0  0  0  0  0  0  0  0
    2.9059   -0.7600    0.6217 H   0  0  0  0  0  0  0  0  0  0  0  0
    1.9482   -0.8968   -2.2529 H   0  0  0  0  0  0  0  0  0  0  0  0
    1.4095   -2.0997   -0.9897 H   0  0  0  0  0  0  0  0  0  0  0  0
    5.0375   -0.6133    1.5031 H   0  0  0  0  0  0  0  0  0  0  0  0
    6.9693   -0.9612    2.8922 H   0  0  0  0  0  0  0  0  0  0  0  0
    9.3805    0.9091   -0.1676 H   0  0  0  0  0  0  0  0  0  0  0  0
   -5.3412    2.4052   -0.3748 H   0  0  0  0  0  0  0  0  0  0  0  0
   -5.0674    2.5232    1.4376 H   0  0  0  0  0  0  0  0  0  0  0  0
   -7.5292    2.4645    0.6664 H   0  0  0  0  0  0  0  0  0  0  0  0
   -6.9734    1.3042    1.9820 H   0  0  0  0  0  0  0  0  0  0  0  0
   -8.4851    0.3093    0.2512 H   0  0  0  0  0  0  0  0  0  0  0  0
   -7.2570    0.7380   -1.0164 H   0  0  0  0  0  0  0  0  0  0  0  0
   -7.0210   -1.3876    1.1874 H   0  0  0  0  0  0  0  0  0  0  0  0
   -6.4812   -2.5755   -0.5826 H   0  0  0  0  0  0  0  0  0  0  0  0
  1  2  1  0
  2  3  2  0
  3  4  1  0
  4  5  1  0
  5  6  1  0
  6  7  1  0
  7  8  1  0
  8  9  1  0
  9 10  1  0
 10 11  1  0
  9 12  1  0
 12 13  2  0
 13 14  1  0
 14 15  1  0
 15 16  2  0
 16 17  1  0
 17 18  2  0
 18 19  1  0
 19 20  1  0
 19 21  2  0
  3 22  1  0
 22 23  2  0
 22 24  1  0
 24 25  1  0
 25 26  1  0
 26 27  1  0
 27 28  1  0
 28 29  1  0
 28 30  1  0
 30 31  2  0
 31  2  1  0
 11  6  1  0
 16 12  1  0
 30 24  1  0
 21 15  1  0
  1 32  1  0
  1 33  1  0
  1 34  1  0
  4 35  1  0
  4 36  1  0
  5 37  1  0
  5 38  1  0
  7 39  1  0
  7 40  1  0
  8 41  1  0
  8 42  1  0
  9 43  1  0
 10 44  1  0
 10 45  1  0
 11 46  1  0
 11 47  1  0
 17 48  1  0
 18 49  1  0
 21 50  1  0
 25 51  1  0
 25 52  1  0
 26 53  1  0
 26 54  1  0
 27 55  1  0
 27 56  1  0
 28 57  1  0
 29 58  1  0
M  END
$$$$
