@<TRIPOS>MOLECULE
*****
 27 28 0 0 0
SMALL
GASTEIGER

@<TRIPOS>ATOM
      1 C          -2.5943   -2.2948    0.0548 C.3     1  UNL1       -0.0155
      2 N          -1.8155   -1.1614    0.5198 N.3     1  UNL1       -0.3150
      3 C          -1.4912   -0.3323   -0.6352 C.3     1  UNL1        0.0216
      4 C          -0.7298    0.8738   -0.3196 C.ar    1  UNL1       -0.0254
      5 C          -1.3450    2.1355   -0.3086 C.ar    1  UNL1       -0.0568
      6 C          -0.7337    3.3260   -0.0314 C.ar    1  UNL1       -0.0614
      7 C           0.6083    3.2846    0.2644 C.ar    1  UNL1       -0.0612
      8 C           1.2797    2.1030    0.2755 C.ar    1  UNL1       -0.0532
      9 C           0.5908    0.9744   -0.0119 C.ar    1  UNL1       -0.0069
     10 C           1.3506   -0.3057    0.0120 C.ar    1  UNL1        0.0196
     11 C           2.7567   -0.4225    0.3079 C.ar    1  UNL1       -0.0469
     12 C           3.2538   -1.6812    0.2761 C.ar    1  UNL1       -0.0541
     13 C           2.4105   -2.7773   -0.0319 C.ar    1  UNL1       -0.0237
     14 S           0.8545   -1.9775   -0.2841 S.2     1  UNL1       -0.0967
     15 H          -3.2924   -1.9245   -0.7167 H       1  UNL1        0.0388
     16 H          -1.9863   -3.0871   -0.3775 H       1  UNL1        0.0388
     17 H          -3.2352   -2.6898    0.8912 H       1  UNL1        0.0388
     18 H          -2.2474   -0.6320    1.2781 H       1  UNL1        0.1219
     19 H          -1.0955   -0.9263   -1.4789 H       1  UNL1        0.0474
     20 H          -2.5083    0.0093   -1.0010 H       1  UNL1        0.0474
     21 H          -2.4218    2.2021   -0.5422 H       1  UNL1        0.0621
     22 H          -1.2870    4.2545   -0.0458 H       1  UNL1        0.0618
     23 H           1.0999    4.2159    0.4841 H       1  UNL1        0.0618
     24 H           2.3237    2.1549    0.5155 H       1  UNL1        0.0624
     25 H           3.3823    0.4260    0.5404 H       1  UNL1        0.0629
     26 H           4.2813   -1.9527    0.4713 H       1  UNL1        0.0623
     27 H           2.5913   -3.7949   -0.1062 H       1  UNL1        0.0693
@<TRIPOS>BOND
     1     1     2    1
     2     2     3    1
     3     3     4    1
     4     4     5   ar
     5     5     6   ar
     6     6     7   ar
     7     7     8   ar
     8     8     9   ar
     9     9    10    1
    10    10    11   ar
    11    11    12   ar
    12    12    13   ar
    13    13    14   ar
    14     9     4   ar
    15    14    10   ar
    16     1    15    1
    17     1    16    1
    18     1    17    1
    19     2    18    1
    20     3    19    1
    21     3    20    1
    22     5    21    1
    23     6    22    1
    24     7    23    1
    25     8    24    1
    26    11    25    1
    27    12    26    1
    28    13    27    1
