@<TRIPOS>MOLECULE
*****
 75 78 0 0 0
SMALL
GASTEIGER

@<TRIPOS>ATOM
      1 C           2.1963   -1.8381    1.1022 C.3     1  UNL1        0.1328
      2 C           3.1739   -1.5635    2.2559 C.3     1  UNL1        0.0035
      3 C           4.3744   -0.8898    1.7225 C.ar    1  UNL1       -0.0446
      4 C           4.5725    0.4883    1.6804 C.ar    1  UNL1       -0.0550
      5 C           5.7094    1.0691    1.1612 C.ar    1  UNL1       -0.0191
      6 C           6.7214    0.3053    0.6511 C.ar    1  UNL1        0.1321
      7 O           7.8574    0.8754    0.1311 O.3     1  UNL1       -0.4040
      8 P           8.9656   -0.0096   -0.8238 P.3     1  UNL1        0.5280
      9 O           9.8990   -1.0778    0.0997 O.3     1  UNL1       -0.2930
     10 O          10.0296    1.0366   -1.6105 O.3     1  UNL1       -0.2930
     11 O           8.1620   -0.7929   -1.8639 O.2     1  UNL1       -0.2156
     12 C           6.5307   -1.0762    0.6906 C.ar    1  UNL1       -0.0191
     13 C           5.3980   -1.6734    1.2068 C.ar    1  UNL1       -0.0550
     14 N           2.8857   -2.6780    0.1850 N.2     1  UNL1       -0.2418
     15 C           2.8262   -2.8059   -1.0560 C.2     1  UNL1        0.1799
     16 C           3.7949   -3.8553   -1.5034 C.3     1  UNL1        0.0112
     17 O           1.8770   -1.9275   -1.5914 O.2     1  UNL1       -0.4958
     18 C           1.7814   -0.5185    0.5709 C.2     1  UNL1        0.2089
     19 O           2.5776    0.3013   -0.1951 O.2     1  UNL1       -0.4942
     20 N           0.6173   -0.1594    0.8635 N.2     1  UNL1       -0.2402
     21 C          -0.1515    0.9861    0.5746 C.3     1  UNL1        0.1301
     22 C           0.5785    2.2909    0.4872 C.3     1  UNL1       -0.0218
     23 C           0.3927    2.9742   -0.8631 C.3     1  UNL1       -0.0492
     24 C          -0.7541    3.9530   -0.7869 C.3     1  UNL1       -0.0371
     25 C          -2.0465    3.1869   -0.7106 C.3     1  UNL1        0.0151
     26 N          -1.8697    1.7973   -1.1622 N.am    1  UNL1       -0.2954
     27 C          -2.8356    1.4243   -2.2016 C.3     1  UNL1        0.0398
     28 C          -4.0148    0.8814   -1.4607 C.ar    1  UNL1       -0.0301
     29 C          -4.1465   -0.4633   -1.1433 C.ar    1  UNL1       -0.0565
     30 C          -5.2302   -0.9755   -0.4574 C.ar    1  UNL1       -0.0537
     31 C          -6.2449   -0.1307   -0.0569 C.ar    1  UNL1       -0.0179
     32 C          -6.1468    1.2125   -0.3552 C.ar    1  UNL1       -0.0537
     33 C          -5.0539    1.7073   -1.0430 C.ar    1  UNL1       -0.0565
     34 C          -7.4059   -0.6484    0.6726 C.ar    1  UNL1       -0.0179
     35 C          -8.6457   -0.0487    0.5277 C.ar    1  UNL1       -0.0540
     36 C          -9.7480   -0.5314    1.2146 C.ar    1  UNL1       -0.0612
     37 C          -9.6399   -1.6250    2.0633 C.ar    1  UNL1       -0.0617
     38 C          -8.4044   -2.2209    2.2066 C.ar    1  UNL1       -0.0612
     39 C          -7.2979   -1.7500    1.5280 C.ar    1  UNL1       -0.0540
     40 C          -0.9106    0.8403   -0.7131 C.2     1  UNL1        0.2405
     41 O          -0.8824   -0.0670   -1.6061 O.2     1  UNL1       -0.2733
     42 H           1.3241   -2.4068    1.5310 H       1  UNL1        0.0646
     43 H           3.4450   -2.4938    2.7965 H       1  UNL1        0.0339
     44 H           2.7103   -0.8373    2.9817 H       1  UNL1        0.0339
     45 H           3.7800    1.1210    2.0896 H       1  UNL1        0.0621
     46 H           5.8177    2.1477    1.1520 H       1  UNL1        0.0654
     47 H          10.0113   -1.9189   -0.3709 H       1  UNL1        0.2231
     48 H          10.6743    0.4641   -2.1255 H       1  UNL1        0.2231
     49 H           7.3696   -1.6455    0.2715 H       1  UNL1        0.0654
     50 H           5.3842   -2.7379    1.1717 H       1  UNL1        0.0621
     51 H           4.8381   -3.5148   -1.3637 H       1  UNL1        0.0324
     52 H           3.5710   -4.8311   -1.0267 H       1  UNL1        0.0324
     53 H           3.6575   -3.9602   -2.6177 H       1  UNL1        0.0324
     54 H           0.8722   -2.1181   -1.4430 H       1  UNL1        0.2934
     55 H           2.2002    0.7257   -1.0579 H       1  UNL1        0.2935
     56 H          -0.9640    1.1187    1.3601 H       1  UNL1        0.0642
     57 H           1.6543    2.2506    0.6865 H       1  UNL1        0.0290
     58 H           0.1786    3.0204    1.2562 H       1  UNL1        0.0290
     59 H           0.2305    2.2172   -1.6543 H       1  UNL1        0.0267
     60 H           1.3002    3.5526   -1.1413 H       1  UNL1        0.0267
     61 H          -0.7330    4.6481   -1.6547 H       1  UNL1        0.0280
     62 H          -0.6307    4.5464    0.1685 H       1  UNL1        0.0280
     63 H          -2.4706    3.1840    0.3160 H       1  UNL1        0.0465
     64 H          -2.7722    3.7188   -1.3359 H       1  UNL1        0.0465
     65 H          -2.4152    0.6791   -2.9017 H       1  UNL1        0.0514
     66 H          -3.1622    2.2921   -2.7799 H       1  UNL1        0.0514
     67 H          -3.3794   -1.1667   -1.4350 H       1  UNL1        0.0621
     68 H          -5.2799   -2.0210   -0.2386 H       1  UNL1        0.0624
     69 H          -6.9738    1.8536   -0.0197 H       1  UNL1        0.0624
     70 H          -5.0267    2.7770   -1.2526 H       1  UNL1        0.0621
     71 H          -8.7944    0.8081   -0.1201 H       1  UNL1        0.0624
     72 H         -10.7573   -0.1336    1.1702 H       1  UNL1        0.0618
     73 H         -10.4875   -2.0411    2.6285 H       1  UNL1        0.0618
     74 H          -8.3180   -3.0815    2.8742 H       1  UNL1        0.0618
     75 H          -6.3460   -2.2203    1.6480 H       1  UNL1        0.0624
@<TRIPOS>BOND
     1     1     2    1
     2     2     3    1
     3     3     4   ar
     4     4     5   ar
     5     5     6   ar
     6     6     7    1
     7     7     8    1
     8     8     9    1
     9     8    10    1
    10     8    11    2
    11     6    12   ar
    12    12    13   ar
    13     1    14    1
    14    14    15    2
    15    15    16    1
    16    15    17    1
    17     1    18    1
    18    18    19    1
    19    18    20    2
    20    20    21    1
    21    21    22    1
    22    22    23    1
    23    23    24    1
    24    24    25    1
    25    25    26    1
    26    26    27    1
    27    27    28    1
    28    28    29   ar
    29    29    30   ar
    30    30    31   ar
    31    31    32   ar
    32    32    33   ar
    33    31    34    1
    34    34    35   ar
    35    35    36   ar
    36    36    37   ar
    37    37    38   ar
    38    38    39   ar
    39    26    40   am
    40    40    41    2
    41    13     3   ar
    42    40    21    1
    43    33    28   ar
    44    39    34   ar
    45     1    42    1
    46     2    43    1
    47     2    44    1
    48     4    45    1
    49     5    46    1
    50     9    47    1
    51    10    48    1
    52    12    49    1
    53    13    50    1
    54    16    51    1
    55    16    52    1
    56    16    53    1
    57    17    54    1
    58    19    55    1
    59    21    56    1
    60    22    57    1
    61    22    58    1
    62    23    59    1
    63    23    60    1
    64    24    61    1
    65    24    62    1
    66    25    63    1
    67    25    64    1
    68    27    65    1
    69    27    66    1
    70    29    67    1
    71    30    68    1
    72    32    69    1
    73    33    70    1
    74    35    71    1
    75    36    72    1
    76    37    73    1
    77    38    74    1
    78    39    75    1
