
     RDKit          3D

 60 63  0  0  0  0  0  0  0  0999 V2000
    6.8588   -1.6733   -2.0088 C   0  0  0  0  0  0  0  0  0  0  0  0
    6.0373   -2.1570   -0.8321 C   0  0  0  0  0  0  0  0  0  0  0  0
    6.8820   -2.5546    0.3398 C   0  0  0  0  0  0  0  0  0  0  0  0
    4.9977   -1.2174   -0.4782 N   0  0  0  0  0  0  0  0  0  0  0  0
    5.0552    0.1204   -0.0154 C   0  0  0  0  0  0  0  0  0  0  0  0
    3.9753    0.9240    0.2860 C   0  0  0  0  0  0  0  0  0  0  0  0
    4.1602    2.2095    0.7085 N   0  0  0  0  0  0  0  0  0  0  0  0
    5.4326    2.6890    0.8308 C   0  0  0  0  0  0  0  0  0  0  0  0
    6.5381    1.9232    0.5419 C   0  0  0  0  0  0  0  0  0  0  0  0
    6.3594    0.6043    0.1071 C   0  0  0  0  0  0  0  0  0  0  0  0
    2.6779    0.3617    0.1825 N   0  0  0  0  0  0  0  0  0  0  0  0
    2.3251   -0.6504    1.1950 C   0  0  0  0  0  0  0  0  0  0  0  0
    1.1280   -0.0521    1.9162 C   0  0  0  0  0  0  0  0  0  0  0  0
    0.0322    0.1386    0.9691 N   0  0  0  0  0  0  0  0  0  0  0  0
    0.3491   -0.0733   -0.4329 C   0  0  0  0  0  0  0  0  0  0  0  0
    1.6279    0.6402   -0.7983 C   0  0  0  0  0  0  0  0  0  0  0  0
   -1.1885    0.5076    1.5593 C   0  0  0  0  0  0  0  0  0  0  0  0
   -1.1181    0.6126    2.8222 O   0  0  0  0  0  0  0  0  0  0  0  0
   -2.4744    0.7731    0.9290 C   0  0  0  0  0  0  0  0  0  0  0  0
   -3.6934    0.3214    1.4519 C   0  0  0  0  0  0  0  0  0  0  0  0
   -4.6918    0.7574    0.5853 C   0  0  0  0  0  0  0  0  0  0  0  0
   -4.0877    1.4675   -0.4565 C   0  0  0  0  0  0  0  0  0  0  0  0
   -2.7710    1.4422   -0.1958 N   0  0  0  0  0  0  0  0  0  0  0  0
   -4.8995    1.9896   -1.4348 C   0  0  0  0  0  0  0  0  0  0  0  0
   -6.2655    1.8258   -1.4017 C   0  0  0  0  0  0  0  0  0  0  0  0
   -6.9088    1.1321   -0.3918 C   0  0  0  0  0  0  0  0  0  0  0  0
   -8.3104    0.9361   -0.3031 N   0  0  0  0  0  0  0  0  0  0  0  0
   -9.0459   -0.5761    0.1081 S   0  0  0  0  0  0  0  0  0  0  0  0
   -8.5927   -1.7589   -1.1244 C   0  0  0  0  0  0  0  0  0  0  0  0
   -8.5695   -1.0115    1.4583 O   0  0  0  0  0  0  0  0  0  0  0  0
  -10.5292   -0.4625    0.1421 O   0  0  0  0  0  0  0  0  0  0  0  0
   -6.0683    0.6083    0.5930 C   0  0  0  0  0  0  0  0  0  0  0  0
    6.8992   -2.4950   -2.7806 H   0  0  0  0  0  0  0  0  0  0  0  0
    7.8685   -1.3602   -1.7531 H   0  0  0  0  0  0  0  0  0  0  0  0
    6.2623   -0.8581   -2.4991 H   0  0  0  0  0  0  0  0  0  0  0  0
    5.5037   -3.0947   -1.1605 H   0  0  0  0  0  0  0  0  0  0  0  0
    7.9520   -2.6057    0.0896 H   0  0  0  0  0  0  0  0  0  0  0  0
    6.6116   -3.5809    0.7092 H   0  0  0  0  0  0  0  0  0  0  0  0
    6.6890   -1.8553    1.1805 H   0  0  0  0  0  0  0  0  0  0  0  0
    3.9857   -1.5189   -0.5588 H   0  0  0  0  0  0  0  0  0  0  0  0
    5.4317    3.7177    1.1756 H   0  0  0  0  0  0  0  0  0  0  0  0
    7.4753    2.4305    0.6826 H   0  0  0  0  0  0  0  0  0  0  0  0
    7.3063    0.1650   -0.0682 H   0  0  0  0  0  0  0  0  0  0  0  0
    3.1307   -0.7872    1.9249 H   0  0  0  0  0  0  0  0  0  0  0  0
    1.9965   -1.5923    0.7339 H   0  0  0  0  0  0  0  0  0  0  0  0
    0.8540   -0.6397    2.7883 H   0  0  0  0  0  0  0  0  0  0  0  0
    1.4501    0.9732    2.2408 H   0  0  0  0  0  0  0  0  0  0  0  0
    0.5276   -1.1768   -0.6028 H   0  0  0  0  0  0  0  0  0  0  0  0
   -0.4359    0.2025   -1.1311 H   0  0  0  0  0  0  0  0  0  0  0  0
    1.9769    0.2289   -1.7675 H   0  0  0  0  0  0  0  0  0  0  0  0
    1.4767    1.7326   -0.9218 H   0  0  0  0  0  0  0  0  0  0  0  0
   -3.8907   -0.2656    2.3643 H   0  0  0  0  0  0  0  0  0  0  0  0
   -2.0836    1.9079   -0.8258 H   0  0  0  0  0  0  0  0  0  0  0  0
   -4.4605    2.5425   -2.2456 H   0  0  0  0  0  0  0  0  0  0  0  0
   -6.8810    2.2512   -2.1908 H   0  0  0  0  0  0  0  0  0  0  0  0
   -8.9091    1.7792   -0.5082 H   0  0  0  0  0  0  0  0  0  0  0  0
   -7.5511   -2.0885   -0.9461 H   0  0  0  0  0  0  0  0  0  0  0  0
   -8.6318   -1.2410   -2.1211 H   0  0  0  0  0  0  0  0  0  0  0  0
   -9.2839   -2.6217   -1.1299 H   0  0  0  0  0  0  0  0  0  0  0  0
   -6.4925    0.0531    1.4143 H   0  0  0  0  0  0  0  0  0  0  0  0
  1  2  1  0
  2  3  1  0
  2  4  1  0
  4  5  1  0
  5  6  2  0
  6  7  1  0
  7  8  2  0
  8  9  1  0
  9 10  2  0
  6 11  1  0
 11 12  1  0
 12 13  1  0
 13 14  1  0
 14 15  1  0
 15 16  1  0
 14 17  1  0
 17 18  2  0
 17 19  1  0
 19 20  2  0
 20 21  1  0
 21 22  2  0
 22 23  1  0
 22 24  1  0
 24 25  2  0
 25 26  1  0
 26 27  1  0
 27 28  1  0
 28 29  1  0
 28 30  2  0
 28 31  2  0
 26 32  2  0
 10  5  1  0
 16 11  1  0
 23 19  1  0
 32 21  1  0
  1 33  1  0
  1 34  1  0
  1 35  1  0
  2 36  1  0
  3 37  1  0
  3 38  1  0
  3 39  1  0
  4 40  1  0
  8 41  1  0
  9 42  1  0
 10 43  1  0
 12 44  1  0
 12 45  1  0
 13 46  1  0
 13 47  1  0
 15 48  1  0
 15 49  1  0
 16 50  1  0
 16 51  1  0
 20 52  1  0
 23 53  1  0
 24 54  1  0
 25 55  1  0
 27 56  1  0
 29 57  1  0
 29 58  1  0
 29 59  1  0
 32 60  1  0
M  END
$$$$
