@<TRIPOS>MOLECULE
*****
 33 35 0 0 0
SMALL
GASTEIGER

@<TRIPOS>ATOM
      1 C4*        -2.5838    0.3175   -0.5534 C.3     1  UNL1        0.1126
      2 C5*        -3.5926    1.3669   -0.1608 C.3     1  UNL1        0.0730
      3 O5*        -3.3333    2.5998   -0.7073 O.3     1  UNL1       -0.3924
      4 O4*        -1.2849    0.6526   -0.1502 O.3     1  UNL1       -0.3457
      5 C1*        -0.6798   -0.5821   -0.3317 C.3     1  UNL1        0.1667
      6 N           0.7149   -0.6360   -0.0388 N.ar    1  UNL1       -0.2856
      7 C           1.3151   -1.8215    0.1817 C.ar    1  UNL1        0.1003
      8 N           2.6122   -1.5837    0.4307 N.ar    1  UNL1       -0.2322
      9 C           2.8148   -0.2537    0.3645 C.ar    1  UNL1        0.1285
     10 C           3.9094    0.5879    0.5225 C.ar    1  UNL1        0.0554
     11 N           5.1595   -0.0197    0.8305 N.pl3   1  UNL1       -0.3562
     12 C           3.8680    1.9470    0.4034 C.ar    1  UNL1       -0.0207
     13 C           2.6024    2.4518    0.1006 C.ar    1  UNL1        0.0318
     14 N           1.5068    1.6715   -0.0626 N.ar    1  UNL1       -0.2356
     15 C           1.6169    0.3567    0.0671 C.ar    1  UNL1        0.1642
     16 C2*        -1.5200   -1.4257    0.6233 C.3     1  UNL1        0.1285
     17 O2*        -1.3044   -2.7652    0.3901 O.3     1  UNL1       -0.3847
     18 C3*        -2.9162   -0.9675    0.1791 C.3     1  UNL1        0.1135
     19 O3*        -3.4331   -1.9210   -0.6961 O.3     1  UNL1       -0.3864
     20 H4*        -2.5553    0.1830   -1.6466 H       1  UNL1        0.0647
     21 H5*1       -4.5737    0.9937   -0.5452 H       1  UNL1        0.0584
     22 H5*2       -3.6590    1.3879    0.9533 H       1  UNL1        0.0584
     23 H5*        -2.9398    3.2096   -0.0322 H       1  UNL1        0.2095
     24 H1*        -0.9295   -0.9098   -1.3557 H       1  UNL1        0.0866
     25 H           1.0334   -2.8683    0.2086 H       1  UNL1        0.1030
     26 H           5.5051   -0.3391   -0.0992 H       1  UNL1        0.1424
     27 H           5.7619   -0.2084    1.6761 H       1  UNL1        0.1424
     28 H           4.7188    2.5820    0.5278 H       1  UNL1        0.0652
     29 H           2.4404    3.5092   -0.0189 H       1  UNL1        0.0831
     30 H2*        -1.3276   -1.1319    1.6760 H       1  UNL1        0.0665
     31 H2*        -1.5946   -2.9407   -0.5380 H       1  UNL1        0.2101
     32 H3*        -3.5778   -0.7843    1.0293 H       1  UNL1        0.0647
     33 H3*        -3.7742   -2.6584   -0.1465 H       1  UNL1        0.2100
@<TRIPOS>BOND
     1     1     2    1
     2     2     3    1
     3     1     4    1
     4     4     5    1
     5     5     6    1
     6     6     7   ar
     7     7     8   ar
     8     8     9   ar
     9     9    10   ar
    10    10    11    1
    11    10    12   ar
    12    12    13   ar
    13    13    14   ar
    14    14    15   ar
    15     5    16    1
    16    16    17    1
    17    16    18    1
    18    18    19    1
    19    18     1    1
    20    15     6   ar
    21    15     9   ar
    22     1    20    1
    23     2    21    1
    24     2    22    1
    25     3    23    1
    26     5    24    1
    27     7    25    1
    28    11    26    1
    29    11    27    1
    30    12    28    1
    31    13    29    1
    32    16    30    1
    33    17    31    1
    34    18    32    1
    35    19    33    1
