
     RDKit          3D

 67 71  0  0  0  0  0  0  0  0999 V2000
    5.5163   -4.7175    1.8011 C   0  0  0  0  0  0  0  0  0  0  0  0
    4.7078   -3.6252    1.3932 O   0  0  0  0  0  0  0  0  0  0  0  0
    5.3224   -2.5752    0.7336 C   0  0  0  0  0  0  0  0  0  0  0  0
    6.6809   -2.5666    0.4680 C   0  0  0  0  0  0  0  0  0  0  0  0
    7.3294   -1.5220   -0.1954 C   0  0  0  0  0  0  0  0  0  0  0  0
    6.5550   -0.4548   -0.5968 C   0  0  0  0  0  0  0  0  0  0  0  0
    5.2131   -0.4590   -0.3367 C   0  0  0  0  0  0  0  0  0  0  0  0
    4.5597   -1.4923    0.3218 C   0  0  0  0  0  0  0  0  0  0  0  0
    3.1135   -1.4321    0.5688 C   0  0  0  0  0  0  0  0  0  0  0  0
    2.5472   -2.3897    1.1715 O   0  0  0  0  0  0  0  0  0  0  0  0
    2.3735   -0.2616    0.1075 C   0  0  0  0  0  0  0  0  0  0  0  0
    1.0181   -0.2388    0.3563 C   0  0  0  0  0  0  0  0  0  0  0  0
    0.2956   -1.2284    1.0061 O   0  0  0  0  0  0  0  0  0  0  0  0
    0.2463    0.8286   -0.0459 C   0  0  0  0  0  0  0  0  0  0  0  0
    0.8641    1.8761   -0.7046 C   0  0  0  0  0  0  0  0  0  0  0  0
    0.0737    3.0521   -1.1542 C   0  0  0  0  0  0  0  0  0  0  0  0
   -0.8500    3.5545   -0.0712 C   0  0  2  0  0  0  0  0  0  0  0  0
   -0.1496    4.3998    0.7875 O   0  0  0  0  0  0  0  0  0  0  0  0
   -1.4868    2.4336    0.7069 C   0  0  0  0  0  0  0  0  0  0  0  0
   -1.2063    1.0771    0.1037 C   0  0  2  0  0  0  0  0  0  0  0  0
   -1.8734    0.1153    0.8439 O   0  0  0  0  0  0  0  0  0  0  0  0
   -2.8183   -0.4962    0.0742 C   0  0  1  0  0  0  0  0  0  0  0  0
   -2.6428   -1.9876   -0.1050 C   0  0  0  0  0  0  0  0  0  0  0  0
   -3.7722   -2.4457   -1.0073 C   0  0  2  0  0  0  0  0  0  0  0  0
   -3.8202   -1.4728   -2.0901 N   0  0  0  0  0  0  0  0  0  0  0  0
   -5.0256   -2.4202   -0.1583 C   0  0  2  0  0  0  0  0  0  0  0  0
   -6.1096   -1.8888   -0.8509 O   0  0  0  0  0  0  0  0  0  0  0  0
   -4.7382   -1.4523    0.9830 C   0  0  2  0  0  0  0  0  0  0  0  0
   -6.0910   -1.0071    1.5408 C   0  0  0  0  0  0  0  0  0  0  0  0
   -4.1186   -0.3126    0.5394 O   0  0  0  0  0  0  0  0  0  0  0  0
   -1.8850    4.3793   -0.7545 C   0  0  0  0  0  0  0  0  0  0  0  0
   -2.2016    5.8176   -0.6287 C   0  0  0  0  0  0  0  0  0  0  0  0
   -2.5457    3.6806   -1.5366 O   0  0  0  0  0  0  0  0  0  0  0  0
    2.2406    1.8228   -0.9417 C   0  0  0  0  0  0  0  0  0  0  0  0
    2.9062    2.8652   -1.6070 O   0  0  0  0  0  0  0  0  0  0  0  0
    3.0277    0.7616   -0.5459 C   0  0  0  0  0  0  0  0  0  0  0  0
    4.4638    0.7064   -0.7936 C   0  0  0  0  0  0  0  0  0  0  0  0
    5.0061    1.6782   -1.3989 O   0  0  0  0  0  0  0  0  0  0  0  0
    6.2838   -4.3351    2.5058 H   0  0  0  0  0  0  0  0  0  0  0  0
    5.9968   -5.2092    0.9234 H   0  0  0  0  0  0  0  0  0  0  0  0
    4.8826   -5.4617    2.3187 H   0  0  0  0  0  0  0  0  0  0  0  0
    7.2476   -3.4414    0.8102 H   0  0  0  0  0  0  0  0  0  0  0  0
    8.3968   -1.5603   -0.3809 H   0  0  0  0  0  0  0  0  0  0  0  0
    7.0313    0.3615   -1.1094 H   0  0  0  0  0  0  0  0  0  0  0  0
    0.5367   -1.4438    1.9776 H   0  0  0  0  0  0  0  0  0  0  0  0
    0.7941    3.8754   -1.3382 H   0  0  0  0  0  0  0  0  0  0  0  0
   -0.4316    2.8326   -2.1071 H   0  0  0  0  0  0  0  0  0  0  0  0
   -0.6585    4.5501    1.6206 H   0  0  0  0  0  0  0  0  0  0  0  0
   -1.0909    2.4243    1.7437 H   0  0  0  0  0  0  0  0  0  0  0  0
   -2.5836    2.5900    0.6769 H   0  0  0  0  0  0  0  0  0  0  0  0
   -1.6242    1.0678   -0.9232 H   0  0  0  0  0  0  0  0  0  0  0  0
   -2.8042   -0.0665   -0.9450 H   0  0  0  0  0  0  0  0  0  0  0  0
   -2.5554   -2.5554    0.8202 H   0  0  0  0  0  0  0  0  0  0  0  0
   -1.6845   -2.1741   -0.6720 H   0  0  0  0  0  0  0  0  0  0  0  0
   -3.5818   -3.4610   -1.4172 H   0  0  0  0  0  0  0  0  0  0  0  0
   -4.5830   -0.7929   -2.0209 H   0  0  0  0  0  0  0  0  0  0  0  0
   -3.6261   -1.8687   -3.0214 H   0  0  0  0  0  0  0  0  0  0  0  0
   -5.2576   -3.3862    0.2902 H   0  0  0  0  0  0  0  0  0  0  0  0
   -6.2534   -2.2461   -1.7409 H   0  0  0  0  0  0  0  0  0  0  0  0
   -4.2081   -1.9030    1.8218 H   0  0  0  0  0  0  0  0  0  0  0  0
   -6.5962   -0.4514    0.7127 H   0  0  0  0  0  0  0  0  0  0  0  0
   -6.7010   -1.8453    1.8782 H   0  0  0  0  0  0  0  0  0  0  0  0
   -5.9123   -0.2378    2.3365 H   0  0  0  0  0  0  0  0  0  0  0  0
   -3.2776    5.9554   -0.8237 H   0  0  0  0  0  0  0  0  0  0  0  0
   -2.0646    6.0764    0.4505 H   0  0  0  0  0  0  0  0  0  0  0  0
   -1.6043    6.4222   -1.3164 H   0  0  0  0  0  0  0  0  0  0  0  0
    3.2036    3.6822   -1.0550 H   0  0  0  0  0  0  0  0  0  0  0  0
  1  2  1  0
  2  3  1  0
  3  4  2  0
  4  5  1  0
  5  6  2  0
  6  7  1  0
  7  8  2  0
  8  9  1  0
  9 10  2  0
  9 11  1  0
 11 12  2  0
 12 13  1  0
 12 14  1  0
 14 15  2  0
 15 16  1  0
 16 17  1  0
 17 18  1  1
 17 19  1  0
 19 20  1  0
 20 21  1  0
 21 22  1  0
 22 23  1  0
 23 24  1  0
 24 25  1  0
 24 26  1  0
 26 27  1  0
 26 28  1  0
 28 29  1  0
 28 30  1  0
 17 31  1  0
 31 32  1  0
 31 33  2  0
 15 34  1  0
 34 35  1  0
 34 36  2  0
 36 37  1  0
 37 38  2  0
  8  3  1  0
 36 11  1  0
 37  7  1  0
 20 14  1  0
 30 22  1  0
  1 39  1  0
  1 40  1  0
  1 41  1  0
  4 42  1  0
  5 43  1  0
  6 44  1  0
 13 45  1  0
 16 46  1  0
 16 47  1  0
 18 48  1  0
 19 49  1  0
 19 50  1  0
 20 51  1  6
 22 52  1  6
 23 53  1  0
 23 54  1  0
 24 55  1  6
 25 56  1  0
 25 57  1  0
 26 58  1  1
 27 59  1  0
 28 60  1  1
 29 61  1  0
 29 62  1  0
 29 63  1  0
 32 64  1  0
 32 65  1  0
 32 66  1  0
 35 67  1  0
M  END
$$$$
