@<TRIPOS>MOLECULE
*****
 48 52 0 0 0
SMALL
GASTEIGER

@<TRIPOS>ATOM
      1 O           0.0122   -5.9661   -2.0308 O.2     1  UNL1       -0.2490
      2 C           0.1775   -4.8471   -1.4958 C.2     1  UNL1        0.3247
      3 O           1.0870   -3.9908   -2.1087 O.3     1  UNL1       -0.4794
      4 C          -0.5853   -4.5285   -0.2861 C.3     1  UNL1        0.1202
      5 N          -0.2927   -3.2022    0.2221 N.ar    1  UNL1       -0.3356
      6 C           0.6541   -2.8470    1.1083 C.ar    1  UNL1        0.0099
      7 C           0.5975   -1.4698    1.3237 C.ar    1  UNL1       -0.0157
      8 C           1.4999   -0.7305    2.2120 C.3     1  UNL1        0.0233
      9 C           2.5652   -0.0988    1.4611 C.ar    1  UNL1        0.0841
     10 N           3.6605   -0.2396    0.9498 N.ar    1  UNL1       -0.2406
     11 C           4.3943    0.6104    0.3150 C.ar    1  UNL1        0.1192
     12 C           5.6657    0.4260   -0.2721 C.ar    1  UNL1        0.1849
     13 F           6.3024   -0.7739   -0.2232 F       1  UNL1       -0.2002
     14 C           6.2787    1.4581   -0.9023 C.ar    1  UNL1        0.1633
     15 F           7.5061    1.2578   -1.4622 F       1  UNL1       -0.2023
     16 C           5.7664    2.7299   -1.0364 C.ar    1  UNL1        0.0129
     17 C           4.4996    2.9342   -0.4578 C.ar    1  UNL1        0.1420
     18 F           3.8830    4.1427   -0.5195 F       1  UNL1       -0.2042
     19 C           3.9039    1.8966    0.1653 C.ar    1  UNL1        0.0773
     20 S           2.3010    1.6919    1.0407 S.2     1  UNL1       -0.0688
     21 C          -0.4248   -1.0219    0.5276 C.ar    1  UNL1        0.0069
     22 C          -0.9415    0.2418    0.3339 C.ar    1  UNL1       -0.0099
     23 C          -1.9943    0.4154   -0.5350 C.ar    1  UNL1        0.1291
     24 O          -2.5251    1.6518   -0.7469 O.3     1  UNL1       -0.4560
     25 C          -3.5635    2.2296   -0.0364 C.ar    1  UNL1        0.1284
     26 C          -4.2140    1.6117    1.0074 C.ar    1  UNL1       -0.0193
     27 C          -5.2439    2.2532    1.6702 C.ar    1  UNL1       -0.0583
     28 C          -5.6206    3.5100    1.2883 C.ar    1  UNL1       -0.0615
     29 C          -4.9624    4.1244    0.2389 C.ar    1  UNL1       -0.0583
     30 C          -3.9327    3.5158   -0.4439 C.ar    1  UNL1       -0.0193
     31 C          -2.5306   -0.6770   -1.2101 C.ar    1  UNL1       -0.0174
     32 C          -2.0220   -1.9279   -1.0196 C.ar    1  UNL1       -0.0341
     33 C          -0.9772   -2.1089   -0.1589 C.ar    1  UNL1        0.0500
     34 H           1.8795   -4.3652   -2.6357 H       1  UNL1        0.2951
     35 H          -1.6829   -4.5937   -0.5444 H       1  UNL1        0.0607
     36 H          -0.4462   -5.2770    0.5241 H       1  UNL1        0.0607
     37 H           1.3519   -3.4938    1.5873 H       1  UNL1        0.0812
     38 H           0.9238    0.0244    2.8246 H       1  UNL1        0.0383
     39 H           1.9037   -1.4231    3.0238 H       1  UNL1        0.0383
     40 H           6.2442    3.5456   -1.5311 H       1  UNL1        0.0676
     41 H          -0.5548    1.1028    0.8478 H       1  UNL1        0.0661
     42 H          -3.9001    0.6198    1.2919 H       1  UNL1        0.0654
     43 H          -5.7611    1.7652    2.4980 H       1  UNL1        0.0619
     44 H          -6.4358    4.0310    1.8049 H       1  UNL1        0.0618
     45 H          -5.2455    5.1336   -0.0875 H       1  UNL1        0.0619
     46 H          -3.4117    4.0019   -1.2744 H       1  UNL1        0.0654
     47 H          -3.3586   -0.5735   -1.9004 H       1  UNL1        0.0655
     48 H          -2.4307   -2.7694   -1.5356 H       1  UNL1        0.0639
@<TRIPOS>BOND
     1     1     2    2
     2     2     3    1
     3     2     4    1
     4     4     5    1
     5     5     6   ar
     6     6     7   ar
     7     7     8    1
     8     8     9    1
     9     9    10   ar
    10    10    11   ar
    11    11    12   ar
    12    12    13    1
    13    12    14   ar
    14    14    15    1
    15    14    16   ar
    16    16    17   ar
    17    17    18    1
    18    17    19   ar
    19    19    20   ar
    20     7    21   ar
    21    21    22   ar
    22    22    23   ar
    23    23    24    1
    24    24    25    1
    25    25    26   ar
    26    26    27   ar
    27    27    28   ar
    28    28    29   ar
    29    29    30   ar
    30    23    31   ar
    31    31    32   ar
    32    32    33   ar
    33    33     5   ar
    34    20     9   ar
    35    33    21   ar
    36    19    11   ar
    37    30    25   ar
    38     3    34    1
    39     4    35    1
    40     4    36    1
    41     6    37    1
    42     8    38    1
    43     8    39    1
    44    16    40    1
    45    22    41    1
    46    26    42    1
    47    27    43    1
    48    28    44    1
    49    29    45    1
    50    30    46    1
    51    31    47    1
    52    32    48    1
