
     RDKit          3D

 48 52  0  0  0  0  0  0  0  0999 V2000
    0.0122   -5.9661   -2.0308 O   0  0  0  0  0  0  0  0  0  0  0  0
    0.1775   -4.8471   -1.4958 C   0  0  0  0  0  0  0  0  0  0  0  0
    1.0870   -3.9908   -2.1087 O   0  0  0  0  0  0  0  0  0  0  0  0
   -0.5853   -4.5285   -0.2861 C   0  0  0  0  0  0  0  0  0  0  0  0
   -0.2927   -3.2022    0.2221 N   0  0  0  0  0  0  0  0  0  0  0  0
    0.6541   -2.8470    1.1083 C   0  0  0  0  0  0  0  0  0  0  0  0
    0.5975   -1.4698    1.3237 C   0  0  0  0  0  0  0  0  0  0  0  0
    1.4999   -0.7305    2.2120 C   0  0  0  0  0  0  0  0  0  0  0  0
    2.5652   -0.0988    1.4611 C   0  0  0  0  0  0  0  0  0  0  0  0
    3.6605   -0.2396    0.9498 N   0  0  0  0  0  0  0  0  0  0  0  0
    4.3943    0.6104    0.3150 C   0  0  0  0  0  0  0  0  0  0  0  0
    5.6657    0.4260   -0.2721 C   0  0  0  0  0  0  0  0  0  0  0  0
    6.3024   -0.7739   -0.2232 F   0  0  0  0  0  0  0  0  0  0  0  0
    6.2787    1.4581   -0.9023 C   0  0  0  0  0  0  0  0  0  0  0  0
    7.5061    1.2578   -1.4622 F   0  0  0  0  0  0  0  0  0  0  0  0
    5.7664    2.7299   -1.0364 C   0  0  0  0  0  0  0  0  0  0  0  0
    4.4996    2.9342   -0.4578 C   0  0  0  0  0  0  0  0  0  0  0  0
    3.8830    4.1427   -0.5195 F   0  0  0  0  0  0  0  0  0  0  0  0
    3.9039    1.8966    0.1653 C   0  0  0  0  0  0  0  0  0  0  0  0
    2.3010    1.6919    1.0407 S   0  0  0  0  0  0  0  0  0  0  0  0
   -0.4248   -1.0219    0.5276 C   0  0  0  0  0  0  0  0  0  0  0  0
   -0.9415    0.2418    0.3339 C   0  0  0  0  0  0  0  0  0  0  0  0
   -1.9943    0.4154   -0.5350 C   0  0  0  0  0  0  0  0  0  0  0  0
   -2.5251    1.6518   -0.7469 O   0  0  0  0  0  0  0  0  0  0  0  0
   -3.5635    2.2296   -0.0364 C   0  0  0  0  0  0  0  0  0  0  0  0
   -4.2140    1.6117    1.0074 C   0  0  0  0  0  0  0  0  0  0  0  0
   -5.2439    2.2532    1.6702 C   0  0  0  0  0  0  0  0  0  0  0  0
   -5.6206    3.5100    1.2883 C   0  0  0  0  0  0  0  0  0  0  0  0
   -4.9624    4.1244    0.2389 C   0  0  0  0  0  0  0  0  0  0  0  0
   -3.9327    3.5158   -0.4439 C   0  0  0  0  0  0  0  0  0  0  0  0
   -2.5306   -0.6770   -1.2101 C   0  0  0  0  0  0  0  0  0  0  0  0
   -2.0220   -1.9279   -1.0196 C   0  0  0  0  0  0  0  0  0  0  0  0
   -0.9772   -2.1089   -0.1589 C   0  0  0  0  0  0  0  0  0  0  0  0
    1.8795   -4.3652   -2.6357 H   0  0  0  0  0  0  0  0  0  0  0  0
   -1.6829   -4.5937   -0.5444 H   0  0  0  0  0  0  0  0  0  0  0  0
   -0.4462   -5.2770    0.5241 H   0  0  0  0  0  0  0  0  0  0  0  0
    1.3519   -3.4938    1.5873 H   0  0  0  0  0  0  0  0  0  0  0  0
    0.9238    0.0244    2.8246 H   0  0  0  0  0  0  0  0  0  0  0  0
    1.9037   -1.4231    3.0238 H   0  0  0  0  0  0  0  0  0  0  0  0
    6.2442    3.5456   -1.5311 H   0  0  0  0  0  0  0  0  0  0  0  0
   -0.5548    1.1028    0.8478 H   0  0  0  0  0  0  0  0  0  0  0  0
   -3.9001    0.6198    1.2919 H   0  0  0  0  0  0  0  0  0  0  0  0
   -5.7611    1.7652    2.4980 H   0  0  0  0  0  0  0  0  0  0  0  0
   -6.4358    4.0310    1.8049 H   0  0  0  0  0  0  0  0  0  0  0  0
   -5.2455    5.1336   -0.0875 H   0  0  0  0  0  0  0  0  0  0  0  0
   -3.4117    4.0019   -1.2744 H   0  0  0  0  0  0  0  0  0  0  0  0
   -3.3586   -0.5735   -1.9004 H   0  0  0  0  0  0  0  0  0  0  0  0
   -2.4307   -2.7694   -1.5356 H   0  0  0  0  0  0  0  0  0  0  0  0
  1  2  2  0
  2  3  1  0
  2  4  1  0
  4  5  1  0
  5  6  1  0
  6  7  2  0
  7  8  1  0
  8  9  1  0
  9 10  2  0
 10 11  1  0
 11 12  2  0
 12 13  1  0
 12 14  1  0
 14 15  1  0
 14 16  2  0
 16 17  1  0
 17 18  1  0
 17 19  2  0
 19 20  1  0
  7 21  1  0
 21 22  2  0
 22 23  1  0
 23 24  1  0
 24 25  1  0
 25 26  2  0
 26 27  1  0
 27 28  2  0
 28 29  1  0
 29 30  2  0
 23 31  2  0
 31 32  1  0
 32 33  2  0
 33  5  1  0
 20  9  1  0
 33 21  1  0
 19 11  1  0
 30 25  1  0
  3 34  1  0
  4 35  1  0
  4 36  1  0
  6 37  1  0
  8 38  1  0
  8 39  1  0
 16 40  1  0
 22 41  1  0
 26 42  1  0
 27 43  1  0
 28 44  1  0
 29 45  1  0
 30 46  1  0
 31 47  1  0
 32 48  1  0
M  END
$$$$
