@<TRIPOS>MOLECULE
*****
 40 42 0 0 0
SMALL
GASTEIGER

@<TRIPOS>ATOM
      1 C           6.0761   -0.1690    0.9772 C.3     1  UNL1       -0.0570
      2 C           4.6719    0.2132    1.4497 C.3     1  UNL1        0.0211
      3 C           3.7732    0.0689    0.2623 C.2     1  UNL1        0.2128
      4 O           4.2838   -0.3097   -0.8279 O.2     1  UNL1       -0.2758
      5 N           2.3783    0.3391    0.3128 N.am    1  UNL1       -0.3153
      6 C           1.7536    0.1190   -0.9717 C.3     1  UNL1        0.0121
      7 C           0.2684    0.4039   -0.9286 C.3     1  UNL1       -0.0305
      8 C          -0.4793   -0.4554    0.0545 C.3     1  UNL1       -0.0135
      9 C          -0.3510   -1.9147   -0.2577 C.3     1  UNL1       -0.0421
     10 C          -1.2870   -2.1795   -1.4326 C.3     1  UNL1       -0.0269
     11 C          -2.4199   -1.2321   -1.1365 C.ar    1  UNL1       -0.0434
     12 C          -1.9347   -0.2413   -0.2746 C.ar    1  UNL1       -0.0343
     13 C          -2.7336    0.7851    0.1880 C.ar    1  UNL1        0.0012
     14 C          -4.0595    0.7938   -0.2441 C.ar    1  UNL1        0.1241
     15 O          -4.6717    1.8995    0.3363 O.3     1  UNL1       -0.4914
     16 C          -3.9889    2.1632    1.5600 C.3     1  UNL1        0.0937
     17 C          -2.5450    1.9595    1.0818 C.3     1  UNL1        0.0104
     18 C          -4.5893   -0.1573   -1.0925 C.ar    1  UNL1       -0.0194
     19 C          -3.7427   -1.1589   -1.5218 C.ar    1  UNL1       -0.0548
     20 H           6.6507    0.7474    0.7209 H       1  UNL1        0.0234
     21 H           6.5919   -0.8164    1.7223 H       1  UNL1        0.0234
     22 H           6.0259   -0.7658    0.0357 H       1  UNL1        0.0234
     23 H           4.3584   -0.5533    2.2111 H       1  UNL1        0.0356
     24 H           4.6536    1.2111    1.8882 H       1  UNL1        0.0356
     25 H           2.0284    0.6502    1.2577 H       1  UNL1        0.1487
     26 H           2.1960    0.8726   -1.6791 H       1  UNL1        0.0462
     27 H           2.0215   -0.8540   -1.3813 H       1  UNL1        0.0462
     28 H           0.1055    1.4709   -0.7625 H       1  UNL1        0.0286
     29 H          -0.1561    0.1646   -1.9293 H       1  UNL1        0.0286
     30 H          -0.2853   -0.2094    1.1129 H       1  UNL1        0.0350
     31 H          -0.6422   -2.5264    0.6245 H       1  UNL1        0.0274
     32 H           0.6709   -2.1448   -0.5747 H       1  UNL1        0.0274
     33 H          -1.6248   -3.2387   -1.3759 H       1  UNL1        0.0313
     34 H          -0.8238   -1.9444   -2.3898 H       1  UNL1        0.0313
     35 H          -4.1686    3.1634    1.9433 H       1  UNL1        0.0700
     36 H          -4.1992    1.3260    2.2454 H       1  UNL1        0.0700
     37 H          -1.8638    1.7524    1.9240 H       1  UNL1        0.0347
     38 H          -2.2435    2.8544    0.4835 H       1  UNL1        0.0347
     39 H          -5.6165   -0.1355   -1.4167 H       1  UNL1        0.0654
     40 H          -4.0818   -1.9512   -2.1948 H       1  UNL1        0.0622
@<TRIPOS>BOND
     1     1     2    1
     2     2     3    1
     3     3     4    2
     4     3     5   am
     5     5     6    1
     6     6     7    1
     7     7     8    1
     8     8     9    1
     9     9    10    1
    10    10    11    1
    11    11    12   ar
    12    12    13   ar
    13    13    14   ar
    14    14    15    1
    15    15    16    1
    16    16    17    1
    17    14    18   ar
    18    18    19   ar
    19    12     8    1
    20    17    13    1
    21    19    11   ar
    22     1    20    1
    23     1    21    1
    24     1    22    1
    25     2    23    1
    26     2    24    1
    27     5    25    1
    28     6    26    1
    29     6    27    1
    30     7    28    1
    31     7    29    1
    32     8    30    1
    33     9    31    1
    34     9    32    1
    35    10    33    1
    36    10    34    1
    37    16    35    1
    38    16    36    1
    39    17    37    1
    40    17    38    1
    41    18    39    1
    42    19    40    1
