@<TRIPOS>MOLECULE
*****
 48 49 0 0 0
SMALL
GASTEIGER

@<TRIPOS>ATOM
      1 C          -0.0709    2.8598    0.8325 C.2     1  UNL1       -0.0809
      2 C           1.1266    2.3631    0.9165 C.2     1  UNL1       -0.0574
      3 C           1.7357    1.0796    0.6163 C.ar    1  UNL1       -0.0043
      4 C           2.9344    1.3834   -0.0010 C.ar    1  UNL1       -0.0118
      5 C           3.8978    0.5081   -0.4637 C.ar    1  UNL1        0.1242
      6 O           5.0829    0.8819   -1.0787 O.3     1  UNL1       -0.4950
      7 C           5.9767   -0.1137   -1.5034 C.3     1  UNL1        0.0788
      8 C           3.6012   -0.8215   -0.2711 C.ar    1  UNL1        0.0224
      9 C           2.3969   -1.1311    0.3490 C.ar    1  UNL1        0.1349
     10 O           2.2729   -2.5324    0.4655 O.3     1  UNL1       -0.5058
     11 C           1.4087   -0.2407    0.8194 C.ar    1  UNL1        0.1076
     12 C           0.4539   -1.2585    1.2906 C.2     1  UNL1        0.3436
     13 O           0.6715   -1.3888    2.5028 O.2     1  UNL1       -0.2448
     14 O          -0.3614   -1.7649    0.3229 O.3     1  UNL1       -0.4577
     15 C          -1.3410   -2.7569    0.4681 C.3     1  UNL1        0.1040
     16 C          -0.9602   -3.9961   -0.3650 C.3     1  UNL1       -0.0274
     17 C          -2.6677   -2.2385   -0.0749 C.3     1  UNL1        0.0027
     18 C          -3.1966   -1.1508    0.7437 C.2     1  UNL1       -0.0772
     19 C          -3.1680   -0.1027    0.0181 C.2     1  UNL1       -0.0203
     20 C          -2.8973    0.6177   -1.1807 C.2     1  UNL1        0.1865
     21 O          -2.4645   -0.1704   -2.0101 O.2     1  UNL1       -0.2898
     22 C          -3.1553    2.1053   -1.2155 C.3     1  UNL1        0.1429
     23 O          -4.0199    2.4167   -0.1324 O.3     1  UNL1       -0.3813
     24 C          -1.8269    2.7945   -0.8560 C.3     1  UNL1        0.0917
     25 O          -2.0739    4.1184   -0.6469 O.3     1  UNL1       -0.3885
     26 C          -1.2320    2.1350    0.3566 C.3     1  UNL1       -0.0054
     27 H          -0.3472    3.8622    1.0952 H       1  UNL1        0.0573
     28 H           1.7250    3.1944    1.3464 H       1  UNL1        0.0621
     29 H           3.2847    2.4139   -0.2136 H       1  UNL1        0.0660
     30 H           6.8722    0.3097   -1.9962 H       1  UNL1        0.0660
     31 H           5.4729   -0.8481   -2.1979 H       1  UNL1        0.0660
     32 H           6.3355   -0.7506   -0.6588 H       1  UNL1        0.0660
     33 H           4.3573   -1.5294   -0.6329 H       1  UNL1        0.0691
     34 H           2.6935   -2.9398    1.2947 H       1  UNL1        0.2922
     35 H          -1.4902   -3.1270    1.4734 H       1  UNL1        0.0734
     36 H           0.0596   -4.3027   -0.0623 H       1  UNL1        0.0265
     37 H          -1.6988   -4.7649   -0.0748 H       1  UNL1        0.0265
     38 H          -1.0851   -3.7793   -1.4309 H       1  UNL1        0.0265
     39 H          -3.4080   -3.1085    0.1030 H       1  UNL1        0.0343
     40 H          -2.6391   -2.1577   -1.1448 H       1  UNL1        0.0343
     41 H          -3.4889   -1.4030    1.7277 H       1  UNL1        0.0574
     42 H          -3.5945    0.5614    0.7135 H       1  UNL1        0.0650
     43 H          -3.5284    2.4165   -2.1386 H       1  UNL1        0.0703
     44 H          -4.8943    2.0420   -0.3653 H       1  UNL1        0.2105
     45 H          -1.1242    2.7195   -1.7172 H       1  UNL1        0.0627
     46 H          -2.5719    4.3033    0.1898 H       1  UNL1        0.2099
     47 H          -2.0256    2.2336    1.1482 H       1  UNL1        0.0333
     48 H          -1.0281    1.0578    0.1432 H       1  UNL1        0.0333
@<TRIPOS>BOND
     1     1     2    2
     2     2     3    1
     3     3     4   ar
     4     4     5   ar
     5     5     6    1
     6     6     7    1
     7     5     8   ar
     8     8     9   ar
     9     9    10    1
    10     9    11   ar
    11    11    12    1
    12    12    13    2
    13    12    14    1
    14    14    15    1
    15    15    16    1
    16    15    17    1
    17    17    18    1
    18    18    19    2
    19    19    20    1
    20    20    21    2
    21    20    22    1
    22    22    23    1
    23    22    24    1
    24    24    25    1
    25    24    26    1
    26    26     1    1
    27    11     3   ar
    28     1    27    1
    29     2    28    1
    30     4    29    1
    31     7    30    1
    32     7    31    1
    33     7    32    1
    34     8    33    1
    35    10    34    1
    36    15    35    1
    37    16    36    1
    38    16    37    1
    39    16    38    1
    40    17    39    1
    41    17    40    1
    42    18    41    1
    43    19    42    1
    44    22    43    1
    45    23    44    1
    46    24    45    1
    47    25    46    1
    48    26    47    1
    49    26    48    1
