@<TRIPOS>MOLECULE
*****
 50 53 0 0 0
SMALL
GASTEIGER

@<TRIPOS>ATOM
      1 C          -5.6580   -0.0832   -0.9067 C.3     1  UNL1        0.0050
      2 N          -7.0221    0.3455   -0.6350 N.3     1  UNL1       -0.3272
      3 C          -4.7003    0.7926   -0.1739 C.3     1  UNL1       -0.0361
      4 C          -4.3020    0.3009    1.1875 C.3     1  UNL1       -0.0331
      5 C          -3.8237   -1.1201    1.1229 C.3     1  UNL1        0.0221
      6 C          -5.0050   -1.9367    0.6602 C.3     1  UNL1       -0.0331
      7 C          -5.4841   -1.5456   -0.7021 C.3     1  UNL1       -0.0361
      8 N          -2.6834   -1.3190    0.2585 N.pl3   1  UNL1       -0.3260
      9 C          -1.4651   -0.6460    0.5454 C.ar    1  UNL1        0.1261
     10 N          -1.3770    0.1627    1.6142 N.ar    1  UNL1       -0.1957
     11 C          -0.2695    0.8369    1.9596 C.ar    1  UNL1        0.2562
     12 N           0.0655    1.6864    2.9411 N.ar    1  UNL1       -0.1974
     13 C           1.3440    2.0713    2.7881 C.ar    1  UNL1        0.1406
     14 N           1.7598    1.4252    1.6861 N.ar    1  UNL1       -0.1506
     15 N           0.8131    0.6724    1.1619 N.ar    1  UNL1       -0.1822
     16 C           0.8175   -0.1141    0.0754 C.ar    1  UNL1        0.1315
     17 N           1.9216   -0.3341   -0.7800 N.pl3   1  UNL1       -0.2992
     18 C           3.2843   -0.0042   -0.7789 C.ar    1  UNL1        0.0325
     19 C           4.0139    0.4437   -1.8676 C.ar    1  UNL1       -0.0387
     20 C           5.3545    0.7387   -1.8329 C.ar    1  UNL1       -0.0336
     21 C           6.0519    0.5900   -0.6497 C.ar    1  UNL1        0.1051
     22 C           5.3534    0.1463    0.4478 C.ar    1  UNL1       -0.0336
     23 C           4.0053   -0.1433    0.3839 C.ar    1  UNL1       -0.0387
     24 S           7.7594    0.9710   -0.6252 S.O2    1  UNL1        0.0559
     25 N           8.6339   -0.4676   -0.9816 N.3     1  UNL1       -0.2035
     26 O           7.9933    2.0303   -1.6700 O.2     1  UNL1       -0.1533
     27 O           8.1626    1.4877    0.7270 O.2     1  UNL1       -0.1533
     28 C          -0.3435   -0.7882   -0.2427 C.ar    1  UNL1        0.0184
     29 H          -5.5210    0.1115   -2.0009 H       1  UNL1        0.0458
     30 H          -6.9550    1.3814   -0.4491 H       1  UNL1        0.1185
     31 H          -7.3704   -0.1753    0.1917 H       1  UNL1        0.1185
     32 H          -5.2054    1.7769   -0.0001 H       1  UNL1        0.0281
     33 H          -3.8136    1.0477   -0.8122 H       1  UNL1        0.0281
     34 H          -5.2180    0.2982    1.8137 H       1  UNL1        0.0284
     35 H          -3.5923    1.0087    1.6076 H       1  UNL1        0.0284
     36 H          -3.5865   -1.4459    2.1582 H       1  UNL1        0.0498
     37 H          -4.6711   -2.9930    0.6153 H       1  UNL1        0.0284
     38 H          -5.7928   -1.8525    1.4414 H       1  UNL1        0.0284
     39 H          -4.7806   -1.9999   -1.4445 H       1  UNL1        0.0281
     40 H          -6.4650   -2.0414   -0.8682 H       1  UNL1        0.0281
     41 H          -2.7277   -1.9466   -0.5755 H       1  UNL1        0.1477
     42 H           2.0102    2.7413    3.3494 H       1  UNL1        0.1066
     43 H           1.7819   -0.8803   -1.6765 H       1  UNL1        0.1536
     44 H           3.4598    0.5592   -2.7999 H       1  UNL1        0.0637
     45 H           5.8392    1.0826   -2.7358 H       1  UNL1        0.0638
     46 H           5.9908    0.0609    1.3333 H       1  UNL1        0.0638
     47 H           3.6593   -0.4832    1.3313 H       1  UNL1        0.0637
     48 H           8.6064   -0.7042   -1.9974 H       1  UNL1        0.1442
     49 H           9.6255   -0.2937   -0.6408 H       1  UNL1        0.1442
     50 H          -0.4741   -1.4518   -1.0891 H       1  UNL1        0.0686
@<TRIPOS>BOND
     1     1     2    1
     2     1     3    1
     3     3     4    1
     4     4     5    1
     5     5     6    1
     6     6     7    1
     7     5     8    1
     8     8     9    1
     9     9    10   ar
    10    10    11   ar
    11    11    12   ar
    12    12    13   ar
    13    13    14   ar
    14    14    15   ar
    15    15    16   ar
    16    16    17    1
    17    17    18    1
    18    18    19   ar
    19    19    20   ar
    20    20    21   ar
    21    21    22   ar
    22    22    23   ar
    23    21    24    1
    24    24    25    1
    25    24    26    2
    26    24    27    2
    27    16    28   ar
    28     7     1    1
    29    28     9   ar
    30    15    11   ar
    31    23    18   ar
    32     1    29    1
    33     2    30    1
    34     2    31    1
    35     3    32    1
    36     3    33    1
    37     4    34    1
    38     4    35    1
    39     5    36    1
    40     6    37    1
    41     6    38    1
    42     7    39    1
    43     7    40    1
    44     8    41    1
    45    13    42    1
    46    17    43    1
    47    19    44    1
    48    20    45    1
    49    22    46    1
    50    23    47    1
    51    25    48    1
    52    25    49    1
    53    28    50    1
