@<TRIPOS>MOLECULE
*****
 40 43 0 0 0
SMALL
GASTEIGER

@<TRIPOS>ATOM
      1 C          -2.0126   -0.8428   -1.8054 C.3     1  UNL1       -0.0393
      2 C          -0.9050    0.0650   -1.4552 C.3     1  UNL1        0.0834
      3 C           0.3530   -0.7048   -1.1748 C.ar    1  UNL1        0.1542
      4 N           0.7155   -1.9891   -1.1147 N.ar    1  UNL1       -0.1320
      5 N           1.9867   -2.0389   -0.8274 N.ar    1  UNL1       -0.1269
      6 C           2.4712   -0.7910   -0.6972 C.ar    1  UNL1        0.1910
      7 C           3.8767   -0.4545   -0.4046 C.ar    1  UNL1        0.1655
      8 N           4.6833   -0.4441    0.4647 N.ar    1  UNL1       -0.2116
      9 C           5.9122   -0.1174    0.4875 C.ar    1  UNL1        0.2429
     10 C           6.9477   -0.1074    1.5687 C.3     1  UNL1        0.4529
     11 F           7.0552    1.1496    2.1136 F       1  UNL1       -0.1631
     12 F           6.5388   -0.9842    2.5384 F       1  UNL1       -0.1631
     13 F           8.1625   -0.5834    1.0674 F       1  UNL1       -0.1631
     14 N           6.4008    0.3261   -0.8030 N.ar    1  UNL1       -0.1848
     15 S           4.8749    0.1539   -1.8180 S.2     1  UNL1        0.0372
     16 N           1.4549    0.0394   -0.9121 N.ar    1  UNL1       -0.3062
     17 C           1.2925    1.4789   -0.9127 C.3     1  UNL1        0.0423
     18 C           0.0312    1.9643   -0.2606 C.3     1  UNL1        0.0338
     19 N          -1.0596    0.9585   -0.3415 N.am    1  UNL1       -0.2860
     20 C          -2.0271    0.9652    0.6443 C.2     1  UNL1        0.2472
     21 O          -1.8364    1.8722    1.5869 O.2     1  UNL1       -0.2700
     22 C          -3.2136    0.1887    0.8639 C.ar    1  UNL1        0.0371
     23 C          -4.3072    0.2751    0.0403 C.ar    1  UNL1       -0.0469
     24 C          -5.4826   -0.4372    0.2589 C.ar    1  UNL1       -0.0257
     25 C          -5.5528   -1.2711    1.3555 C.ar    1  UNL1        0.1234
     26 F          -6.7201   -1.9590    1.5475 F       1  UNL1       -0.2055
     27 C          -4.4793   -1.4032    2.2248 C.ar    1  UNL1       -0.0257
     28 C          -3.3328   -0.6734    1.9647 C.ar    1  UNL1       -0.0469
     29 H          -2.3703   -1.4912   -0.9762 H       1  UNL1        0.0252
     30 H          -2.8446   -0.2993   -2.2635 H       1  UNL1        0.0252
     31 H          -1.6277   -1.4961   -2.6553 H       1  UNL1        0.0252
     32 H          -0.6485    0.6839   -2.3575 H       1  UNL1        0.0579
     33 H           2.1386    1.9924   -0.4025 H       1  UNL1        0.0508
     34 H           1.2188    1.7671   -1.9973 H       1  UNL1        0.0508
     35 H           0.2485    2.2412    0.7793 H       1  UNL1        0.0482
     36 H          -0.2767    2.9094   -0.7726 H       1  UNL1        0.0482
     37 H          -4.2790    0.9129   -0.8297 H       1  UNL1        0.0626
     38 H          -6.3314   -0.3479   -0.4086 H       1  UNL1        0.0646
     39 H          -4.5946   -2.0660    3.0650 H       1  UNL1        0.0646
     40 H          -2.4609   -0.7476    2.6189 H       1  UNL1        0.0626
@<TRIPOS>BOND
     1     1     2    1
     2     2     3    1
     3     3     4   ar
     4     4     5   ar
     5     5     6   ar
     6     6     7    1
     7     7     8   ar
     8     8     9   ar
     9     9    10    1
    10    10    11    1
    11    10    12    1
    12    10    13    1
    13     9    14   ar
    14    14    15   ar
    15     6    16   ar
    16    16    17    1
    17    17    18    1
    18    18    19    1
    19    19    20   am
    20    20    21    2
    21    20    22    1
    22    22    23   ar
    23    23    24   ar
    24    24    25   ar
    25    25    26    1
    26    25    27   ar
    27    27    28   ar
    28    19     2    1
    29    28    22   ar
    30    16     3   ar
    31    15     7   ar
    32     1    29    1
    33     1    30    1
    34     1    31    1
    35     2    32    1
    36    17    33    1
    37    17    34    1
    38    18    35    1
    39    18    36    1
    40    23    37    1
    41    24    38    1
    42    27    39    1
    43    28    40    1
