@<TRIPOS>MOLECULE
*****
 45 48 0 0 0
SMALL
GASTEIGER

@<TRIPOS>ATOM
      1 C          -0.4306   -1.7359   -4.4312 C.3     1  UNL1       -0.0369
      2 C          -0.2922   -1.1398   -3.0792 C.ar    1  UNL1       -0.0132
      3 C           0.9152   -0.9332   -2.4711 C.ar    1  UNL1       -0.0348
      4 C           1.0354   -0.3676   -1.1909 C.ar    1  UNL1        0.0345
      5 N           2.3396   -0.1957   -0.6512 N.am    1  UNL1       -0.2802
      6 C           2.7040    0.3222    0.5920 C.2     1  UNL1        0.2694
      7 O           1.7331    0.6922    1.3509 O.2     1  UNL1       -0.2681
      8 C           4.0655    0.4852    1.1146 C.ar    1  UNL1        0.1608
      9 N           4.2294    1.0157    2.3669 N.ar    1  UNL1       -0.2461
     10 C           5.4156    1.2079    2.9389 C.ar    1  UNL1        0.0469
     11 C           6.5944    0.8762    2.2902 C.ar    1  UNL1        0.0618
     12 CL          8.1619    1.1247    3.0334 Cl      1  UNL1       -0.0819
     13 C           6.4664    0.3430    1.0352 C.ar    1  UNL1       -0.0044
     14 C           5.1999    0.1485    0.4495 C.ar    1  UNL1        0.1551
     15 F           5.1738   -0.3804   -0.7848 F       1  UNL1       -0.2030
     16 C          -0.1281   -0.0177   -0.5501 C.ar    1  UNL1       -0.0320
     17 C          -1.3870   -0.2136   -1.1387 C.ar    1  UNL1        0.0230
     18 C          -2.6346    0.2525   -0.4365 C.3     1  UNL1        0.1603
     19 C          -3.2782    1.3924   -1.1182 C.3     1  UNL1        0.2686
     20 F          -3.6614    1.0851   -2.4046 F       1  UNL1       -0.2062
     21 F          -4.4020    1.9156   -0.5513 F       1  UNL1       -0.2062
     22 N          -3.5011   -0.8954   -0.4003 N.2     1  UNL1       -0.2194
     23 C          -4.4770   -0.9432    0.4224 C.2     1  UNL1        0.2764
     24 N          -5.3693   -2.0719    0.4857 N.pl3   1  UNL1       -0.3134
     25 O          -4.6063    0.1830    1.2536 O.2     1  UNL1       -0.4622
     26 C          -3.4812    0.5985    1.9412 C.3     1  UNL1        0.1091
     27 C          -2.6044    1.7353    1.7021 C.3     1  UNL1       -0.0064
     28 C          -2.2563    0.5149    0.9996 C.3     1  UNL1        0.0344
     29 C          -1.4319   -0.7708   -2.3893 C.ar    1  UNL1        0.1320
     30 F          -2.6248   -1.0007   -2.9625 F       1  UNL1       -0.2048
     31 H          -0.5856   -0.9016   -5.1630 H       1  UNL1        0.0278
     32 H          -1.3792   -2.3161   -4.4276 H       1  UNL1        0.0278
     33 H           0.4464   -2.3498   -4.7139 H       1  UNL1        0.0278
     34 H           1.8339   -1.2198   -3.0014 H       1  UNL1        0.0640
     35 H           3.1506   -0.5031   -1.2806 H       1  UNL1        0.1552
     36 H           5.5336    1.6298    3.9336 H       1  UNL1        0.0845
     37 H           7.3606    0.0659    0.4840 H       1  UNL1        0.0662
     38 H          -0.1294    0.4462    0.4205 H       1  UNL1        0.0640
     39 H          -2.5630    2.2901   -1.1397 H       1  UNL1        0.1047
     40 H          -5.0215   -2.9718    0.1396 H       1  UNL1        0.1466
     41 H          -6.3150   -1.9894    0.8594 H       1  UNL1        0.1466
     42 H          -3.3962    0.0878    2.9517 H       1  UNL1        0.0737
     43 H          -2.9423    2.6696    1.1932 H       1  UNL1        0.0306
     44 H          -1.9354    2.0241    2.5522 H       1  UNL1        0.0306
     45 H          -1.5254   -0.1889    1.4187 H       1  UNL1        0.0366
@<TRIPOS>BOND
     1     1     2    1
     2     2     3   ar
     3     3     4   ar
     4     4     5    1
     5     5     6   am
     6     6     7    2
     7     6     8    1
     8     8     9   ar
     9     9    10   ar
    10    10    11   ar
    11    11    12    1
    12    11    13   ar
    13    13    14   ar
    14    14    15    1
    15     4    16   ar
    16    16    17   ar
    17    17    18    1
    18    18    19    1
    19    19    20    1
    20    19    21    1
    21    18    22    1
    22    22    23    2
    23    23    24    1
    24    23    25    1
    25    25    26    1
    26    26    27    1
    27    27    28    1
    28    17    29   ar
    29    29    30    1
    30    29     2   ar
    31    14     8   ar
    32    28    18    1
    33    28    26    1
    34     1    31    1
    35     1    32    1
    36     1    33    1
    37     3    34    1
    38     5    35    1
    39    10    36    1
    40    13    37    1
    41    16    38    1
    42    19    39    1
    43    24    40    1
    44    24    41    1
    45    26    42    1
    46    27    43    1
    47    27    44    1
    48    28    45    1
