
     RDKit          3D

 45 48  0  0  0  0  0  0  0  0999 V2000
   -0.4306   -1.7359   -4.4312 C   0  0  0  0  0  0  0  0  0  0  0  0
   -0.2922   -1.1398   -3.0792 C   0  0  0  0  0  0  0  0  0  0  0  0
    0.9152   -0.9332   -2.4711 C   0  0  0  0  0  0  0  0  0  0  0  0
    1.0354   -0.3676   -1.1909 C   0  0  0  0  0  0  0  0  0  0  0  0
    2.3396   -0.1957   -0.6512 N   0  0  0  0  0  0  0  0  0  0  0  0
    2.7040    0.3222    0.5920 C   0  0  0  0  0  0  0  0  0  0  0  0
    1.7331    0.6922    1.3509 O   0  0  0  0  0  0  0  0  0  0  0  0
    4.0655    0.4852    1.1146 C   0  0  0  0  0  0  0  0  0  0  0  0
    4.2294    1.0157    2.3669 N   0  0  0  0  0  0  0  0  0  0  0  0
    5.4156    1.2079    2.9389 C   0  0  0  0  0  0  0  0  0  0  0  0
    6.5944    0.8762    2.2902 C   0  0  0  0  0  0  0  0  0  0  0  0
    8.1619    1.1247    3.0334 Cl  0  0  0  0  0  0  0  0  0  0  0  0
    6.4664    0.3430    1.0352 C   0  0  0  0  0  0  0  0  0  0  0  0
    5.1999    0.1485    0.4495 C   0  0  0  0  0  0  0  0  0  0  0  0
    5.1738   -0.3804   -0.7848 F   0  0  0  0  0  0  0  0  0  0  0  0
   -0.1281   -0.0177   -0.5501 C   0  0  0  0  0  0  0  0  0  0  0  0
   -1.3870   -0.2136   -1.1387 C   0  0  0  0  0  0  0  0  0  0  0  0
   -2.6346    0.2525   -0.4365 C   0  0  1  0  0  0  0  0  0  0  0  0
   -3.2782    1.3924   -1.1182 C   0  0  0  0  0  0  0  0  0  0  0  0
   -3.6614    1.0851   -2.4046 F   0  0  0  0  0  0  0  0  0  0  0  0
   -4.4020    1.9156   -0.5513 F   0  0  0  0  0  0  0  0  0  0  0  0
   -3.5011   -0.8954   -0.4003 N   0  0  0  0  0  0  0  0  0  0  0  0
   -4.4770   -0.9432    0.4224 C   0  0  0  0  0  0  0  0  0  0  0  0
   -5.3693   -2.0719    0.4857 N   0  0  0  0  0  0  0  0  0  0  0  0
   -4.6063    0.1830    1.2536 O   0  0  0  0  0  0  0  0  0  0  0  0
   -3.4812    0.5985    1.9412 C   0  0  2  0  0  0  0  0  0  0  0  0
   -2.6044    1.7353    1.7021 C   0  0  0  0  0  0  0  0  0  0  0  0
   -2.2563    0.5149    0.9996 C   0  0  2  0  0  0  0  0  0  0  0  0
   -1.4319   -0.7708   -2.3893 C   0  0  0  0  0  0  0  0  0  0  0  0
   -2.6248   -1.0007   -2.9625 F   0  0  0  0  0  0  0  0  0  0  0  0
   -0.5856   -0.9016   -5.1630 H   0  0  0  0  0  0  0  0  0  0  0  0
   -1.3792   -2.3161   -4.4276 H   0  0  0  0  0  0  0  0  0  0  0  0
    0.4464   -2.3498   -4.7139 H   0  0  0  0  0  0  0  0  0  0  0  0
    1.8339   -1.2198   -3.0014 H   0  0  0  0  0  0  0  0  0  0  0  0
    3.1506   -0.5031   -1.2806 H   0  0  0  0  0  0  0  0  0  0  0  0
    5.5336    1.6298    3.9336 H   0  0  0  0  0  0  0  0  0  0  0  0
    7.3606    0.0659    0.4840 H   0  0  0  0  0  0  0  0  0  0  0  0
   -0.1294    0.4462    0.4205 H   0  0  0  0  0  0  0  0  0  0  0  0
   -2.5630    2.2901   -1.1397 H   0  0  0  0  0  0  0  0  0  0  0  0
   -5.0215   -2.9718    0.1396 H   0  0  0  0  0  0  0  0  0  0  0  0
   -6.3150   -1.9894    0.8594 H   0  0  0  0  0  0  0  0  0  0  0  0
   -3.3962    0.0878    2.9517 H   0  0  0  0  0  0  0  0  0  0  0  0
   -2.9423    2.6696    1.1932 H   0  0  0  0  0  0  0  0  0  0  0  0
   -1.9354    2.0241    2.5522 H   0  0  0  0  0  0  0  0  0  0  0  0
   -1.5254   -0.1889    1.4187 H   0  0  0  0  0  0  0  0  0  0  0  0
  1  2  1  0
  2  3  2  0
  3  4  1  0
  4  5  1  0
  5  6  1  0
  6  7  2  0
  6  8  1  0
  8  9  2  0
  9 10  1  0
 10 11  2  0
 11 12  1  0
 11 13  1  0
 13 14  2  0
 14 15  1  0
  4 16  2  0
 16 17  1  0
 17 18  1  0
 18 19  1  6
 19 20  1  0
 19 21  1  0
 18 22  1  0
 22 23  2  0
 23 24  1  0
 23 25  1  0
 25 26  1  0
 26 27  1  0
 27 28  1  0
 17 29  2  0
 29 30  1  0
 29  2  1  0
 14  8  1  0
 28 18  1  0
 28 26  1  0
  1 31  1  0
  1 32  1  0
  1 33  1  0
  3 34  1  0
  5 35  1  0
 10 36  1  0
 13 37  1  0
 16 38  1  0
 19 39  1  0
 24 40  1  0
 24 41  1  0
 26 42  1  1
 27 43  1  0
 27 44  1  0
 28 45  1  1
M  END
$$$$
