
     RDKit          3D

 39 42  0  0  0  0  0  0  0  0999 V2000
    4.7616   -1.1061   -0.8180 C   0  0  0  0  0  0  0  0  0  0  0  0
    3.3154   -1.0010   -1.1899 C   0  0  0  0  0  0  0  0  0  0  0  0
    2.4559   -0.1613   -0.5359 C   0  0  0  0  0  0  0  0  0  0  0  0
    1.1193   -0.0703   -0.8865 C   0  0  0  0  0  0  0  0  0  0  0  0
    0.2203    0.8495   -0.2116 C   0  0  0  0  0  0  0  0  0  0  0  0
   -0.9699    0.5882    0.3939 C   0  0  0  0  0  0  0  0  0  0  0  0
   -1.5937   -0.7187    0.6079 C   0  0  0  0  0  0  0  0  0  0  0  0
   -1.0582   -1.8178    0.3547 O   0  0  0  0  0  0  0  0  0  0  0  0
   -2.9280   -0.8096    1.1504 N   0  0  0  0  0  0  0  0  0  0  0  0
   -3.5786   -2.0865    1.3763 C   0  0  0  0  0  0  0  0  0  0  0  0
   -5.0630   -2.0803    1.4300 C   0  0  0  0  0  0  0  0  0  0  0  0
   -4.3194   -2.1794    2.7112 C   0  0  0  0  0  0  0  0  0  0  0  0
   -1.4695    1.7866    0.8304 N   0  0  0  0  0  0  0  0  0  0  0  0
   -0.6151    2.7674    0.5089 C   0  0  0  0  0  0  0  0  0  0  0  0
   -0.6817    4.1321    0.7373 C   0  0  0  0  0  0  0  0  0  0  0  0
    0.3390    4.9152    0.2989 C   0  0  0  0  0  0  0  0  0  0  0  0
    1.3780    4.2666   -0.3514 C   0  0  0  0  0  0  0  0  0  0  0  0
    1.4071    2.9392   -0.5545 N   0  0  0  0  0  0  0  0  0  0  0  0
    0.4094    2.1925   -0.1233 N   0  0  0  0  0  0  0  0  0  0  0  0
    0.6868   -0.8595   -1.9235 C   0  0  0  0  0  0  0  0  0  0  0  0
   -0.5936   -0.8079   -2.3551 F   0  0  0  0  0  0  0  0  0  0  0  0
    1.5282   -1.7162   -2.6020 C   0  0  0  0  0  0  0  0  0  0  0  0
    2.8540   -1.7841   -2.2279 C   0  0  0  0  0  0  0  0  0  0  0  0
    3.7562   -2.6814   -2.9314 C   0  0  0  0  0  0  0  0  0  0  0  0
    4.4840   -3.3791   -3.4909 N   0  0  0  0  0  0  0  0  0  0  0  0
    5.0791   -0.1103   -0.4452 H   0  0  0  0  0  0  0  0  0  0  0  0
    5.3401   -1.3123   -1.7389 H   0  0  0  0  0  0  0  0  0  0  0  0
    4.9282   -1.8481   -0.0162 H   0  0  0  0  0  0  0  0  0  0  0  0
    2.8364    0.4459    0.2767 H   0  0  0  0  0  0  0  0  0  0  0  0
   -3.4033    0.0874    1.3728 H   0  0  0  0  0  0  0  0  0  0  0  0
   -3.0101   -2.9858    1.1159 H   0  0  0  0  0  0  0  0  0  0  0  0
   -5.5647   -2.9726    1.0327 H   0  0  0  0  0  0  0  0  0  0  0  0
   -5.5931   -1.1388    1.2142 H   0  0  0  0  0  0  0  0  0  0  0  0
   -4.3562   -1.3035    3.3653 H   0  0  0  0  0  0  0  0  0  0  0  0
   -4.2993   -3.1413    3.2492 H   0  0  0  0  0  0  0  0  0  0  0  0
   -1.5271    4.5313    1.2484 H   0  0  0  0  0  0  0  0  0  0  0  0
    0.3773    5.9908    0.4301 H   0  0  0  0  0  0  0  0  0  0  0  0
    2.1972    4.9086   -0.7014 H   0  0  0  0  0  0  0  0  0  0  0  0
    1.1509   -2.3293   -3.4201 H   0  0  0  0  0  0  0  0  0  0  0  0
  1  2  1  0
  2  3  2  0
  3  4  1  0
  4  5  1  0
  5  6  2  0
  6  7  1  0
  7  8  2  0
  7  9  1  0
  9 10  1  0
 10 11  1  0
 11 12  1  0
  6 13  1  0
 13 14  2  0
 14 15  1  0
 15 16  2  0
 16 17  1  0
 17 18  2  0
 18 19  1  0
  4 20  2  0
 20 21  1  0
 20 22  1  0
 22 23  2  0
 23 24  1  0
 24 25  3  0
 23  2  1  0
 19  5  1  0
 12 10  1  0
 19 14  1  0
  1 26  1  0
  1 27  1  0
  1 28  1  0
  3 29  1  0
  9 30  1  0
 10 31  1  0
 11 32  1  0
 11 33  1  0
 12 34  1  0
 12 35  1  0
 15 36  1  0
 16 37  1  0
 17 38  1  0
 22 39  1  0
M  END
$$$$
