@<TRIPOS>MOLECULE
*****
 39 42 0 0 0
SMALL
GASTEIGER

@<TRIPOS>ATOM
      1 C           4.7616   -1.1061   -0.8180 C.3     1  UNL1       -0.0385
      2 C           3.3154   -1.0010   -1.1899 C.ar    1  UNL1       -0.0323
      3 C           2.4559   -0.1613   -0.5359 C.ar    1  UNL1       -0.0456
      4 C           1.1193   -0.0703   -0.8865 C.ar    1  UNL1        0.0382
      5 C           0.2203    0.8495   -0.2116 C.ar    1  UNL1        0.1080
      6 C          -0.9699    0.5882    0.3939 C.ar    1  UNL1        0.1537
      7 C          -1.5937   -0.7187    0.6079 C.2     1  UNL1        0.2648
      8 O          -1.0582   -1.8178    0.3547 O.2     1  UNL1       -0.2684
      9 N          -2.9280   -0.8096    1.1504 N.am    1  UNL1       -0.3072
     10 C          -3.5786   -2.0865    1.3763 C.3     1  UNL1        0.0236
     11 C          -5.0630   -2.0803    1.4300 C.3     1  UNL1       -0.0328
     12 C          -4.3194   -2.1794    2.7112 C.3     1  UNL1       -0.0328
     13 N          -1.4695    1.7866    0.8304 N.ar    1  UNL1       -0.2211
     14 C          -0.6151    2.7674    0.5089 C.ar    1  UNL1        0.1556
     15 C          -0.6817    4.1321    0.7373 C.ar    1  UNL1       -0.0159
     16 C           0.3390    4.9152    0.2989 C.ar    1  UNL1       -0.0384
     17 C           1.3780    4.2666   -0.3514 C.ar    1  UNL1        0.0485
     18 N           1.4071    2.9392   -0.5545 N.ar    1  UNL1       -0.1729
     19 N           0.4094    2.1925   -0.1233 N.ar    1  UNL1       -0.2118
     20 C           0.6868   -0.8595   -1.9235 C.ar    1  UNL1        0.1338
     21 F          -0.5936   -0.8079   -2.3551 F       1  UNL1       -0.2048
     22 C           1.5282   -1.7162   -2.6020 C.ar    1  UNL1       -0.0082
     23 C           2.8540   -1.7841   -2.2279 C.ar    1  UNL1        0.0574
     24 C           3.7562   -2.6814   -2.9314 C.1     1  UNL1        0.0995
     25 N           4.4840   -3.3791   -3.4909 N.1     1  UNL1       -0.1909
     26 H           5.0791   -0.1103   -0.4452 H       1  UNL1        0.0278
     27 H           5.3401   -1.3123   -1.7389 H       1  UNL1        0.0278
     28 H           4.9282   -1.8481   -0.0162 H       1  UNL1        0.0278
     29 H           2.8364    0.4459    0.2767 H       1  UNL1        0.0628
     30 H          -3.4033    0.0874    1.3728 H       1  UNL1        0.1493
     31 H          -3.0101   -2.9858    1.1159 H       1  UNL1        0.0498
     32 H          -5.5647   -2.9726    1.0327 H       1  UNL1        0.0284
     33 H          -5.5931   -1.1388    1.2142 H       1  UNL1        0.0284
     34 H          -4.3562   -1.3035    3.3653 H       1  UNL1        0.0284
     35 H          -4.2993   -3.1413    3.2492 H       1  UNL1        0.0284
     36 H          -1.5271    4.5313    1.2484 H       1  UNL1        0.0655
     37 H           0.3773    5.9908    0.4301 H       1  UNL1        0.0634
     38 H           2.1972    4.9086   -0.7014 H       1  UNL1        0.0847
     39 H           1.1509   -2.3293   -3.4201 H       1  UNL1        0.0659
@<TRIPOS>BOND
     1     1     2    1
     2     2     3   ar
     3     3     4   ar
     4     4     5    1
     5     5     6   ar
     6     6     7    1
     7     7     8    2
     8     7     9   am
     9     9    10    1
    10    10    11    1
    11    11    12    1
    12     6    13   ar
    13    13    14   ar
    14    14    15   ar
    15    15    16   ar
    16    16    17   ar
    17    17    18   ar
    18    18    19   ar
    19     4    20   ar
    20    20    21    1
    21    20    22   ar
    22    22    23   ar
    23    23    24    1
    24    24    25    3
    25    23     2   ar
    26    19     5   ar
    27    12    10    1
    28    19    14   ar
    29     1    26    1
    30     1    27    1
    31     1    28    1
    32     3    29    1
    33     9    30    1
    34    10    31    1
    35    11    32    1
    36    11    33    1
    37    12    34    1
    38    12    35    1
    39    15    36    1
    40    16    37    1
    41    17    38    1
    42    22    39    1
