@<TRIPOS>MOLECULE
*****
 39 42 0 0 0
SMALL
GASTEIGER

@<TRIPOS>ATOM
      1 C          -1.3916    1.1812    0.7527 C.3     1  UNL1       -0.0058
      2 C          -1.7517    2.3309   -0.1751 C.3     1  UNL1       -0.0457
      3 C          -0.3812    2.9506   -0.4798 C.3     1  UNL1       -0.0521
      4 C           0.4508    1.6604   -0.5793 C.3     1  UNL1       -0.0460
      5 C           0.0858    1.0567    0.7475 C.3     1  UNL1        0.0072
      6 C           0.5875   -0.3411    0.9456 C.3     1  UNL1        0.1285
      7 O          -0.1644   -1.3132    0.2204 O.3     1  UNL1       -0.4836
      8 C          -1.5498   -1.2457    0.1309 C.ar    1  UNL1        0.1251
      9 C          -2.1356   -0.0356    0.3899 C.ar    1  UNL1        0.0012
     10 C          -3.4957    0.0434    0.3052 C.ar    1  UNL1       -0.0133
     11 C          -4.2208   -1.0846   -0.0339 C.ar    1  UNL1        0.1174
     12 O          -5.6050   -1.0091   -0.1213 O.3     1  UNL1       -0.5068
     13 C          -3.5921   -2.2934   -0.2893 C.ar    1  UNL1       -0.0167
     14 C          -2.2026   -2.4140   -0.2128 C.ar    1  UNL1       -0.0162
     15 C           1.9918   -0.5095    0.5215 C.ar    1  UNL1       -0.0069
     16 C           2.3006   -0.6577   -0.8157 C.ar    1  UNL1       -0.0516
     17 C           3.6015   -0.8174   -1.2493 C.ar    1  UNL1       -0.0198
     18 C           4.6623   -0.8345   -0.3384 C.ar    1  UNL1        0.1169
     19 O           5.9643   -0.9963   -0.7944 O.3     1  UNL1       -0.5068
     20 C           4.3626   -0.6869    1.0012 C.ar    1  UNL1       -0.0198
     21 C           3.0475   -0.5253    1.4423 C.ar    1  UNL1       -0.0516
     22 H          -1.7264    1.5051    1.7633 H       1  UNL1        0.0354
     23 H          -2.4213    3.0740    0.2993 H       1  UNL1        0.0271
     24 H          -2.1371    1.9121   -1.1080 H       1  UNL1        0.0271
     25 H          -0.3977    3.5105   -1.4211 H       1  UNL1        0.0266
     26 H          -0.0502    3.5137    0.4086 H       1  UNL1        0.0266
     27 H          -0.0525    1.1196   -1.4319 H       1  UNL1        0.0269
     28 H           1.5081    1.8547   -0.7363 H       1  UNL1        0.0269
     29 H           0.5217    1.6923    1.5317 H       1  UNL1        0.0346
     30 H           0.4346   -0.5938    2.0162 H       1  UNL1        0.0787
     31 H          -4.0539    0.9504    0.4901 H       1  UNL1        0.0658
     32 H          -6.1572   -1.8427   -0.2227 H       1  UNL1        0.2921
     33 H          -4.1540   -3.1985   -0.5599 H       1  UNL1        0.0655
     34 H          -1.6601   -3.3238   -0.3997 H       1  UNL1        0.0655
     35 H           1.5495   -0.6587   -1.6067 H       1  UNL1        0.0623
     36 H           3.8646   -0.9353   -2.2941 H       1  UNL1        0.0654
     37 H           6.3450   -1.9295   -0.9668 H       1  UNL1        0.2921
     38 H           5.1945   -0.6998    1.7227 H       1  UNL1        0.0654
     39 H           2.8280   -0.4093    2.5120 H       1  UNL1        0.0623
@<TRIPOS>BOND
     1     1     2    1
     2     2     3    1
     3     3     4    1
     4     4     5    1
     5     5     6    1
     6     6     7    1
     7     7     8    1
     8     8     9   ar
     9     9    10   ar
    10    10    11   ar
    11    11    12    1
    12    11    13   ar
    13    13    14   ar
    14     6    15    1
    15    15    16   ar
    16    16    17   ar
    17    17    18   ar
    18    18    19    1
    19    18    20   ar
    20    20    21   ar
    21     5     1    1
    22    14     8   ar
    23    21    15   ar
    24     9     1    1
    25     1    22    1
    26     2    23    1
    27     2    24    1
    28     3    25    1
    29     3    26    1
    30     4    27    1
    31     4    28    1
    32     5    29    1
    33     6    30    1
    34    10    31    1
    35    12    32    1
    36    13    33    1
    37    14    34    1
    38    16    35    1
    39    17    36    1
    40    19    37    1
    41    20    38    1
    42    21    39    1
