
     RDKit          3D

 39 42  0  0  0  0  0  0  0  0999 V2000
   -1.3916    1.1812    0.7527 C   0  0  2  0  0  0  0  0  0  0  0  0
   -1.7517    2.3309   -0.1751 C   0  0  0  0  0  0  0  0  0  0  0  0
   -0.3812    2.9506   -0.4798 C   0  0  0  0  0  0  0  0  0  0  0  0
    0.4508    1.6604   -0.5793 C   0  0  0  0  0  0  0  0  0  0  0  0
    0.0858    1.0567    0.7475 C   0  0  2  0  0  0  0  0  0  0  0  0
    0.5875   -0.3411    0.9456 C   0  0  1  0  0  0  0  0  0  0  0  0
   -0.1644   -1.3132    0.2204 O   0  0  0  0  0  0  0  0  0  0  0  0
   -1.5498   -1.2457    0.1309 C   0  0  0  0  0  0  0  0  0  0  0  0
   -2.1356   -0.0356    0.3899 C   0  0  0  0  0  0  0  0  0  0  0  0
   -3.4957    0.0434    0.3052 C   0  0  0  0  0  0  0  0  0  0  0  0
   -4.2208   -1.0846   -0.0339 C   0  0  0  0  0  0  0  0  0  0  0  0
   -5.6050   -1.0091   -0.1213 O   0  0  0  0  0  0  0  0  0  0  0  0
   -3.5921   -2.2934   -0.2893 C   0  0  0  0  0  0  0  0  0  0  0  0
   -2.2026   -2.4140   -0.2128 C   0  0  0  0  0  0  0  0  0  0  0  0
    1.9918   -0.5095    0.5215 C   0  0  0  0  0  0  0  0  0  0  0  0
    2.3006   -0.6577   -0.8157 C   0  0  0  0  0  0  0  0  0  0  0  0
    3.6015   -0.8174   -1.2493 C   0  0  0  0  0  0  0  0  0  0  0  0
    4.6623   -0.8345   -0.3384 C   0  0  0  0  0  0  0  0  0  0  0  0
    5.9643   -0.9963   -0.7944 O   0  0  0  0  0  0  0  0  0  0  0  0
    4.3626   -0.6869    1.0012 C   0  0  0  0  0  0  0  0  0  0  0  0
    3.0475   -0.5253    1.4423 C   0  0  0  0  0  0  0  0  0  0  0  0
   -1.7264    1.5051    1.7633 H   0  0  0  0  0  0  0  0  0  0  0  0
   -2.4213    3.0740    0.2993 H   0  0  0  0  0  0  0  0  0  0  0  0
   -2.1371    1.9121   -1.1080 H   0  0  0  0  0  0  0  0  0  0  0  0
   -0.3977    3.5105   -1.4211 H   0  0  0  0  0  0  0  0  0  0  0  0
   -0.0502    3.5137    0.4086 H   0  0  0  0  0  0  0  0  0  0  0  0
   -0.0525    1.1196   -1.4319 H   0  0  0  0  0  0  0  0  0  0  0  0
    1.5081    1.8547   -0.7363 H   0  0  0  0  0  0  0  0  0  0  0  0
    0.5217    1.6923    1.5317 H   0  0  0  0  0  0  0  0  0  0  0  0
    0.4346   -0.5938    2.0162 H   0  0  0  0  0  0  0  0  0  0  0  0
   -4.0539    0.9504    0.4901 H   0  0  0  0  0  0  0  0  0  0  0  0
   -6.1572   -1.8427   -0.2227 H   0  0  0  0  0  0  0  0  0  0  0  0
   -4.1540   -3.1985   -0.5599 H   0  0  0  0  0  0  0  0  0  0  0  0
   -1.6601   -3.3238   -0.3997 H   0  0  0  0  0  0  0  0  0  0  0  0
    1.5495   -0.6587   -1.6067 H   0  0  0  0  0  0  0  0  0  0  0  0
    3.8646   -0.9353   -2.2941 H   0  0  0  0  0  0  0  0  0  0  0  0
    6.3450   -1.9295   -0.9668 H   0  0  0  0  0  0  0  0  0  0  0  0
    5.1945   -0.6998    1.7227 H   0  0  0  0  0  0  0  0  0  0  0  0
    2.8280   -0.4093    2.5120 H   0  0  0  0  0  0  0  0  0  0  0  0
  1  2  1  0
  2  3  1  0
  3  4  1  0
  4  5  1  0
  5  6  1  0
  6  7  1  0
  7  8  1  0
  8  9  2  0
  9 10  1  0
 10 11  2  0
 11 12  1  0
 11 13  1  0
 13 14  2  0
  6 15  1  0
 15 16  2  0
 16 17  1  0
 17 18  2  0
 18 19  1  0
 18 20  1  0
 20 21  2  0
  5  1  1  0
 14  8  1  0
 21 15  1  0
  9  1  1  0
  1 22  1  1
  2 23  1  0
  2 24  1  0
  3 25  1  0
  3 26  1  0
  4 27  1  0
  4 28  1  0
  5 29  1  1
  6 30  1  1
 10 31  1  0
 12 32  1  0
 13 33  1  0
 14 34  1  0
 16 35  1  0
 17 36  1  0
 19 37  1  0
 20 38  1  0
 21 39  1  0
M  END
$$$$
