@<TRIPOS>MOLECULE
*****
 47 49 0 0 0
SMALL
GASTEIGER

@<TRIPOS>ATOM
      1 C          -2.8935    1.3425   -3.0861 C.3     1  UNL1       -0.0612
      2 C          -2.6819    1.6875   -1.6284 C.3     1  UNL1       -0.0283
      3 C          -1.5783    0.8924   -1.0337 C.ar    1  UNL1       -0.0186
      4 C          -0.2228    1.0594   -1.2318 C.ar    1  UNL1        0.0315
      5 C           0.3353    2.0923   -2.0947 C.3     1  UNL1       -0.0015
      6 C           0.3043    3.4988   -1.5664 C.3     1  UNL1        0.0501
      7 C           1.0016    3.7600   -0.3204 C.2     1  UNL1        0.3051
      8 O           1.6169    2.9042    0.3306 O.2     1  UNL1       -0.2510
      9 O           1.0189    5.0562    0.2432 O.3     1  UNL1       -0.4806
     10 N           0.4692    0.1270   -0.5210 N.ar    1  UNL1       -0.2798
     11 C           1.8606   -0.0638   -0.5669 C.2     1  UNL1        0.2631
     12 O           2.5397    0.4942   -1.5449 O.2     1  UNL1       -0.2667
     13 C           2.7330   -0.7908    0.3111 C.ar    1  UNL1        0.0399
     14 C           3.8143   -1.5112   -0.1676 C.ar    1  UNL1       -0.0480
     15 C           4.7323   -2.1220    0.6559 C.ar    1  UNL1       -0.0427
     16 C           4.6081   -2.0383    2.0231 C.ar    1  UNL1        0.0410
     17 CL          5.7779   -2.8181    3.0996 Cl      1  UNL1       -0.0835
     18 C           3.5427   -1.3283    2.5272 C.ar    1  UNL1       -0.0427
     19 C           2.6365   -0.7252    1.6809 C.ar    1  UNL1       -0.0480
     20 C          -0.4206   -0.6580    0.1457 C.ar    1  UNL1        0.0574
     21 C          -0.3009   -1.7492    0.9692 C.ar    1  UNL1       -0.0337
     22 C          -1.4396   -2.3510    1.4739 C.ar    1  UNL1       -0.0180
     23 C          -2.6836   -1.8806    1.1662 C.ar    1  UNL1        0.1208
     24 O          -3.8038   -2.5043    1.6892 O.3     1  UNL1       -0.4951
     25 C          -3.6526   -3.6152    2.5320 C.3     1  UNL1        0.0788
     26 C          -2.8314   -0.7840    0.3347 C.ar    1  UNL1       -0.0105
     27 C          -1.7056   -0.1788   -0.1730 C.ar    1  UNL1        0.0072
     28 H          -2.5714    2.1809   -3.7602 H       1  UNL1        0.0233
     29 H          -2.3862    0.3945   -3.3786 H       1  UNL1        0.0233
     30 H          -3.9689    1.2023   -3.3167 H       1  UNL1        0.0233
     31 H          -2.6492    2.7535   -1.4640 H       1  UNL1        0.0311
     32 H          -3.6503    1.3562   -1.1194 H       1  UNL1        0.0311
     33 H          -0.2807    2.1540   -3.0631 H       1  UNL1        0.0333
     34 H           1.3502    1.9372   -2.4885 H       1  UNL1        0.0333
     35 H           0.8359    4.1318   -2.3619 H       1  UNL1        0.0381
     36 H          -0.7032    3.9666   -1.5505 H       1  UNL1        0.0381
     37 H           1.8080    5.3387    0.8132 H       1  UNL1        0.2951
     38 H           3.8900   -1.5622   -1.2649 H       1  UNL1        0.0626
     39 H           5.5618   -2.6750    0.2232 H       1  UNL1        0.0632
     40 H           3.4597   -1.2721    3.6189 H       1  UNL1        0.0632
     41 H           1.8111   -0.1704    2.1309 H       1  UNL1        0.0626
     42 H           0.6474   -2.1699    1.1986 H       1  UNL1        0.0640
     43 H          -1.3139   -3.2101    2.1226 H       1  UNL1        0.0655
     44 H          -3.1647   -4.4661    2.0004 H       1  UNL1        0.0660
     45 H          -3.0161   -3.3434    3.4212 H       1  UNL1        0.0660
     46 H          -4.6280   -3.9475    2.9144 H       1  UNL1        0.0660
     47 H          -3.8082   -0.3948    0.0770 H       1  UNL1        0.0661
@<TRIPOS>BOND
     1     1     2    1
     2     2     3    1
     3     3     4   ar
     4     4     5    1
     5     5     6    1
     6     6     7    1
     7     7     8    2
     8     7     9    1
     9     4    10   ar
    10    10    11   am
    11    11    12    2
    12    11    13    1
    13    13    14   ar
    14    14    15   ar
    15    15    16   ar
    16    16    17    1
    17    16    18   ar
    18    18    19   ar
    19    10    20   ar
    20    20    21   ar
    21    21    22   ar
    22    22    23   ar
    23    23    24    1
    24    24    25    1
    25    23    26   ar
    26    26    27   ar
    27    27     3   ar
    28    19    13   ar
    29    27    20   ar
    30     1    28    1
    31     1    29    1
    32     1    30    1
    33     2    31    1
    34     2    32    1
    35     5    33    1
    36     5    34    1
    37     6    35    1
    38     6    36    1
    39     9    37    1
    40    14    38    1
    41    15    39    1
    42    18    40    1
    43    19    41    1
    44    21    42    1
    45    22    43    1
    46    25    44    1
    47    25    45    1
    48    25    46    1
    49    26    47    1
