@<TRIPOS>MOLECULE
*****
 28 29 0 0 0
SMALL
GASTEIGER

@<TRIPOS>ATOM
      1 O           6.6006    1.1584    0.5197 O.3     1  UNL1       -0.4783
      2 C           5.3494    0.8032    1.0007 C.2     1  UNL1        0.3427
      3 O           5.0852    0.5894    2.2327 O.2     1  UNL1       -0.2472
      4 C           4.1894    0.6409    0.0865 C.3     1  UNL1        0.1858
      5 O           3.0724    0.2816    0.8594 O.3     1  UNL1       -0.4793
      6 C           1.8159    0.0433    0.3782 C.ar    1  UNL1        0.1410
      7 C           0.8256   -0.3013    1.2759 C.ar    1  UNL1        0.1015
      8 CL          1.1141   -0.4446    2.9999 Cl      1  UNL1       -0.0782
      9 C          -0.4690   -0.5611    0.8966 C.ar    1  UNL1        0.0736
     10 CL         -1.7351   -1.0162    2.0093 Cl      1  UNL1       -0.0812
     11 C          -0.8610   -0.4914   -0.4226 C.ar    1  UNL1        0.0427
     12 C           0.1604   -0.1404   -1.3151 C.ar    1  UNL1       -0.0459
     13 C           1.4622    0.1223   -0.9478 C.ar    1  UNL1       -0.0177
     14 C          -2.1535   -0.7030   -1.0449 C.2     1  UNL1        0.2011
     15 O          -2.1669   -1.4361   -2.0610 O.2     1  UNL1       -0.2861
     16 C          -3.3865   -0.1392   -0.5830 C.ar    1  UNL1        0.0594
     17 C          -4.6250   -0.3536   -1.0841 C.ar    1  UNL1       -0.0438
     18 C          -5.6858    0.2827   -0.5209 C.ar    1  UNL1       -0.0540
     19 C          -5.4204    1.1358    0.5635 C.ar    1  UNL1       -0.0236
     20 S          -3.5937    0.9886    0.7418 S.2     1  UNL1       -0.0934
     21 H           7.3844    0.9369    1.1179 H       1  UNL1        0.2952
     22 H           4.0744    1.5452   -0.5133 H       1  UNL1        0.0815
     23 H           4.4077   -0.2307   -0.5906 H       1  UNL1        0.0815
     24 H          -0.0117   -0.0506   -2.3785 H       1  UNL1        0.0626
     25 H           2.2268    0.3879   -1.6388 H       1  UNL1        0.0655
     26 H          -4.8070   -1.0285   -1.9363 H       1  UNL1        0.0630
     27 H          -6.7258    0.2135   -0.8075 H       1  UNL1        0.0623
     28 H          -6.1274    1.7445    1.1625 H       1  UNL1        0.0693
@<TRIPOS>BOND
     1     1     2    1
     2     2     3    2
     3     2     4    1
     4     4     5    1
     5     5     6    1
     6     6     7   ar
     7     7     8    1
     8     7     9   ar
     9     9    10    1
    10     9    11   ar
    11    11    12   ar
    12    12    13   ar
    13    11    14    1
    14    14    15    2
    15    14    16    1
    16    16    17   ar
    17    17    18   ar
    18    18    19   ar
    19    19    20   ar
    20    13     6   ar
    21    20    16   ar
    22     1    21    1
    23     4    22    1
    24     4    23    1
    25    12    24    1
    26    13    25    1
    27    17    26    1
    28    18    27    1
    29    19    28    1
