
     RDKit          3D

 28 29  0  0  0  0  0  0  0  0999 V2000
    6.6006    1.1584    0.5197 O   0  0  0  0  0  0  0  0  0  0  0  0
    5.3494    0.8032    1.0007 C   0  0  0  0  0  0  0  0  0  0  0  0
    5.0852    0.5894    2.2327 O   0  0  0  0  0  0  0  0  0  0  0  0
    4.1894    0.6409    0.0865 C   0  0  0  0  0  0  0  0  0  0  0  0
    3.0724    0.2816    0.8594 O   0  0  0  0  0  0  0  0  0  0  0  0
    1.8159    0.0433    0.3782 C   0  0  0  0  0  0  0  0  0  0  0  0
    0.8256   -0.3013    1.2759 C   0  0  0  0  0  0  0  0  0  0  0  0
    1.1141   -0.4446    2.9999 Cl  0  0  0  0  0  0  0  0  0  0  0  0
   -0.4690   -0.5611    0.8966 C   0  0  0  0  0  0  0  0  0  0  0  0
   -1.7351   -1.0162    2.0093 Cl  0  0  0  0  0  0  0  0  0  0  0  0
   -0.8610   -0.4914   -0.4226 C   0  0  0  0  0  0  0  0  0  0  0  0
    0.1604   -0.1404   -1.3151 C   0  0  0  0  0  0  0  0  0  0  0  0
    1.4622    0.1223   -0.9478 C   0  0  0  0  0  0  0  0  0  0  0  0
   -2.1535   -0.7030   -1.0449 C   0  0  0  0  0  0  0  0  0  0  0  0
   -2.1669   -1.4361   -2.0610 O   0  0  0  0  0  0  0  0  0  0  0  0
   -3.3865   -0.1392   -0.5830 C   0  0  0  0  0  0  0  0  0  0  0  0
   -4.6250   -0.3536   -1.0841 C   0  0  0  0  0  0  0  0  0  0  0  0
   -5.6858    0.2827   -0.5209 C   0  0  0  0  0  0  0  0  0  0  0  0
   -5.4204    1.1358    0.5635 C   0  0  0  0  0  0  0  0  0  0  0  0
   -3.5937    0.9886    0.7418 S   0  0  0  0  0  0  0  0  0  0  0  0
    7.3844    0.9369    1.1179 H   0  0  0  0  0  0  0  0  0  0  0  0
    4.0744    1.5452   -0.5133 H   0  0  0  0  0  0  0  0  0  0  0  0
    4.4077   -0.2307   -0.5906 H   0  0  0  0  0  0  0  0  0  0  0  0
   -0.0117   -0.0506   -2.3785 H   0  0  0  0  0  0  0  0  0  0  0  0
    2.2268    0.3879   -1.6388 H   0  0  0  0  0  0  0  0  0  0  0  0
   -4.8070   -1.0285   -1.9363 H   0  0  0  0  0  0  0  0  0  0  0  0
   -6.7258    0.2135   -0.8075 H   0  0  0  0  0  0  0  0  0  0  0  0
   -6.1274    1.7445    1.1625 H   0  0  0  0  0  0  0  0  0  0  0  0
  1  2  1  0
  2  3  2  0
  2  4  1  0
  4  5  1  0
  5  6  1  0
  6  7  2  0
  7  8  1  0
  7  9  1  0
  9 10  1  0
  9 11  2  0
 11 12  1  0
 12 13  2  0
 11 14  1  0
 14 15  2  0
 14 16  1  0
 16 17  2  0
 17 18  1  0
 18 19  2  0
 19 20  1  0
 13  6  1  0
 20 16  1  0
  1 21  1  0
  4 22  1  0
  4 23  1  0
 12 24  1  0
 13 25  1  0
 17 26  1  0
 18 27  1  0
 19 28  1  0
M  END
$$$$
