@<TRIPOS>MOLECULE
*****
 30 32 0 0 0
SMALL
GASTEIGER

@<TRIPOS>ATOM
      1 C          -0.5089   -3.2419   -1.0965 C.3     1  UNL1       -0.0323
      2 C           0.5253   -2.2292   -0.7180 C.ar    1  UNL1        0.0032
      3 S           2.0726   -2.5730    0.0769 S.2     1  UNL1       -0.0725
      4 C           2.6413   -0.8878    0.1453 C.ar    1  UNL1        0.1183
      5 N           3.7856   -0.3657    0.6315 N.ar    1  UNL1       -0.2087
      6 C           3.9856    0.9598    0.5575 C.ar    1  UNL1        0.1940
      7 N           5.1768    1.5697    1.0563 N.pl3   1  UNL1       -0.3289
      8 N           3.0055    1.6808   -0.0096 N.ar    1  UNL1       -0.2947
      9 C           1.8612    1.1919   -0.5001 C.ar    1  UNL1        0.2620
     10 O           1.0333    1.9828   -1.0046 O.2     1  UNL1       -0.2671
     11 C           1.6347   -0.2084   -0.4281 C.ar    1  UNL1        0.0860
     12 C           0.5441   -0.8664   -0.8766 C.ar    1  UNL1        0.0371
     13 S          -0.9189   -0.0999   -1.6869 S.3     1  UNL1       -0.0877
     14 C          -2.1709    0.2847   -0.4917 C.ar    1  UNL1        0.0155
     15 C          -2.2067    1.5062    0.1038 C.ar    1  UNL1       -0.0295
     16 C          -3.1828    1.8390    1.0570 C.ar    1  UNL1        0.0434
     17 CL         -3.2393    3.3985    1.8272 Cl      1  UNL1       -0.0835
     18 C          -4.1425    0.9089    1.4112 C.ar    1  UNL1       -0.0250
     19 C          -4.1007   -0.3227    0.8060 C.ar    1  UNL1        0.0434
     20 CL         -5.3172   -1.5059    1.2525 Cl      1  UNL1       -0.0835
     21 C          -3.1239   -0.6446   -0.1428 C.ar    1  UNL1       -0.0295
     22 H          -1.3027   -3.1695   -0.3324 H       1  UNL1        0.0283
     23 H          -0.0371   -4.2385   -0.9602 H       1  UNL1        0.0283
     24 H          -0.9035   -3.0809   -2.1161 H       1  UNL1        0.0283
     25 H           5.6219    2.3347    0.5178 H       1  UNL1        0.1451
     26 H           5.6110    1.2681    1.9452 H       1  UNL1        0.1451
     27 H           3.1758    2.7291   -0.0627 H       1  UNL1        0.1716
     28 H          -1.5004    2.2549   -0.1325 H       1  UNL1        0.0643
     29 H          -4.9104    1.1387    2.1463 H       1  UNL1        0.0647
     30 H          -3.1090   -1.6137   -0.6042 H       1  UNL1        0.0643
@<TRIPOS>BOND
     1     1     2    1
     2     2     3   ar
     3     3     4   ar
     4     4     5   ar
     5     5     6   ar
     6     6     7    1
     7     6     8   ar
     8     8     9   ar
     9     9    10    2
    10     9    11   ar
    11    11    12   ar
    12    12    13    1
    13    13    14    1
    14    14    15   ar
    15    15    16   ar
    16    16    17    1
    17    16    18   ar
    18    18    19   ar
    19    19    20    1
    20    19    21   ar
    21    12     2   ar
    22    21    14   ar
    23    11     4   ar
    24     1    22    1
    25     1    23    1
    26     1    24    1
    27     7    25    1
    28     7    26    1
    29     8    27    1
    30    15    28    1
    31    18    29    1
    32    21    30    1
