
     RDKit          3D

 19 19  0  0  0  0  0  0  0  0999 V2000
    3.3082   -0.0062    0.6812 O   0  0  0  0  0  0  0  0  0  0  0  0
    2.4426   -0.4415   -0.1241 C   0  0  0  0  0  0  0  0  0  0  0  0
    1.0579   -0.2745    0.0008 N   0  0  0  0  0  0  0  0  0  0  0  0
    0.1916   -0.8283   -0.9988 C   0  0  0  0  0  0  0  0  0  0  0  0
   -1.2576   -0.7412   -0.6823 C   0  0  0  0  0  0  0  0  0  0  0  0
   -1.6817    0.3987    0.1745 C   0  0  0  0  0  0  0  0  0  0  0  0
   -0.5575    1.3433    0.5334 C   0  0  0  0  0  0  0  0  0  0  0  0
    0.5215    0.4539    1.1354 C   0  0  0  0  0  0  0  0  0  0  0  0
    2.9020   -0.9732   -0.9450 H   0  0  0  0  0  0  0  0  0  0  0  0
    0.4220   -0.3238   -1.9617 H   0  0  0  0  0  0  0  0  0  0  0  0
    0.4918   -1.8955   -1.1357 H   0  0  0  0  0  0  0  0  0  0  0  0
   -1.8216   -0.6829   -1.6405 H   0  0  0  0  0  0  0  0  0  0  0  0
   -1.6076   -1.6817   -0.1972 H   0  0  0  0  0  0  0  0  0  0  0  0
   -2.1451    0.0667    1.1306 H   0  0  0  0  0  0  0  0  0  0  0  0
   -2.4403    1.0424   -0.3222 H   0  0  0  0  0  0  0  0  0  0  0  0
   -0.2323    1.8172   -0.4102 H   0  0  0  0  0  0  0  0  0  0  0  0
   -0.8922    2.0368    1.3074 H   0  0  0  0  0  0  0  0  0  0  0  0
    0.0183   -0.3293    1.7737 H   0  0  0  0  0  0  0  0  0  0  0  0
    1.2801    1.0190    1.6807 H   0  0  0  0  0  0  0  0  0  0  0  0
  1  2  2  0
  2  3  1  0
  3  4  1  0
  4  5  1  0
  5  6  1  0
  6  7  1  0
  7  8  1  0
  8  3  1  0
  2  9  1  0
  4 10  1  0
  4 11  1  0
  5 12  1  0
  5 13  1  0
  6 14  1  0
  6 15  1  0
  7 16  1  0
  7 17  1  0
  8 18  1  0
  8 19  1  0
M  END
$$$$
