@<TRIPOS>MOLECULE
*****
 57 61 0 0 0
SMALL
GASTEIGER

@<TRIPOS>ATOM
      1 C          -8.5376   -0.0193   -1.9491 C.3     1  UNL1        0.0788
      2 O          -7.3627    0.4044   -1.2937 O.3     1  UNL1       -0.4945
      3 C          -6.9413   -0.2790   -0.1508 C.ar    1  UNL1        0.1292
      4 C          -7.6497   -1.3552    0.3459 C.ar    1  UNL1       -0.0193
      5 C          -7.2374   -2.0289    1.4695 C.ar    1  UNL1       -0.0583
      6 C          -6.0908   -1.6239    2.1184 C.ar    1  UNL1       -0.0609
      7 C          -5.3811   -0.5668    1.6439 C.ar    1  UNL1       -0.0491
      8 C          -5.7999    0.1038    0.5173 C.ar    1  UNL1        0.0420
      9 C          -5.0101    1.2374    0.0362 C.ar    1  UNL1        0.0768
     10 C          -5.4986    2.4531   -0.3742 C.ar    1  UNL1       -0.0335
     11 C          -4.4358    3.2413   -0.7499 C.ar    1  UNL1       -0.0327
     12 C          -3.2923    2.5142   -0.5721 C.ar    1  UNL1        0.0843
     13 C          -1.9332    2.7716   -0.7753 C.ar    1  UNL1        0.0566
     14 N          -1.0941    1.7775   -0.4748 N.ar    1  UNL1       -0.2194
     15 C          -1.4559    0.5797   -0.0035 C.ar    1  UNL1        0.2376
     16 N          -0.5277   -0.4453    0.3007 N.pl3   1  UNL1       -0.2825
     17 C           0.8660   -0.3939    0.1760 C.ar    1  UNL1        0.0337
     18 C           1.6012   -1.5409    0.5019 C.ar    1  UNL1       -0.0387
     19 C           2.9680   -1.5309    0.3946 C.ar    1  UNL1       -0.0389
     20 C           3.6911   -0.4411   -0.0232 C.ar    1  UNL1        0.0299
     21 N           5.0981   -0.5580   -0.0912 N.pl3   1  UNL1       -0.3275
     22 C           5.7670   -1.8129    0.2928 C.3     1  UNL1        0.0250
     23 C           7.2575   -1.5746    0.3166 C.3     1  UNL1        0.0144
     24 N           7.6236   -0.4137    1.0743 N.3     1  UNL1       -0.3024
     25 C           9.0519   -0.2047    0.9247 C.3     1  UNL1       -0.0126
     26 C           6.9370    0.7827    0.6355 C.3     1  UNL1        0.0144
     27 C           5.9998    0.4901   -0.5257 C.3     1  UNL1        0.0250
     28 C           2.9753    0.6844   -0.3434 C.ar    1  UNL1       -0.0389
     29 C           1.5753    0.6994   -0.2418 C.ar    1  UNL1       -0.0387
     30 N          -2.7965    0.3527    0.1870 N.ar    1  UNL1       -0.1295
     31 N          -3.6603    1.3119   -0.0986 N.ar    1  UNL1       -0.2274
     32 H          -9.4510    0.2196   -1.3606 H       1  UNL1        0.0660
     33 H          -8.5264   -1.0967   -2.2022 H       1  UNL1        0.0660
     34 H          -8.6210    0.5480   -2.9148 H       1  UNL1        0.0660
     35 H          -8.5638   -1.6776   -0.1719 H       1  UNL1        0.0654
     36 H          -7.7821   -2.8607    1.8561 H       1  UNL1        0.0619
     37 H          -5.7193   -2.1228    3.0135 H       1  UNL1        0.0618
     38 H          -4.4717   -0.2437    2.1565 H       1  UNL1        0.0625
     39 H          -6.5510    2.7565   -0.4027 H       1  UNL1        0.0640
     40 H          -4.4352    4.2628   -1.1273 H       1  UNL1        0.0640
     41 H          -1.6403    3.7355   -1.1547 H       1  UNL1        0.0852
     42 H          -0.9524   -1.3573    0.6673 H       1  UNL1        0.1551
     43 H           1.0962   -2.4566    0.8452 H       1  UNL1        0.0637
     44 H           3.4872   -2.4568    0.6631 H       1  UNL1        0.0637
     45 H           5.5224   -2.5399   -0.5066 H       1  UNL1        0.0476
     46 H           5.4133   -2.1808    1.2679 H       1  UNL1        0.0476
     47 H           7.7027   -2.4592    0.8474 H       1  UNL1        0.0442
     48 H           7.7043   -1.5260   -0.6811 H       1  UNL1        0.0442
     49 H           9.3785   -0.1887   -0.1298 H       1  UNL1        0.0391
     50 H           9.5744   -1.0916    1.3869 H       1  UNL1        0.0391
     51 H           9.4079    0.6694    1.5069 H       1  UNL1        0.0391
     52 H           6.3052    1.1527    1.4689 H       1  UNL1        0.0442
     53 H           7.6352    1.5997    0.3602 H       1  UNL1        0.0442
     54 H           6.6333    0.0798   -1.3393 H       1  UNL1        0.0476
     55 H           5.5184    1.4272   -0.7948 H       1  UNL1        0.0476
     56 H           3.5110    1.5558   -0.6742 H       1  UNL1        0.0637
     57 H           1.1170    1.6363   -0.5174 H       1  UNL1        0.0637
@<TRIPOS>BOND
     1     1     2    1
     2     2     3    1
     3     3     4   ar
     4     4     5   ar
     5     5     6   ar
     6     6     7   ar
     7     7     8   ar
     8     8     9    1
     9     9    10   ar
    10    10    11   ar
    11    11    12   ar
    12    12    13   ar
    13    13    14   ar
    14    14    15   ar
    15    15    16    1
    16    16    17    1
    17    17    18   ar
    18    18    19   ar
    19    19    20   ar
    20    20    21    1
    21    21    22    1
    22    22    23    1
    23    23    24    1
    24    24    25    1
    25    24    26    1
    26    26    27    1
    27    20    28   ar
    28    28    29   ar
    29    15    30   ar
    30    30    31   ar
    31     8     3   ar
    32    31     9   ar
    33    31    12   ar
    34    29    17   ar
    35    27    21    1
    36     1    32    1
    37     1    33    1
    38     1    34    1
    39     4    35    1
    40     5    36    1
    41     6    37    1
    42     7    38    1
    43    10    39    1
    44    11    40    1
    45    13    41    1
    46    16    42    1
    47    18    43    1
    48    19    44    1
    49    22    45    1
    50    22    46    1
    51    23    47    1
    52    23    48    1
    53    25    49    1
    54    25    50    1
    55    25    51    1
    56    26    52    1
    57    26    53    1
    58    27    54    1
    59    27    55    1
    60    28    56    1
    61    29    57    1
