@<TRIPOS>MOLECULE
*****
 30 31 0 0 0
SMALL
GASTEIGER

@<TRIPOS>ATOM
      1 C           1.0996    0.9572    1.5570 C.3     1  UNL1        0.1439
      2 C           2.4337    1.6195    1.4285 C.3     1  UNL1        0.0847
      3 C           3.3848    0.8768    0.6099 C.2     1  UNL1        0.3105
      4 O           4.2811    0.1649    1.1295 O.2     1  UNL1       -0.2507
      5 O           3.8792    0.4944   -0.6019 O.3     1  UNL1       -0.4678
      6 C           4.9975   -0.3882   -0.7271 C.3     1  UNL1        0.0817
      7 C           0.4232    0.7888    0.1861 C.3     1  UNL1        0.0335
      8 C          -0.6062   -0.2256    0.6039 C.2     1  UNL1        0.0908
      9 N          -0.1026   -0.9000    1.5773 N.2     1  UNL1       -0.0886
     10 O           1.1834   -0.4415    1.8694 O.2     1  UNL1       -0.3893
     11 C          -1.8891   -0.2832   -0.0853 C.ar    1  UNL1       -0.0003
     12 C          -2.2524    0.5560   -1.1418 C.ar    1  UNL1       -0.0493
     13 C          -3.4866    0.4439   -1.7437 C.ar    1  UNL1       -0.0196
     14 C          -4.3616   -0.5209   -1.2785 C.ar    1  UNL1        0.1169
     15 O          -5.5743   -0.5281   -1.9738 O.3     1  UNL1       -0.5068
     16 C          -4.0188   -1.3653   -0.2288 C.ar    1  UNL1       -0.0196
     17 C          -2.7658   -1.2441    0.3752 C.ar    1  UNL1       -0.0493
     18 H           0.3867    1.4613    2.2005 H       1  UNL1        0.0769
     19 H           2.2535    2.6564    1.0880 H       1  UNL1        0.0415
     20 H           2.8184    1.7292    2.4799 H       1  UNL1        0.0415
     21 H           5.2250   -0.4480   -1.8036 H       1  UNL1        0.0661
     22 H           5.9131    0.0694   -0.2673 H       1  UNL1        0.0661
     23 H           4.8312   -1.3706   -0.2887 H       1  UNL1        0.0661
     24 H          -0.0376    1.7430   -0.1353 H       1  UNL1        0.0366
     25 H           1.0793    0.3449   -0.5639 H       1  UNL1        0.0366
     26 H          -1.5216    1.2880   -1.4542 H       1  UNL1        0.0625
     27 H          -3.6687    1.1409   -2.5504 H       1  UNL1        0.0654
     28 H          -6.4586   -0.4739   -1.4550 H       1  UNL1        0.2921
     29 H          -4.8054   -2.0760    0.0317 H       1  UNL1        0.0654
     30 H          -2.6405   -1.9537    1.1624 H       1  UNL1        0.0625
@<TRIPOS>BOND
     1     1     2    1
     2     2     3    1
     3     3     4    2
     4     3     5    1
     5     5     6    1
     6     1     7    1
     7     7     8    1
     8     8     9    2
     9     9    10    1
    10     8    11    1
    11    11    12   ar
    12    12    13   ar
    13    13    14   ar
    14    14    15    1
    15    14    16   ar
    16    16    17   ar
    17    10     1    1
    18    17    11   ar
    19     1    18    1
    20     2    19    1
    21     2    20    1
    22     6    21    1
    23     6    22    1
    24     6    23    1
    25     7    24    1
    26     7    25    1
    27    12    26    1
    28    13    27    1
    29    15    28    1
    30    16    29    1
    31    17    30    1
