
     RDKit          3D

 30 31  0  0  0  0  0  0  0  0999 V2000
    1.0996    0.9572    1.5570 C   0  0  1  0  0  0  0  0  0  0  0  0
    2.4337    1.6195    1.4285 C   0  0  0  0  0  0  0  0  0  0  0  0
    3.3848    0.8768    0.6099 C   0  0  0  0  0  0  0  0  0  0  0  0
    4.2811    0.1649    1.1295 O   0  0  0  0  0  0  0  0  0  0  0  0
    3.8792    0.4944   -0.6019 O   0  0  0  0  0  0  0  0  0  0  0  0
    4.9975   -0.3882   -0.7271 C   0  0  0  0  0  0  0  0  0  0  0  0
    0.4232    0.7888    0.1861 C   0  0  0  0  0  0  0  0  0  0  0  0
   -0.6062   -0.2256    0.6039 C   0  0  0  0  0  0  0  0  0  0  0  0
   -0.1026   -0.9000    1.5773 N   0  0  0  0  0  0  0  0  0  0  0  0
    1.1834   -0.4415    1.8694 O   0  0  0  0  0  0  0  0  0  0  0  0
   -1.8891   -0.2832   -0.0853 C   0  0  0  0  0  0  0  0  0  0  0  0
   -2.2524    0.5560   -1.1418 C   0  0  0  0  0  0  0  0  0  0  0  0
   -3.4866    0.4439   -1.7437 C   0  0  0  0  0  0  0  0  0  0  0  0
   -4.3616   -0.5209   -1.2785 C   0  0  0  0  0  0  0  0  0  0  0  0
   -5.5743   -0.5281   -1.9738 O   0  0  0  0  0  0  0  0  0  0  0  0
   -4.0188   -1.3653   -0.2288 C   0  0  0  0  0  0  0  0  0  0  0  0
   -2.7658   -1.2441    0.3752 C   0  0  0  0  0  0  0  0  0  0  0  0
    0.3867    1.4613    2.2005 H   0  0  0  0  0  0  0  0  0  0  0  0
    2.2535    2.6564    1.0880 H   0  0  0  0  0  0  0  0  0  0  0  0
    2.8184    1.7292    2.4799 H   0  0  0  0  0  0  0  0  0  0  0  0
    5.2250   -0.4480   -1.8036 H   0  0  0  0  0  0  0  0  0  0  0  0
    5.9131    0.0694   -0.2673 H   0  0  0  0  0  0  0  0  0  0  0  0
    4.8312   -1.3706   -0.2887 H   0  0  0  0  0  0  0  0  0  0  0  0
   -0.0376    1.7430   -0.1353 H   0  0  0  0  0  0  0  0  0  0  0  0
    1.0793    0.3449   -0.5639 H   0  0  0  0  0  0  0  0  0  0  0  0
   -1.5216    1.2880   -1.4542 H   0  0  0  0  0  0  0  0  0  0  0  0
   -3.6687    1.1409   -2.5504 H   0  0  0  0  0  0  0  0  0  0  0  0
   -6.4586   -0.4739   -1.4550 H   0  0  0  0  0  0  0  0  0  0  0  0
   -4.8054   -2.0760    0.0317 H   0  0  0  0  0  0  0  0  0  0  0  0
   -2.6405   -1.9537    1.1624 H   0  0  0  0  0  0  0  0  0  0  0  0
  1  2  1  0
  2  3  1  0
  3  4  2  0
  3  5  1  0
  5  6  1  0
  1  7  1  0
  7  8  1  0
  8  9  2  0
  9 10  1  0
  8 11  1  0
 11 12  2  0
 12 13  1  0
 13 14  2  0
 14 15  1  0
 14 16  1  0
 16 17  2  0
 10  1  1  0
 17 11  1  0
  1 18  1  1
  2 19  1  0
  2 20  1  0
  6 21  1  0
  6 22  1  0
  6 23  1  0
  7 24  1  0
  7 25  1  0
 12 26  1  0
 13 27  1  0
 15 28  1  0
 16 29  1  0
 17 30  1  0
M  END
$$$$
