@<TRIPOS>MOLECULE
*****
 42 44 0 0 0
SMALL
GASTEIGER

@<TRIPOS>ATOM
      1 C          -1.6065    2.6282   -0.8985 C.3     1  UNL1       -0.0152
      2 N          -0.6629    1.6801   -0.3840 N.3     1  UNL1       -0.3110
      3 C          -1.2396    0.7469    0.5522 C.3     1  UNL1        0.0527
      4 C          -0.1137   -0.1843    1.0006 C.3     1  UNL1        0.0545
      5 N           0.7431   -0.5406   -0.1039 N.pl3   1  UNL1       -0.2006
      6 C           2.1470   -0.6361    0.0643 C.ar    1  UNL1        0.0548
      7 C           3.0241    0.4331   -0.1205 C.ar    1  UNL1        0.0027
      8 C           4.3877    0.1900    0.0814 C.ar    1  UNL1        0.1219
      9 O           5.1802    1.2911   -0.1202 O.3     1  UNL1       -0.4950
     10 C           6.5898    1.2353    0.0384 C.3     1  UNL1        0.0788
     11 C           4.8525   -1.0568    0.4492 C.ar    1  UNL1       -0.0198
     12 C           3.9896   -2.1350    0.6378 C.ar    1  UNL1       -0.0565
     13 C           2.6524   -1.8658    0.4318 C.ar    1  UNL1       -0.0388
     14 S          -0.1840   -0.8085   -1.5553 S.O2    1  UNL1        0.0814
     15 O           0.1726    0.2902   -2.5131 O.2     1  UNL1       -0.1493
     16 O           0.2659   -2.1487   -2.0966 O.2     1  UNL1       -0.1493
     17 C          -1.8474   -0.8408   -1.1326 C.ar    1  UNL1        0.1524
     18 C          -2.3479   -0.0331   -0.0475 C.ar    1  UNL1        0.0068
     19 C          -3.6819   -0.1238    0.2220 C.ar    1  UNL1       -0.0214
     20 C          -4.4587   -0.9810   -0.5615 C.ar    1  UNL1        0.1443
     21 S          -3.3326   -1.7109   -1.7318 S.2     1  UNL1       -0.0481
     22 S          -6.1581   -1.2756   -0.4277 S.O2    1  UNL1        0.0623
     23 N          -6.7791   -0.3221    0.8622 N.3     1  UNL1       -0.2030
     24 O          -6.8954   -0.9433   -1.6911 O.2     1  UNL1       -0.1527
     25 O          -6.3530   -2.7533   -0.1540 O.2     1  UNL1       -0.1527
     26 H          -2.0559    3.2409   -0.0818 H       1  UNL1        0.0388
     27 H          -2.3853    2.0508   -1.4395 H       1  UNL1        0.0388
     28 H          -1.0751    3.3161   -1.5734 H       1  UNL1        0.0388
     29 H           0.1556    2.0979    0.0800 H       1  UNL1        0.1222
     30 H          -1.6124    1.2584    1.4675 H       1  UNL1        0.0527
     31 H           0.4695    0.4164    1.7425 H       1  UNL1        0.0501
     32 H          -0.5310   -1.0491    1.5400 H       1  UNL1        0.0501
     33 H           2.5681    1.3537   -0.4036 H       1  UNL1        0.0673
     34 H           6.9877    0.6899   -0.8457 H       1  UNL1        0.0660
     35 H           7.0300    2.2448    0.1097 H       1  UNL1        0.0660
     36 H           6.7848    0.6197    0.9358 H       1  UNL1        0.0660
     37 H           5.9153   -1.1936    0.5931 H       1  UNL1        0.0654
     38 H           4.3346   -3.0991    0.9207 H       1  UNL1        0.0619
     39 H           1.9869   -2.7245    0.5842 H       1  UNL1        0.0637
     40 H          -4.1255    0.4509    1.0187 H       1  UNL1        0.0646
     41 H          -6.6537    0.6622    0.5910 H       1  UNL1        0.1443
     42 H          -6.1376   -0.4707    1.6963 H       1  UNL1        0.1443
@<TRIPOS>BOND
     1     1     2    1
     2     2     3    1
     3     3     4    1
     4     4     5    1
     5     5     6    1
     6     6     7   ar
     7     7     8   ar
     8     8     9    1
     9     9    10    1
    10     8    11   ar
    11    11    12   ar
    12    12    13   ar
    13     5    14    1
    14    14    15    2
    15    14    16    2
    16    14    17    1
    17    17    18   ar
    18    18    19   ar
    19    19    20   ar
    20    20    21   ar
    21    20    22    1
    22    22    23    1
    23    22    24    2
    24    22    25    2
    25    18     3    1
    26    13     6   ar
    27    21    17   ar
    28     1    26    1
    29     1    27    1
    30     1    28    1
    31     2    29    1
    32     3    30    1
    33     4    31    1
    34     4    32    1
    35     7    33    1
    36    10    34    1
    37    10    35    1
    38    10    36    1
    39    11    37    1
    40    12    38    1
    41    13    39    1
    42    19    40    1
    43    23    41    1
    44    23    42    1
