
     RDKit          3D

 34 36  0  0  0  0  0  0  0  0999 V2000
   -0.2393   -2.2365   -2.1050 N   0  0  0  0  0  0  0  0  0  0  0  0
    0.7072   -1.5389   -1.3345 C   0  0  0  0  0  0  0  0  0  0  0  0
    2.0170   -1.9797   -1.3358 C   0  0  0  0  0  0  0  0  0  0  0  0
    2.9958   -1.3424   -0.6028 C   0  0  0  0  0  0  0  0  0  0  0  0
    2.6150   -0.2412    0.1364 C   0  0  0  0  0  0  0  0  0  0  0  0
    3.5953    0.4585    0.9172 C   0  0  0  0  0  0  0  0  0  0  0  0
    3.5440    1.5568    1.7380 C   0  0  0  0  0  0  0  0  0  0  0  0
    4.6593    1.9807    2.3438 C   0  0  0  0  0  0  0  0  0  0  0  0
    5.8178    1.3424    2.1541 C   0  0  0  0  0  0  0  0  0  0  0  0
    5.3551   -0.0116    1.0082 S   0  0  0  0  0  0  0  0  0  0  0  0
    1.3024    0.1939    0.1326 C   0  0  0  0  0  0  0  0  0  0  0  0
    0.3205   -0.4382   -0.5972 C   0  0  0  0  0  0  0  0  0  0  0  0
   -1.0239    0.0438   -0.5734 N   0  0  0  0  0  0  0  0  0  0  0  0
   -1.9042   -0.4698    0.4127 C   0  0  0  0  0  0  0  0  0  0  0  0
   -1.4369   -1.3402    1.2271 O   0  0  0  0  0  0  0  0  0  0  0  0
   -3.2830   -0.0322    0.5036 C   0  0  0  0  0  0  0  0  0  0  0  0
   -3.8191    0.8964   -0.3488 C   0  0  0  0  0  0  0  0  0  0  0  0
   -5.1435    1.2885   -0.2284 C   0  0  0  0  0  0  0  0  0  0  0  0
   -5.9402    0.7442    0.7571 C   0  0  0  0  0  0  0  0  0  0  0  0
   -5.3974   -0.1669    1.5860 N   0  0  0  0  0  0  0  0  0  0  0  0
   -4.1187   -0.5524    1.4780 C   0  0  0  0  0  0  0  0  0  0  0  0
   -0.3249   -3.2711   -2.0178 H   0  0  0  0  0  0  0  0  0  0  0  0
   -0.8633   -1.7491   -2.7660 H   0  0  0  0  0  0  0  0  0  0  0  0
    2.3457   -2.8493   -1.9124 H   0  0  0  0  0  0  0  0  0  0  0  0
    4.0321   -1.6854   -0.5995 H   0  0  0  0  0  0  0  0  0  0  0  0
    2.5444    2.0580    1.8641 H   0  0  0  0  0  0  0  0  0  0  0  0
    4.6629    2.8861    3.0321 H   0  0  0  0  0  0  0  0  0  0  0  0
    6.8247    1.4817    2.5161 H   0  0  0  0  0  0  0  0  0  0  0  0
    1.0051    1.0721    0.7237 H   0  0  0  0  0  0  0  0  0  0  0  0
   -1.3256    0.7696   -1.2910 H   0  0  0  0  0  0  0  0  0  0  0  0
   -3.2335    1.3383   -1.1220 H   0  0  0  0  0  0  0  0  0  0  0  0
   -5.5731    2.0260   -0.9038 H   0  0  0  0  0  0  0  0  0  0  0  0
   -6.9870    1.0448    0.8631 H   0  0  0  0  0  0  0  0  0  0  0  0
   -3.7305   -1.2769    2.1562 H   0  0  0  0  0  0  0  0  0  0  0  0
  1  2  1  0
  2  3  2  0
  3  4  1  0
  4  5  2  0
  5  6  1  0
  6  7  2  0
  7  8  1  0
  8  9  2  0
  9 10  1  0
  5 11  1  0
 11 12  2  0
 12 13  1  0
 13 14  1  0
 14 15  2  0
 14 16  1  0
 16 17  2  0
 17 18  1  0
 18 19  2  0
 19 20  1  0
 20 21  2  0
 12  2  1  0
 21 16  1  0
 10  6  1  0
  1 22  1  0
  1 23  1  0
  3 24  1  0
  4 25  1  0
  7 26  1  0
  8 27  1  0
  9 28  1  0
 11 29  1  0
 13 30  1  0
 17 31  1  0
 18 32  1  0
 19 33  1  0
 21 34  1  0
M  END
$$$$
