@<TRIPOS>MOLECULE
*****
 34 36 0 0 0
SMALL
GASTEIGER

@<TRIPOS>ATOM
      1 N          -0.2393   -2.2365   -2.1050 N.pl3   1  UNL1       -0.3565
      2 C           0.7072   -1.5389   -1.3345 C.ar    1  UNL1        0.0461
      3 C           2.0170   -1.9797   -1.3358 C.ar    1  UNL1       -0.0386
      4 C           2.9958   -1.3424   -0.6028 C.ar    1  UNL1       -0.0517
      5 C           2.6150   -0.2412    0.1364 C.ar    1  UNL1       -0.0094
      6 C           3.5953    0.4585    0.9172 C.ar    1  UNL1        0.0194
      7 C           3.5440    1.5568    1.7380 C.ar    1  UNL1       -0.0469
      8 C           4.6593    1.9807    2.3438 C.ar    1  UNL1       -0.0541
      9 C           5.8178    1.3424    2.1541 C.ar    1  UNL1       -0.0237
     10 S           5.3551   -0.0116    1.0082 S.2     1  UNL1       -0.0967
     11 C           1.3024    0.1939    0.1326 C.ar    1  UNL1       -0.0305
     12 C           0.3205   -0.4382   -0.5972 C.ar    1  UNL1        0.0551
     13 N          -1.0239    0.0438   -0.5734 N.am    1  UNL1       -0.2799
     14 C          -1.9042   -0.4698    0.4127 C.2     1  UNL1        0.2498
     15 O          -1.4369   -1.3402    1.2271 O.2     1  UNL1       -0.2698
     16 C          -3.2830   -0.0322    0.5036 C.ar    1  UNL1        0.0551
     17 C          -3.8191    0.8964   -0.3488 C.ar    1  UNL1       -0.0467
     18 C          -5.1435    1.2885   -0.2284 C.ar    1  UNL1       -0.0429
     19 C          -5.9402    0.7442    0.7571 C.ar    1  UNL1        0.0276
     20 N          -5.3974   -0.1669    1.5860 N.ar    1  UNL1       -0.2625
     21 C          -4.1187   -0.5524    1.4780 C.ar    1  UNL1        0.0397
     22 H          -0.3249   -3.2711   -2.0178 H       1  UNL1        0.1424
     23 H          -0.8633   -1.7491   -2.7660 H       1  UNL1        0.1424
     24 H           2.3457   -2.8493   -1.9124 H       1  UNL1        0.0637
     25 H           4.0321   -1.6854   -0.5995 H       1  UNL1        0.0624
     26 H           2.5444    2.0580    1.8641 H       1  UNL1        0.0629
     27 H           4.6629    2.8861    3.0321 H       1  UNL1        0.0623
     28 H           6.8247    1.4817    2.5161 H       1  UNL1        0.0693
     29 H           1.0051    1.0721    0.7237 H       1  UNL1        0.0643
     30 H          -1.3256    0.7696   -1.2910 H       1  UNL1        0.1552
     31 H          -3.2335    1.3383   -1.1220 H       1  UNL1        0.0626
     32 H          -5.5731    2.0260   -0.9038 H       1  UNL1        0.0633
     33 H          -6.9870    1.0448    0.8631 H       1  UNL1        0.0829
     34 H          -3.7305   -1.2769    2.1562 H       1  UNL1        0.0837
@<TRIPOS>BOND
     1     1     2    1
     2     2     3   ar
     3     3     4   ar
     4     4     5   ar
     5     5     6    1
     6     6     7   ar
     7     7     8   ar
     8     8     9   ar
     9     9    10   ar
    10     5    11   ar
    11    11    12   ar
    12    12    13    1
    13    13    14   am
    14    14    15    2
    15    14    16    1
    16    16    17   ar
    17    17    18   ar
    18    18    19   ar
    19    19    20   ar
    20    20    21   ar
    21    12     2   ar
    22    21    16   ar
    23    10     6   ar
    24     1    22    1
    25     1    23    1
    26     3    24    1
    27     4    25    1
    28     7    26    1
    29     8    27    1
    30     9    28    1
    31    11    29    1
    32    13    30    1
    33    17    31    1
    34    18    32    1
    35    19    33    1
    36    21    34    1
