
     RDKit          3D

 51 53  0  0  0  0  0  0  0  0999 V2000
    4.5367    3.4971   -0.3633 C   0  0  0  0  0  0  0  0  0  0  0  0
    4.3555    2.2148    0.1314 O   0  0  0  0  0  0  0  0  0  0  0  0
    5.1264    1.2688   -0.5057 C   0  0  0  0  0  0  0  0  0  0  0  0
    4.8180   -0.0756    0.1442 C   0  0  2  0  0  0  0  0  0  0  0  0
    5.5854   -1.1938   -0.5185 C   0  0  0  0  0  0  0  0  0  0  0  0
    4.5562   -2.2516   -0.8662 C   0  0  0  0  0  0  0  0  0  0  0  0
    3.2505   -1.4944   -0.8342 C   0  0  0  0  0  0  0  0  0  0  0  0
    3.4310   -0.3420   -0.0260 N   0  0  0  0  0  0  0  0  0  0  0  0
    2.5556   -0.3712    1.4547 S   0  0  0  0  0  6  0  0  0  0  0  0
    2.8503    0.9253    2.1739 O   0  0  0  0  0  0  0  0  0  0  0  0
    3.0167   -1.4814    2.3637 O   0  0  0  0  0  0  0  0  0  0  0  0
    0.8305   -0.4520    1.1762 C   0  0  0  0  0  0  0  0  0  0  0  0
    0.0683    0.6903    1.0524 C   0  0  0  0  0  0  0  0  0  0  0  0
   -1.3015    0.6745    0.8314 C   0  0  0  0  0  0  0  0  0  0  0  0
   -2.2454    2.3446    0.6686 Br  0  0  0  0  0  0  0  0  0  0  0  0
   -1.9558   -0.5371    0.7270 C   0  0  0  0  0  0  0  0  0  0  0  0
   -1.1810   -1.6915    0.8527 C   0  0  0  0  0  0  0  0  0  0  0  0
    0.1626   -1.6542    1.0693 C   0  0  0  0  0  0  0  0  0  0  0  0
   -2.0430   -2.8715    0.7119 C   0  0  0  0  0  0  0  0  0  0  0  0
   -1.6790   -4.0813    0.7704 O   0  0  0  0  0  0  0  0  0  0  0  0
   -3.3773   -2.3389    0.4951 C   0  0  0  0  0  0  0  0  0  0  0  0
   -4.4068   -3.0253    0.3272 O   0  0  0  0  0  0  0  0  0  0  0  0
   -3.3065   -0.8953    0.5075 N   0  0  0  0  0  0  0  0  0  0  0  0
   -4.4150    0.0009    0.3251 C   0  0  0  0  0  0  0  0  0  0  0  0
   -4.6248    0.3666   -1.1218 C   0  0  0  0  0  0  0  0  0  0  0  0
   -5.7834    1.3096   -1.2913 C   0  0  0  0  0  0  0  0  0  0  0  0
   -7.0697    0.7110   -0.7968 C   0  0  0  0  0  0  0  0  0  0  0  0
   -8.1227    1.6249   -0.9800 O   0  0  0  0  0  0  0  0  0  0  0  0
    5.6154    3.7750   -0.2278 H   0  0  0  0  0  0  0  0  0  0  0  0
    4.1904    3.6273   -1.3887 H   0  0  0  0  0  0  0  0  0  0  0  0
    3.9742    4.1903    0.2975 H   0  0  0  0  0  0  0  0  0  0  0  0
    4.9250    1.1954   -1.5954 H   0  0  0  0  0  0  0  0  0  0  0  0
    6.2025    1.5482   -0.3170 H   0  0  0  0  0  0  0  0  0  0  0  0
    5.1544   -0.0222    1.2013 H   0  0  0  0  0  0  0  0  0  0  0  0
    6.1145   -0.8423   -1.4254 H   0  0  0  0  0  0  0  0  0  0  0  0
    6.3147   -1.6745    0.1637 H   0  0  0  0  0  0  0  0  0  0  0  0
    4.7072   -2.6825   -1.8713 H   0  0  0  0  0  0  0  0  0  0  0  0
    4.5037   -3.0378   -0.0741 H   0  0  0  0  0  0  0  0  0  0  0  0
    3.0572   -1.1421   -1.8873 H   0  0  0  0  0  0  0  0  0  0  0  0
    2.3969   -2.0942   -0.5190 H   0  0  0  0  0  0  0  0  0  0  0  0
    0.5650    1.6540    1.1318 H   0  0  0  0  0  0  0  0  0  0  0  0
    0.7557   -2.5711    1.1657 H   0  0  0  0  0  0  0  0  0  0  0  0
   -4.3526    0.9317    0.9129 H   0  0  0  0  0  0  0  0  0  0  0  0
   -5.3345   -0.5824    0.6345 H   0  0  0  0  0  0  0  0  0  0  0  0
   -4.8865   -0.5894   -1.6652 H   0  0  0  0  0  0  0  0  0  0  0  0
   -3.7423    0.8473   -1.5850 H   0  0  0  0  0  0  0  0  0  0  0  0
   -5.9001    1.6291   -2.3417 H   0  0  0  0  0  0  0  0  0  0  0  0
   -5.5751    2.2173   -0.6748 H   0  0  0  0  0  0  0  0  0  0  0  0
   -6.9940    0.5282    0.3082 H   0  0  0  0  0  0  0  0  0  0  0  0
   -7.3194   -0.2044   -1.3419 H   0  0  0  0  0  0  0  0  0  0  0  0
   -8.0043    2.4275   -0.4240 H   0  0  0  0  0  0  0  0  0  0  0  0
  1  2  1  0
  2  3  1  0
  3  4  1  0
  4  5  1  0
  5  6  1  0
  6  7  1  0
  7  8  1  0
  8  9  1  0
  9 10  2  0
  9 11  2  0
  9 12  1  0
 12 13  2  0
 13 14  1  0
 14 15  1  0
 14 16  2  0
 16 17  1  0
 17 18  2  0
 17 19  1  0
 19 20  2  0
 19 21  1  0
 21 22  2  0
 21 23  1  0
 23 24  1  0
 24 25  1  0
 25 26  1  0
 26 27  1  0
 27 28  1  0
  8  4  1  0
 18 12  1  0
 23 16  1  0
  1 29  1  0
  1 30  1  0
  1 31  1  0
  3 32  1  0
  3 33  1  0
  4 34  1  1
  5 35  1  0
  5 36  1  0
  6 37  1  0
  6 38  1  0
  7 39  1  0
  7 40  1  0
 13 41  1  0
 18 42  1  0
 24 43  1  0
 24 44  1  0
 25 45  1  0
 25 46  1  0
 26 47  1  0
 26 48  1  0
 27 49  1  0
 27 50  1  0
 28 51  1  0
M  END
$$$$
