@<TRIPOS>MOLECULE
*****
 51 53 0 0 0
SMALL
GASTEIGER

@<TRIPOS>ATOM
      1 C           4.5367    3.4971   -0.3633 C.3     1  UNL1        0.0365
      2 O           4.3555    2.2148    0.1314 O.3     1  UNL1       -0.3814
      3 C           5.1264    1.2688   -0.5057 C.3     1  UNL1        0.0645
      4 C           4.8180   -0.0756    0.1442 C.3     1  UNL1        0.0552
      5 C           5.5854   -1.1938   -0.5185 C.3     1  UNL1       -0.0323
      6 C           4.5562   -2.2516   -0.8662 C.3     1  UNL1       -0.0370
      7 C           3.2505   -1.4944   -0.8342 C.3     1  UNL1        0.0209
      8 N           3.4310   -0.3420   -0.0260 N.3     1  UNL1       -0.1713
      9 S           2.5556   -0.3712    1.4547 S.O2    1  UNL1        0.0612
     10 O           2.8503    0.9253    2.1739 O.2     1  UNL1       -0.1528
     11 O           3.0167   -1.4814    2.3637 O.2     1  UNL1       -0.1528
     12 C           0.8305   -0.4520    1.1762 C.ar    1  UNL1        0.1073
     13 C           0.0683    0.6903    1.0524 C.ar    1  UNL1       -0.0195
     14 C          -1.3015    0.6745    0.8314 C.ar    1  UNL1        0.0418
     15 BR         -2.2454    2.3446    0.6686 Br      1  UNL1       -0.0483
     16 C          -1.9558   -0.5371    0.7270 C.ar    1  UNL1        0.0617
     17 C          -1.1810   -1.6915    0.8527 C.ar    1  UNL1        0.0512
     18 C           0.1626   -1.6542    1.0693 C.ar    1  UNL1       -0.0225
     19 C          -2.0430   -2.8715    0.7119 C.2     1  UNL1        0.2496
     20 O          -1.6790   -4.0813    0.7704 O.2     1  UNL1       -0.2817
     21 C          -3.3773   -2.3389    0.4951 C.2     1  UNL1        0.2913
     22 O          -4.4068   -3.0253    0.3272 O.2     1  UNL1       -0.2661
     23 N          -3.3065   -0.8953    0.5075 N.am    1  UNL1       -0.2631
     24 C          -4.4150    0.0009    0.3251 C.3     1  UNL1        0.0203
     25 C          -4.6248    0.3666   -1.1218 C.3     1  UNL1       -0.0347
     26 C          -5.7834    1.3096   -1.2913 C.3     1  UNL1       -0.0283
     27 C          -7.0697    0.7110   -0.7968 C.3     1  UNL1        0.0443
     28 O          -8.1227    1.6249   -0.9800 O.3     1  UNL1       -0.3950
     29 H           5.6154    3.7750   -0.2278 H       1  UNL1        0.0523
     30 H           4.1904    3.6273   -1.3887 H       1  UNL1        0.0523
     31 H           3.9742    4.1903    0.2975 H       1  UNL1        0.0523
     32 H           4.9250    1.1954   -1.5954 H       1  UNL1        0.0576
     33 H           6.2025    1.5482   -0.3170 H       1  UNL1        0.0576
     34 H           5.1544   -0.0222    1.2013 H       1  UNL1        0.0502
     35 H           6.1145   -0.8423   -1.4254 H       1  UNL1        0.0282
     36 H           6.3147   -1.6745    0.1637 H       1  UNL1        0.0282
     37 H           4.7072   -2.6825   -1.8713 H       1  UNL1        0.0279
     38 H           4.5037   -3.0378   -0.0741 H       1  UNL1        0.0279
     39 H           3.0572   -1.1421   -1.8873 H       1  UNL1        0.0444
     40 H           2.3969   -2.0942   -0.5190 H       1  UNL1        0.0444
     41 H           0.5650    1.6540    1.1318 H       1  UNL1        0.0649
     42 H           0.7557   -2.5711    1.1657 H       1  UNL1        0.0645
     43 H          -4.3526    0.9317    0.9129 H       1  UNL1        0.0469
     44 H          -5.3345   -0.5824    0.6345 H       1  UNL1        0.0469
     45 H          -4.8865   -0.5894   -1.6652 H       1  UNL1        0.0281
     46 H          -3.7423    0.8473   -1.5850 H       1  UNL1        0.0281
     47 H          -5.9001    1.6291   -2.3417 H       1  UNL1        0.0288
     48 H          -5.5751    2.2173   -0.6748 H       1  UNL1        0.0288
     49 H          -6.9940    0.5282    0.3082 H       1  UNL1        0.0557
     50 H          -7.3194   -0.2044   -1.3419 H       1  UNL1        0.0557
     51 H          -8.0043    2.4275   -0.4240 H       1  UNL1        0.2094
@<TRIPOS>BOND
     1     1     2    1
     2     2     3    1
     3     3     4    1
     4     4     5    1
     5     5     6    1
     6     6     7    1
     7     7     8    1
     8     8     9    1
     9     9    10    2
    10     9    11    2
    11     9    12    1
    12    12    13   ar
    13    13    14   ar
    14    14    15    1
    15    14    16   ar
    16    16    17   ar
    17    17    18   ar
    18    17    19    1
    19    19    20    2
    20    19    21    1
    21    21    22    2
    22    21    23   am
    23    23    24    1
    24    24    25    1
    25    25    26    1
    26    26    27    1
    27    27    28    1
    28     8     4    1
    29    18    12   ar
    30    23    16    1
    31     1    29    1
    32     1    30    1
    33     1    31    1
    34     3    32    1
    35     3    33    1
    36     4    34    1
    37     5    35    1
    38     5    36    1
    39     6    37    1
    40     6    38    1
    41     7    39    1
    42     7    40    1
    43    13    41    1
    44    18    42    1
    45    24    43    1
    46    24    44    1
    47    25    45    1
    48    25    46    1
    49    26    47    1
    50    26    48    1
    51    27    49    1
    52    27    50    1
    53    28    51    1
