
     RDKit          3D

 46 47  0  0  0  0  0  0  0  0999 V2000
   -5.5200   -0.7529    2.0692 C   0  0  0  0  0  0  0  0  0  0  0  0
   -5.1868   -0.6813    0.6239 C   0  0  0  0  0  0  0  0  0  0  0  0
   -3.8502   -0.5369    0.2542 C   0  0  0  0  0  0  0  0  0  0  0  0
   -3.5720   -0.4745   -1.0506 N   0  0  0  0  0  0  0  0  0  0  0  0
   -2.2522   -0.3261   -1.6328 C   0  0  1  0  0  0  0  0  0  0  0  0
   -2.0140    1.1745   -1.8154 C   0  0  0  0  0  0  0  0  0  0  0  0
   -0.9911    1.4101   -0.7024 C   0  0  2  0  0  0  0  0  0  0  0  0
   -0.2298    2.5443   -0.9538 O   0  0  0  0  0  0  0  0  0  0  0  0
   -0.2095    0.1208   -0.8493 C   0  0  1  0  0  0  0  0  0  0  0  0
    0.7396   -0.0998    0.2977 C   0  0  0  0  0  0  0  0  0  0  0  0
    1.7653    0.8116    0.3438 O   0  0  0  0  0  0  0  0  0  0  0  0
    2.8197    0.5496    1.6348 P   0  0  0  0  0  0  0  0  0  0  0  0
    4.2974    1.3302    1.3723 O   0  0  0  0  0  0  0  0  0  0  0  0
    2.2172    1.0641    2.9226 O   0  0  0  0  0  0  0  0  0  0  0  0
    3.1497   -1.0957    1.8474 O   0  0  0  0  0  0  0  0  0  0  0  0
    4.5612   -1.4485    0.9719 P   0  0  0  0  0  0  0  0  0  0  0  0
    5.8935   -1.3767    2.0432 O   0  0  0  0  0  0  0  0  0  0  0  0
    4.5139   -2.8121    0.3306 O   0  0  0  0  0  0  0  0  0  0  0  0
    4.8371   -0.2362   -0.1783 O   0  0  0  0  0  0  0  0  0  0  0  0
    6.4570   -0.2098   -0.6419 P   0  0  0  0  0  0  0  0  0  0  0  0
    7.4164   -0.9180    0.5589 O   0  0  0  0  0  0  0  0  0  0  0  0
    7.0173    1.3751   -0.9236 O   0  0  0  0  0  0  0  0  0  0  0  0
    6.5785   -1.0555   -1.8960 O   0  0  0  0  0  0  0  0  0  0  0  0
   -1.2340   -0.8180   -0.8659 O   0  0  0  0  0  0  0  0  0  0  0  0
   -4.5985   -0.5546   -1.9416 C   0  0  0  0  0  0  0  0  0  0  0  0
   -4.4048   -0.5021   -3.1964 O   0  0  0  0  0  0  0  0  0  0  0  0
   -5.8813   -0.6931   -1.5928 N   0  0  0  0  0  0  0  0  0  0  0  0
   -6.2257   -0.7623   -0.2801 C   0  0  0  0  0  0  0  0  0  0  0  0
   -7.4178   -0.8926    0.1006 O   0  0  0  0  0  0  0  0  0  0  0  0
   -6.0879   -1.7135    2.2354 H   0  0  0  0  0  0  0  0  0  0  0  0
   -6.2680    0.0371    2.3144 H   0  0  0  0  0  0  0  0  0  0  0  0
   -4.6357   -0.6853    2.7144 H   0  0  0  0  0  0  0  0  0  0  0  0
   -3.0341   -0.4725    0.9371 H   0  0  0  0  0  0  0  0  0  0  0  0
   -2.2149   -0.8436   -2.6233 H   0  0  0  0  0  0  0  0  0  0  0  0
   -1.4618    1.3639   -2.7719 H   0  0  0  0  0  0  0  0  0  0  0  0
   -2.9146    1.7763   -1.6960 H   0  0  0  0  0  0  0  0  0  0  0  0
   -1.5670    1.4502    0.2304 H   0  0  0  0  0  0  0  0  0  0  0  0
   -0.2999    3.2034   -0.2215 H   0  0  0  0  0  0  0  0  0  0  0  0
    0.3474    0.1427   -1.7883 H   0  0  0  0  0  0  0  0  0  0  0  0
    1.1885   -1.1060    0.1609 H   0  0  0  0  0  0  0  0  0  0  0  0
    0.2180   -0.0513    1.2783 H   0  0  0  0  0  0  0  0  0  0  0  0
    4.1067    2.2414    1.0129 H   0  0  0  0  0  0  0  0  0  0  0  0
    5.9796   -0.4389    2.3550 H   0  0  0  0  0  0  0  0  0  0  0  0
    8.0888   -0.2808    0.8746 H   0  0  0  0  0  0  0  0  0  0  0  0
    6.5364    1.9965   -0.3306 H   0  0  0  0  0  0  0  0  0  0  0  0
   -6.6578   -0.7533   -2.2845 H   0  0  0  0  0  0  0  0  0  0  0  0
  1  2  1  0
  2  3  2  0
  3  4  1  0
  4  5  1  0
  5  6  1  0
  6  7  1  0
  7  8  1  0
  7  9  1  0
  9 10  1  0
 10 11  1  0
 11 12  1  0
 12 13  1  0
 12 14  2  0
 12 15  1  0
 15 16  1  0
 16 17  1  0
 16 18  2  0
 16 19  1  0
 19 20  1  0
 20 21  1  0
 20 22  1  0
 20 23  2  0
  9 24  1  0
  4 25  1  0
 25 26  2  0
 25 27  1  0
 27 28  1  0
 28 29  2  0
 28  2  1  0
 24  5  1  0
  1 30  1  0
  1 31  1  0
  1 32  1  0
  3 33  1  0
  5 34  1  6
  6 35  1  0
  6 36  1  0
  7 37  1  1
  8 38  1  0
  9 39  1  6
 10 40  1  0
 10 41  1  0
 13 42  1  0
 17 43  1  0
 21 44  1  0
 22 45  1  0
 27 46  1  0
M  END
$$$$
