@<TRIPOS>MOLECULE
*****
 46 47 0 0 0
SMALL
GASTEIGER

@<TRIPOS>ATOM
      1 C          -5.5200   -0.7529    2.0692 C.3     1  UNL1       -0.0332
      2 C          -5.1868   -0.6813    0.6239 C.ar    1  UNL1        0.0302
      3 C          -3.8502   -0.5369    0.2542 C.ar    1  UNL1        0.0199
      4 N          -3.5720   -0.4745   -1.0506 N.ar    1  UNL1       -0.2737
      5 C          -2.2522   -0.3261   -1.6328 C.3     1  UNL1        0.1422
      6 C          -2.0140    1.1745   -1.8154 C.3     1  UNL1        0.0214
      7 C          -0.9911    1.4101   -0.7024 C.3     1  UNL1        0.0877
      8 O          -0.2298    2.5443   -0.9538 O.3     1  UNL1       -0.3890
      9 C          -0.2095    0.1208   -0.8493 C.3     1  UNL1        0.1108
     10 C           0.7396   -0.0998    0.2977 C.3     1  UNL1        0.0878
     11 O           1.7653    0.8116    0.3438 O.3     1  UNL1       -0.2837
     12 P           2.8197    0.5496    1.6348 P.3     1  UNL1        0.4835
     13 O           4.2974    1.3302    1.3723 O.3     1  UNL1       -0.3022
     14 O           2.2172    1.0641    2.9226 O.2     1  UNL1       -0.2269
     15 O           3.1497   -1.0957    1.8474 O.3     1  UNL1       -0.1858
     16 P           4.5612   -1.4485    0.9719 P.3     1  UNL1        0.4918
     17 O           5.8935   -1.3767    2.0432 O.3     1  UNL1       -0.3019
     18 O           4.5139   -2.8121    0.3306 O.2     1  UNL1       -0.2265
     19 O           4.8371   -0.2362   -0.1783 O.3     1  UNL1       -0.1859
     20 P           6.4570   -0.2098   -0.6419 P.3     1  UNL1        0.4808
     21 O           7.4164   -0.9180    0.5589 O.3     1  UNL1       -0.3023
     22 O           7.0173    1.3751   -0.9236 O.3     1  UNL1       -0.3023
     23 O           6.5785   -1.0555   -1.8960 O.2     1  UNL1       -0.2271
     24 O          -1.2340   -0.8180   -0.8659 O.3     1  UNL1       -0.3483
     25 C          -4.5985   -0.5546   -1.9416 C.ar    1  UNL1        0.3313
     26 O          -4.4048   -0.5021   -3.1964 O.2     1  UNL1       -0.2464
     27 N          -5.8813   -0.6931   -1.5928 N.ar    1  UNL1       -0.2747
     28 C          -6.2257   -0.7623   -0.2801 C.ar    1  UNL1        0.2568
     29 O          -7.4178   -0.8926    0.1006 O.2     1  UNL1       -0.2674
     30 H          -6.0879   -1.7135    2.2354 H       1  UNL1        0.0280
     31 H          -6.2680    0.0371    2.3144 H       1  UNL1        0.0280
     32 H          -4.6357   -0.6853    2.7144 H       1  UNL1        0.0280
     33 H          -3.0341   -0.4725    0.9371 H       1  UNL1        0.0816
     34 H          -2.2149   -0.8436   -2.6233 H       1  UNL1        0.0840
     35 H          -1.4618    1.3639   -2.7719 H       1  UNL1        0.0335
     36 H          -2.9146    1.7763   -1.6960 H       1  UNL1        0.0335
     37 H          -1.5670    1.4502    0.2304 H       1  UNL1        0.0621
     38 H          -0.2999    3.2034   -0.2215 H       1  UNL1        0.2099
     39 H           0.3474    0.1427   -1.7883 H       1  UNL1        0.0646
     40 H           1.1885   -1.1060    0.1609 H       1  UNL1        0.0592
     41 H           0.2180   -0.0513    1.2783 H       1  UNL1        0.0592
     42 H           4.1067    2.2414    1.0129 H       1  UNL1        0.2220
     43 H           5.9796   -0.4389    2.3550 H       1  UNL1        0.2220
     44 H           8.0888   -0.2808    0.8746 H       1  UNL1        0.2220
     45 H           6.5364    1.9965   -0.3306 H       1  UNL1        0.2220
     46 H          -6.6578   -0.7533   -2.2845 H       1  UNL1        0.1734
@<TRIPOS>BOND
     1     1     2    1
     2     2     3   ar
     3     3     4   ar
     4     4     5    1
     5     5     6    1
     6     6     7    1
     7     7     8    1
     8     7     9    1
     9     9    10    1
    10    10    11    1
    11    11    12    1
    12    12    13    1
    13    12    14    2
    14    12    15    1
    15    15    16    1
    16    16    17    1
    17    16    18    2
    18    16    19    1
    19    19    20    1
    20    20    21    1
    21    20    22    1
    22    20    23    2
    23     9    24    1
    24     4    25   ar
    25    25    26    2
    26    25    27   ar
    27    27    28   ar
    28    28    29    2
    29    28     2   ar
    30    24     5    1
    31     1    30    1
    32     1    31    1
    33     1    32    1
    34     3    33    1
    35     5    34    1
    36     6    35    1
    37     6    36    1
    38     7    37    1
    39     8    38    1
    40     9    39    1
    41    10    40    1
    42    10    41    1
    43    13    42    1
    44    17    43    1
    45    21    44    1
    46    22    45    1
    47    27    46    1
