@<TRIPOS>MOLECULE
*****
 55 58 0 0 0
SMALL
GASTEIGER

@<TRIPOS>ATOM
      1 C          -1.2613    1.0661    0.3869 C.3     1  UNL1       -0.0316
      2 C          -2.0861    1.6806    1.4358 C.3     1  UNL1       -0.0488
      3 C          -3.4566    1.6578    0.7839 C.3     1  UNL1       -0.0427
      4 C          -3.3783    0.6461   -0.3439 C.3     1  UNL1        0.0229
      5 C          -4.6014   -0.1624   -0.4981 C.2     1  UNL1        0.1339
      6 C          -5.8486    0.6221   -0.7918 C.3     1  UNL1       -0.0058
      7 O          -4.6720   -1.3764   -0.4081 O.2     1  UNL1       -0.2974
      8 C          -2.1518   -0.1289    0.0151 C.3     1  UNL1       -0.0195
      9 C          -2.4672   -0.9756    1.2295 C.3     1  UNL1       -0.0587
     10 C          -1.4809   -0.8433   -1.0867 C.3     1  UNL1       -0.0464
     11 C          -0.2200   -0.2210   -1.6111 C.3     1  UNL1       -0.0486
     12 C           0.7264    0.2800   -0.5887 C.3     1  UNL1       -0.0285
     13 C           0.0381    0.4716    0.7526 C.3     1  UNL1       -0.0306
     14 C           0.9033    1.3169    1.6432 C.3     1  UNL1       -0.0311
     15 C           2.1716    0.5435    1.7742 C.2     1  UNL1       -0.0839
     16 C           2.6788   -0.2507    0.8339 C.2     1  UNL1       -0.0648
     17 C           3.9635   -0.9684    1.1012 C.3     1  UNL1       -0.0051
     18 C           4.9070   -0.6157   -0.0060 C.3     1  UNL1        0.0590
     19 O           5.4083   -1.7221   -0.6983 O.3     1  UNL1       -0.3915
     20 C           4.3585    0.3856   -0.9796 C.3     1  UNL1       -0.0258
     21 C           3.0209    0.0324   -1.5365 C.3     1  UNL1       -0.0413
     22 C           2.0283   -0.4677   -0.4900 C.3     1  UNL1       -0.0078
     23 C           1.8652   -1.9403   -0.7776 C.3     1  UNL1       -0.0556
     24 H          -1.2363    1.7018   -0.5036 H       1  UNL1        0.0309
     25 H          -1.8158    2.7525    1.5589 H       1  UNL1        0.0268
     26 H          -2.0714    1.1915    2.4122 H       1  UNL1        0.0268
     27 H          -3.6690    2.6453    0.2792 H       1  UNL1        0.0272
     28 H          -4.2703    1.4040    1.4913 H       1  UNL1        0.0272
     29 H          -3.1816    1.1456   -1.3340 H       1  UNL1        0.0383
     30 H          -5.9973    0.5533   -1.8897 H       1  UNL1        0.0306
     31 H          -5.7970    1.6473   -0.4205 H       1  UNL1        0.0306
     32 H          -6.7332    0.1238   -0.3328 H       1  UNL1        0.0306
     33 H          -2.4590   -2.0648    0.9961 H       1  UNL1        0.0235
     34 H          -3.5108   -0.7742    1.6111 H       1  UNL1        0.0235
     35 H          -1.8184   -0.8067    2.0882 H       1  UNL1        0.0235
     36 H          -1.2595   -1.8819   -0.7617 H       1  UNL1        0.0271
     37 H          -2.1903   -0.9471   -1.9355 H       1  UNL1        0.0271
     38 H           0.2245   -0.9622   -2.3087 H       1  UNL1        0.0268
     39 H          -0.5705    0.5943   -2.3054 H       1  UNL1        0.0268
     40 H           1.0191    1.3303   -0.8859 H       1  UNL1        0.0312
     41 H          -0.0006   -0.5381    1.2037 H       1  UNL1        0.0309
     42 H           0.3848    1.4197    2.6219 H       1  UNL1        0.0310
     43 H           1.0269    2.3177    1.2218 H       1  UNL1        0.0310
     44 H           2.6845    0.6731    2.7329 H       1  UNL1        0.0572
     45 H           3.8312   -2.0596    1.2500 H       1  UNL1        0.0335
     46 H           4.3817   -0.6251    2.0937 H       1  UNL1        0.0335
     47 H           5.8189   -0.1307    0.4305 H       1  UNL1        0.0596
     48 H           5.9264   -2.3308   -0.1444 H       1  UNL1        0.2098
     49 H           5.0558    0.4253   -1.8439 H       1  UNL1        0.0290
     50 H           4.4022    1.4164   -0.5216 H       1  UNL1        0.0290
     51 H           2.5972    0.9659   -1.9618 H       1  UNL1        0.0274
     52 H           3.1216   -0.6556   -2.3979 H       1  UNL1        0.0274
     53 H           1.8618   -2.1023   -1.8878 H       1  UNL1        0.0238
     54 H           2.7746   -2.4700   -0.4441 H       1  UNL1        0.0238
     55 H           1.0239   -2.4177   -0.2525 H       1  UNL1        0.0238
@<TRIPOS>BOND
     1     1     2    1
     2     2     3    1
     3     3     4    1
     4     4     5    1
     5     5     6    1
     6     5     7    2
     7     4     8    1
     8     8     9    1
     9     8    10    1
    10    10    11    1
    11    11    12    1
    12    12    13    1
    13    13    14    1
    14    14    15    1
    15    15    16    2
    16    16    17    1
    17    17    18    1
    18    18    19    1
    19    18    20    1
    20    20    21    1
    21    21    22    1
    22    22    23    1
    23     8     1    1
    24    22    12    1
    25    13     1    1
    26    22    16    1
    27     1    24    1
    28     2    25    1
    29     2    26    1
    30     3    27    1
    31     3    28    1
    32     4    29    1
    33     6    30    1
    34     6    31    1
    35     6    32    1
    36     9    33    1
    37     9    34    1
    38     9    35    1
    39    10    36    1
    40    10    37    1
    41    11    38    1
    42    11    39    1
    43    12    40    1
    44    13    41    1
    45    14    42    1
    46    14    43    1
    47    15    44    1
    48    17    45    1
    49    17    46    1
    50    18    47    1
    51    19    48    1
    52    20    49    1
    53    20    50    1
    54    21    51    1
    55    21    52    1
    56    23    53    1
    57    23    54    1
    58    23    55    1
