
     RDKit          3D

 55 58  0  0  0  0  0  0  0  0999 V2000
   -1.2613    1.0661    0.3869 C   0  0  2  0  0  0  0  0  0  0  0  0
   -2.0861    1.6806    1.4358 C   0  0  0  0  0  0  0  0  0  0  0  0
   -3.4566    1.6578    0.7839 C   0  0  0  0  0  0  0  0  0  0  0  0
   -3.3783    0.6461   -0.3439 C   0  0  2  0  0  0  0  0  0  0  0  0
   -4.6014   -0.1624   -0.4981 C   0  0  0  0  0  0  0  0  0  0  0  0
   -5.8486    0.6221   -0.7918 C   0  0  0  0  0  0  0  0  0  0  0  0
   -4.6720   -1.3764   -0.4081 O   0  0  0  0  0  0  0  0  0  0  0  0
   -2.1518   -0.1289    0.0151 C   0  0  2  0  0  0  0  0  0  0  0  0
   -2.4672   -0.9756    1.2295 C   0  0  0  0  0  0  0  0  0  0  0  0
   -1.4809   -0.8433   -1.0867 C   0  0  0  0  0  0  0  0  0  0  0  0
   -0.2200   -0.2210   -1.6111 C   0  0  0  0  0  0  0  0  0  0  0  0
    0.7264    0.2800   -0.5887 C   0  0  1  0  0  0  0  0  0  0  0  0
    0.0381    0.4716    0.7526 C   0  0  1  0  0  0  0  0  0  0  0  0
    0.9033    1.3169    1.6432 C   0  0  0  0  0  0  0  0  0  0  0  0
    2.1716    0.5435    1.7742 C   0  0  0  0  0  0  0  0  0  0  0  0
    2.6788   -0.2507    0.8339 C   0  0  0  0  0  0  0  0  0  0  0  0
    3.9635   -0.9684    1.1012 C   0  0  0  0  0  0  0  0  0  0  0  0
    4.9070   -0.6157   -0.0060 C   0  0  1  0  0  0  0  0  0  0  0  0
    5.4083   -1.7221   -0.6983 O   0  0  0  0  0  0  0  0  0  0  0  0
    4.3585    0.3856   -0.9796 C   0  0  0  0  0  0  0  0  0  0  0  0
    3.0209    0.0324   -1.5365 C   0  0  0  0  0  0  0  0  0  0  0  0
    2.0283   -0.4677   -0.4900 C   0  0  2  0  0  0  0  0  0  0  0  0
    1.8652   -1.9403   -0.7776 C   0  0  0  0  0  0  0  0  0  0  0  0
   -1.2363    1.7018   -0.5036 H   0  0  0  0  0  0  0  0  0  0  0  0
   -1.8158    2.7525    1.5589 H   0  0  0  0  0  0  0  0  0  0  0  0
   -2.0714    1.1915    2.4122 H   0  0  0  0  0  0  0  0  0  0  0  0
   -3.6690    2.6453    0.2792 H   0  0  0  0  0  0  0  0  0  0  0  0
   -4.2703    1.4040    1.4913 H   0  0  0  0  0  0  0  0  0  0  0  0
   -3.1816    1.1456   -1.3340 H   0  0  0  0  0  0  0  0  0  0  0  0
   -5.9973    0.5533   -1.8897 H   0  0  0  0  0  0  0  0  0  0  0  0
   -5.7970    1.6473   -0.4205 H   0  0  0  0  0  0  0  0  0  0  0  0
   -6.7332    0.1238   -0.3328 H   0  0  0  0  0  0  0  0  0  0  0  0
   -2.4590   -2.0648    0.9961 H   0  0  0  0  0  0  0  0  0  0  0  0
   -3.5108   -0.7742    1.6111 H   0  0  0  0  0  0  0  0  0  0  0  0
   -1.8184   -0.8067    2.0882 H   0  0  0  0  0  0  0  0  0  0  0  0
   -1.2595   -1.8819   -0.7617 H   0  0  0  0  0  0  0  0  0  0  0  0
   -2.1903   -0.9471   -1.9355 H   0  0  0  0  0  0  0  0  0  0  0  0
    0.2245   -0.9622   -2.3087 H   0  0  0  0  0  0  0  0  0  0  0  0
   -0.5705    0.5943   -2.3054 H   0  0  0  0  0  0  0  0  0  0  0  0
    1.0191    1.3303   -0.8859 H   0  0  0  0  0  0  0  0  0  0  0  0
   -0.0006   -0.5381    1.2037 H   0  0  0  0  0  0  0  0  0  0  0  0
    0.3848    1.4197    2.6219 H   0  0  0  0  0  0  0  0  0  0  0  0
    1.0269    2.3177    1.2218 H   0  0  0  0  0  0  0  0  0  0  0  0
    2.6845    0.6731    2.7329 H   0  0  0  0  0  0  0  0  0  0  0  0
    3.8312   -2.0596    1.2500 H   0  0  0  0  0  0  0  0  0  0  0  0
    4.3817   -0.6251    2.0937 H   0  0  0  0  0  0  0  0  0  0  0  0
    5.8189   -0.1307    0.4305 H   0  0  0  0  0  0  0  0  0  0  0  0
    5.9264   -2.3308   -0.1444 H   0  0  0  0  0  0  0  0  0  0  0  0
    5.0558    0.4253   -1.8439 H   0  0  0  0  0  0  0  0  0  0  0  0
    4.4022    1.4164   -0.5216 H   0  0  0  0  0  0  0  0  0  0  0  0
    2.5972    0.9659   -1.9618 H   0  0  0  0  0  0  0  0  0  0  0  0
    3.1216   -0.6556   -2.3979 H   0  0  0  0  0  0  0  0  0  0  0  0
    1.8618   -2.1023   -1.8878 H   0  0  0  0  0  0  0  0  0  0  0  0
    2.7746   -2.4700   -0.4441 H   0  0  0  0  0  0  0  0  0  0  0  0
    1.0239   -2.4177   -0.2525 H   0  0  0  0  0  0  0  0  0  0  0  0
  1  2  1  0
  2  3  1  0
  3  4  1  0
  4  5  1  0
  5  6  1  0
  5  7  2  0
  4  8  1  0
  8  9  1  1
  8 10  1  0
 10 11  1  0
 11 12  1  0
 12 13  1  0
 13 14  1  0
 14 15  1  0
 15 16  2  0
 16 17  1  0
 17 18  1  0
 18 19  1  0
 18 20  1  0
 20 21  1  0
 21 22  1  0
 22 23  1  6
  8  1  1  0
 22 12  1  0
 13  1  1  0
 22 16  1  0
  1 24  1  6
  2 25  1  0
  2 26  1  0
  3 27  1  0
  3 28  1  0
  4 29  1  6
  6 30  1  0
  6 31  1  0
  6 32  1  0
  9 33  1  0
  9 34  1  0
  9 35  1  0
 10 36  1  0
 10 37  1  0
 11 38  1  0
 11 39  1  0
 12 40  1  6
 13 41  1  1
 14 42  1  0
 14 43  1  0
 15 44  1  0
 17 45  1  0
 17 46  1  0
 18 47  1  1
 19 48  1  0
 20 49  1  0
 20 50  1  0
 21 51  1  0
 21 52  1  0
 23 53  1  0
 23 54  1  0
 23 55  1  0
M  END
$$$$
