@<TRIPOS>MOLECULE
*****
 54 59 0 0 0
SMALL
GASTEIGER

@<TRIPOS>ATOM
      1 N          -3.7890   -1.4080   -1.3394 N.3     1  UNL1       -0.3266
      2 C          -2.8043   -1.0680   -0.3686 C.3     1  UNL1        0.0132
      3 C          -1.4159   -1.2327   -0.9648 C.3     1  UNL1       -0.0215
      4 C          -0.3343   -0.9689    0.0554 C.3     1  UNL1        0.0126
      5 N           0.8907   -0.8205   -0.6866 N.3     1  UNL1       -0.2895
      6 C           1.2322   -1.9866   -1.4520 C.3     1  UNL1        0.0278
      7 C           2.6500   -1.7412   -1.7948 C.ar    1  UNL1        0.0059
      8 C           3.4786   -2.1374   -2.8137 C.ar    1  UNL1        0.0375
      9 N           4.7522   -1.7371   -2.8024 N.ar    1  UNL1       -0.2186
     10 C           5.2645   -0.9576   -1.8294 C.ar    1  UNL1        0.2557
     11 N           6.4833   -0.4437   -1.6059 N.ar    1  UNL1       -0.1084
     12 N           6.4212    0.2413   -0.4965 N.ar    1  UNL1       -0.1318
     13 C           5.1639    0.1953    0.0360 C.ar    1  UNL1        0.1423
     14 C           4.7629    0.8562    1.2957 C.3     1  UNL1        0.0195
     15 C           5.0522    2.3749    1.3300 C.3     1  UNL1       -0.0426
     16 C           5.9229    1.4075    2.1085 C.3     1  UNL1       -0.0426
     17 N           4.4521   -0.5555   -0.8085 N.ar    1  UNL1       -0.2658
     18 C           3.1515   -0.9372   -0.7816 C.ar    1  UNL1        0.0481
     19 C           2.0535   -0.6242    0.1599 C.3     1  UNL1        0.0408
     20 C          -0.5697    0.2615    0.8743 C.3     1  UNL1       -0.0367
     21 C          -1.9870    0.4377    1.3216 C.3     1  UNL1       -0.0433
     22 C          -2.8693    0.3680    0.0954 C.3     1  UNL1        0.0022
     23 C          -4.2093    0.8757    0.2966 C.ar    1  UNL1       -0.0048
     24 C          -5.2492    0.0740    0.7151 C.ar    1  UNL1       -0.0174
     25 C          -6.5281    0.6017    0.8977 C.ar    1  UNL1        0.1588
     26 F          -7.5307   -0.2131    1.3104 F       1  UNL1       -0.2025
     27 C          -6.7751    1.9523    0.6591 C.ar    1  UNL1        0.1611
     28 F          -8.0326    2.4202    0.8499 F       1  UNL1       -0.2024
     29 C          -5.7368    2.7483    0.2423 C.ar    1  UNL1        0.0119
     30 C          -4.4831    2.2137    0.0671 C.ar    1  UNL1        0.1298
     31 F          -3.4992    3.0428   -0.3444 F       1  UNL1       -0.2051
     32 H          -4.3106   -2.2587   -1.0248 H       1  UNL1        0.1185
     33 H          -3.4425   -1.5829   -2.2868 H       1  UNL1        0.1185
     34 H          -2.8212   -1.7416    0.5372 H       1  UNL1        0.0465
     35 H          -1.2500   -2.2220   -1.3934 H       1  UNL1        0.0295
     36 H          -1.3203   -0.4504   -1.7487 H       1  UNL1        0.0295
     37 H          -0.2543   -1.8554    0.7037 H       1  UNL1        0.0463
     38 H           1.1240   -2.9154   -0.8333 H       1  UNL1        0.0477
     39 H           0.5780   -2.0165   -2.3460 H       1  UNL1        0.0477
     40 H           3.1260   -2.7623   -3.6206 H       1  UNL1        0.0834
     41 H           3.8793    0.5513    1.8628 H       1  UNL1        0.0380
     42 H           4.3471    3.0024    1.9037 H       1  UNL1        0.0272
     43 H           5.4126    2.8272    0.4049 H       1  UNL1        0.0272
     44 H           6.9558    1.2884    1.6993 H       1  UNL1        0.0272
     45 H           5.8262    1.4718    3.2018 H       1  UNL1        0.0272
     46 H           2.0851    0.4463    0.4937 H       1  UNL1        0.0491
     47 H           2.0500   -1.2380    1.0759 H       1  UNL1        0.0491
     48 H          -0.2723    1.1747    0.3263 H       1  UNL1        0.0280
     49 H           0.0670    0.1893    1.7889 H       1  UNL1        0.0280
     50 H          -2.0613    1.4138    1.8344 H       1  UNL1        0.0272
     51 H          -2.3330   -0.3706    2.0038 H       1  UNL1        0.0272
     52 H          -2.3565    0.9884   -0.6960 H       1  UNL1        0.0365
     53 H          -5.0205   -0.9685    0.8904 H       1  UNL1        0.0651
     54 H          -5.9268    3.7892    0.0583 H       1  UNL1        0.0676
@<TRIPOS>BOND
     1     1     2    1
     2     2     3    1
     3     3     4    1
     4     4     5    1
     5     5     6    1
     6     6     7    1
     7     7     8   ar
     8     8     9   ar
     9     9    10   ar
    10    10    11   ar
    11    11    12   ar
    12    12    13   ar
    13    13    14    1
    14    14    15    1
    15    15    16    1
    16    13    17   ar
    17    17    18   ar
    18    18    19    1
    19     4    20    1
    20    20    21    1
    21    21    22    1
    22    22    23    1
    23    23    24   ar
    24    24    25   ar
    25    25    26    1
    26    25    27   ar
    27    27    28    1
    28    27    29   ar
    29    29    30   ar
    30    30    31    1
    31    22     2    1
    32    30    23   ar
    33    19     5    1
    34    18     7   ar
    35    17    10   ar
    36    16    14    1
    37     1    32    1
    38     1    33    1
    39     2    34    1
    40     3    35    1
    41     3    36    1
    42     4    37    1
    43     6    38    1
    44     6    39    1
    45     8    40    1
    46    14    41    1
    47    15    42    1
    48    15    43    1
    49    16    44    1
    50    16    45    1
    51    19    46    1
    52    19    47    1
    53    20    48    1
    54    20    49    1
    55    21    50    1
    56    21    51    1
    57    22    52    1
    58    24    53    1
    59    29    54    1
