
     RDKit          3D

 54 59  0  0  0  0  0  0  0  0999 V2000
   -3.7890   -1.4080   -1.3394 N   0  0  0  0  0  0  0  0  0  0  0  0
   -2.8043   -1.0680   -0.3686 C   0  0  1  0  0  0  0  0  0  0  0  0
   -1.4159   -1.2327   -0.9648 C   0  0  0  0  0  0  0  0  0  0  0  0
   -0.3343   -0.9689    0.0554 C   0  0  1  0  0  0  0  0  0  0  0  0
    0.8907   -0.8205   -0.6866 N   0  0  0  0  0  0  0  0  0  0  0  0
    1.2322   -1.9866   -1.4520 C   0  0  0  0  0  0  0  0  0  0  0  0
    2.6500   -1.7412   -1.7948 C   0  0  0  0  0  0  0  0  0  0  0  0
    3.4786   -2.1374   -2.8137 C   0  0  0  0  0  0  0  0  0  0  0  0
    4.7522   -1.7371   -2.8024 N   0  0  0  0  0  0  0  0  0  0  0  0
    5.2645   -0.9576   -1.8294 C   0  0  0  0  0  0  0  0  0  0  0  0
    6.4833   -0.4437   -1.6059 N   0  0  0  0  0  0  0  0  0  0  0  0
    6.4212    0.2413   -0.4965 N   0  0  0  0  0  0  0  0  0  0  0  0
    5.1639    0.1953    0.0360 C   0  0  0  0  0  0  0  0  0  0  0  0
    4.7629    0.8562    1.2957 C   0  0  0  0  0  0  0  0  0  0  0  0
    5.0522    2.3749    1.3300 C   0  0  0  0  0  0  0  0  0  0  0  0
    5.9229    1.4075    2.1085 C   0  0  0  0  0  0  0  0  0  0  0  0
    4.4521   -0.5555   -0.8085 N   0  0  0  0  0  0  0  0  0  0  0  0
    3.1515   -0.9372   -0.7816 C   0  0  0  0  0  0  0  0  0  0  0  0
    2.0535   -0.6242    0.1599 C   0  0  0  0  0  0  0  0  0  0  0  0
   -0.5697    0.2615    0.8743 C   0  0  0  0  0  0  0  0  0  0  0  0
   -1.9870    0.4377    1.3216 C   0  0  0  0  0  0  0  0  0  0  0  0
   -2.8693    0.3680    0.0954 C   0  0  2  0  0  0  0  0  0  0  0  0
   -4.2093    0.8757    0.2966 C   0  0  0  0  0  0  0  0  0  0  0  0
   -5.2492    0.0740    0.7151 C   0  0  0  0  0  0  0  0  0  0  0  0
   -6.5281    0.6017    0.8977 C   0  0  0  0  0  0  0  0  0  0  0  0
   -7.5307   -0.2131    1.3104 F   0  0  0  0  0  0  0  0  0  0  0  0
   -6.7751    1.9523    0.6591 C   0  0  0  0  0  0  0  0  0  0  0  0
   -8.0326    2.4202    0.8499 F   0  0  0  0  0  0  0  0  0  0  0  0
   -5.7368    2.7483    0.2423 C   0  0  0  0  0  0  0  0  0  0  0  0
   -4.4831    2.2137    0.0671 C   0  0  0  0  0  0  0  0  0  0  0  0
   -3.4992    3.0428   -0.3444 F   0  0  0  0  0  0  0  0  0  0  0  0
   -4.3106   -2.2587   -1.0248 H   0  0  0  0  0  0  0  0  0  0  0  0
   -3.4425   -1.5829   -2.2868 H   0  0  0  0  0  0  0  0  0  0  0  0
   -2.8212   -1.7416    0.5372 H   0  0  0  0  0  0  0  0  0  0  0  0
   -1.2500   -2.2220   -1.3934 H   0  0  0  0  0  0  0  0  0  0  0  0
   -1.3203   -0.4504   -1.7487 H   0  0  0  0  0  0  0  0  0  0  0  0
   -0.2543   -1.8554    0.7037 H   0  0  0  0  0  0  0  0  0  0  0  0
    1.1240   -2.9154   -0.8333 H   0  0  0  0  0  0  0  0  0  0  0  0
    0.5780   -2.0165   -2.3460 H   0  0  0  0  0  0  0  0  0  0  0  0
    3.1260   -2.7623   -3.6206 H   0  0  0  0  0  0  0  0  0  0  0  0
    3.8793    0.5513    1.8628 H   0  0  0  0  0  0  0  0  0  0  0  0
    4.3471    3.0024    1.9037 H   0  0  0  0  0  0  0  0  0  0  0  0
    5.4126    2.8272    0.4049 H   0  0  0  0  0  0  0  0  0  0  0  0
    6.9558    1.2884    1.6993 H   0  0  0  0  0  0  0  0  0  0  0  0
    5.8262    1.4718    3.2018 H   0  0  0  0  0  0  0  0  0  0  0  0
    2.0851    0.4463    0.4937 H   0  0  0  0  0  0  0  0  0  0  0  0
    2.0500   -1.2380    1.0759 H   0  0  0  0  0  0  0  0  0  0  0  0
   -0.2723    1.1747    0.3263 H   0  0  0  0  0  0  0  0  0  0  0  0
    0.0670    0.1893    1.7889 H   0  0  0  0  0  0  0  0  0  0  0  0
   -2.0613    1.4138    1.8344 H   0  0  0  0  0  0  0  0  0  0  0  0
   -2.3330   -0.3706    2.0038 H   0  0  0  0  0  0  0  0  0  0  0  0
   -2.3565    0.9884   -0.6960 H   0  0  0  0  0  0  0  0  0  0  0  0
   -5.0205   -0.9685    0.8904 H   0  0  0  0  0  0  0  0  0  0  0  0
   -5.9268    3.7892    0.0583 H   0  0  0  0  0  0  0  0  0  0  0  0
  1  2  1  0
  2  3  1  0
  3  4  1  0
  4  5  1  0
  5  6  1  0
  6  7  1  0
  7  8  1  0
  8  9  2  0
  9 10  1  0
 10 11  2  0
 11 12  1  0
 12 13  2  0
 13 14  1  0
 14 15  1  0
 15 16  1  0
 13 17  1  0
 17 18  1  0
 18 19  1  0
  4 20  1  0
 20 21  1  0
 21 22  1  0
 22 23  1  0
 23 24  2  0
 24 25  1  0
 25 26  1  0
 25 27  2  0
 27 28  1  0
 27 29  1  0
 29 30  2  0
 30 31  1  0
 22  2  1  0
 30 23  1  0
 19  5  1  0
 18  7  2  0
 17 10  1  0
 16 14  1  0
  1 32  1  0
  1 33  1  0
  2 34  1  1
  3 35  1  0
  3 36  1  0
  4 37  1  1
  6 38  1  0
  6 39  1  0
  8 40  1  0
 14 41  1  0
 15 42  1  0
 15 43  1  0
 16 44  1  0
 16 45  1  0
 19 46  1  0
 19 47  1  0
 20 48  1  0
 20 49  1  0
 21 50  1  0
 21 51  1  0
 22 52  1  6
 24 53  1  0
 29 54  1  0
M  END
$$$$
