@<TRIPOS>MOLECULE
*****
 98 101 0 0 0
SMALL
GASTEIGER

@<TRIPOS>ATOM
      1 C           9.0789    0.6424    1.7113 C.3     1  UNL1       -0.0567
      2 C           8.6830    1.5352    2.8984 C.3     1  UNL1        0.0021
      3 C           8.7961    0.7888    4.1902 C.3     1  UNL1       -0.0567
      4 C           7.2563    1.8876    2.7189 C.ar    1  UNL1        0.0812
      5 N           6.1416    1.3620    2.8386 N.ar    1  UNL1       -0.2471
      6 C           4.9881    1.9013    2.6029 C.ar    1  UNL1        0.0660
      7 C           3.6880    1.1265    2.7934 C.3     1  UNL1        0.0585
      8 N           3.3407    0.4934    1.5639 N.am    1  UNL1       -0.2829
      9 C           3.7819   -0.8292    1.2134 C.3     1  UNL1        0.0050
     10 C           2.5132    1.2199    0.6344 C.2     1  UNL1        0.3029
     11 O           2.0914    2.3704    0.9102 O.2     1  UNL1       -0.2526
     12 N           2.1411    0.6848   -0.6162 N.am    1  UNL1       -0.2877
     13 C           1.3215    1.3456   -1.6063 C.3     1  UNL1        0.1031
     14 C           0.2555    0.4572   -2.0879 C.2     1  UNL1        0.2339
     15 O          -0.4795    0.9018   -3.0342 O.2     1  UNL1       -0.2738
     16 N           0.0342   -0.8250   -1.5555 N.am    1  UNL1       -0.3105
     17 C          -1.0113   -1.6487   -2.0917 C.3     1  UNL1        0.0295
     18 C          -0.4766   -3.0086   -2.5291 C.3     1  UNL1       -0.0091
     19 C           0.1241   -3.6574   -1.3175 C.ar    1  UNL1       -0.0456
     20 C           1.4726   -3.4496   -1.0570 C.ar    1  UNL1       -0.0585
     21 C           2.0084   -4.0310    0.0751 C.ar    1  UNL1       -0.0615
     22 C           1.2167   -4.7896    0.9090 C.ar    1  UNL1       -0.0617
     23 C          -0.1354   -4.9787    0.6169 C.ar    1  UNL1       -0.0615
     24 C          -0.6807   -4.4074   -0.5041 C.ar    1  UNL1       -0.0585
     25 C          -2.2306   -1.8088   -1.2259 C.3     1  UNL1       -0.0063
     26 C          -2.9269   -0.5066   -0.9205 C.3     1  UNL1        0.0756
     27 O          -2.0221    0.2627   -0.2086 O.3     1  UNL1       -0.3899
     28 C          -4.2750   -0.6383   -0.3645 C.3     1  UNL1        0.0561
     29 C          -5.2208   -1.4483   -1.2444 C.3     1  UNL1       -0.0067
     30 C          -5.4667   -0.8984   -2.5610 C.ar    1  UNL1       -0.0455
     31 C          -6.4703   -0.0114   -2.7787 C.ar    1  UNL1       -0.0585
     32 C          -6.7123    0.5176   -4.0232 C.ar    1  UNL1       -0.0615
     33 C          -5.9217    0.1502   -5.1085 C.ar    1  UNL1       -0.0617
     34 C          -4.9157   -0.7378   -4.8952 C.ar    1  UNL1       -0.0615
     35 C          -4.6817   -1.2657   -3.6287 C.ar    1  UNL1       -0.0585
     36 N          -4.8710    0.7002   -0.1752 N.am    1  UNL1       -0.2755
     37 C          -5.5949    1.0092    1.0075 C.2     1  UNL1        0.4009
     38 O          -5.7157    0.1326    1.8747 O.2     1  UNL1       -0.2265
     39 O          -6.1530    2.2409    1.1921 O.3     1  UNL1       -0.4451
     40 C          -6.9044    2.6263    2.3083 C.3     1  UNL1        0.1266
     41 C          -6.2677    2.5684    3.6031 C.ar    1  UNL1        0.0464
     42 C          -6.1573    1.6229    4.5634 C.ar    1  UNL1        0.0412
     43 N          -5.5049    1.9264    5.6490 N.ar    1  UNL1       -0.2553
     44 C          -4.9724    2.9719    5.9135 C.ar    1  UNL1        0.0650
     45 S          -5.3935    3.9210    4.3196 S.2     1  UNL1       -0.0770
     46 C           2.2520    1.7277   -2.7619 C.3     1  UNL1       -0.0197
     47 C           2.8921    0.4668   -3.3297 C.3     1  UNL1       -0.0605
     48 C           1.5343    2.4966   -3.8415 C.3     1  UNL1       -0.0605
     49 C           4.9657    3.1900    2.1739 C.ar    1  UNL1        0.0002
     50 S           6.7798    3.5465    2.1449 S.2     1  UNL1       -0.0800
     51 H           8.8199   -0.4098    1.9079 H       1  UNL1        0.0236
     52 H          10.1476    0.8095    1.4971 H       1  UNL1        0.0236
     53 H           8.4787    0.9861    0.8440 H       1  UNL1        0.0236
     54 H           9.2852    2.4465    2.8227 H       1  UNL1        0.0364
     55 H           9.7882    0.3483    4.3828 H       1  UNL1        0.0236
     56 H           8.4972    1.4720    5.0147 H       1  UNL1        0.0236
     57 H           7.9966    0.0014    4.1624 H       1  UNL1        0.0236
     58 H           2.9529    1.8397    3.1539 H       1  UNL1        0.0530
     59 H           3.8129    0.3560    3.5725 H       1  UNL1        0.0530
     60 H           4.1857   -0.8463    0.1797 H       1  UNL1        0.0429
     61 H           3.0049   -1.6013    1.3814 H       1  UNL1        0.0429
     62 H           4.6446   -1.1183    1.8709 H       1  UNL1        0.0429
     63 H           2.5038   -0.2880   -0.8337 H       1  UNL1        0.1510
     64 H           0.8759    2.2851   -1.2111 H       1  UNL1        0.0598
     65 H           0.6552   -1.1451   -0.7666 H       1  UNL1        0.1490
     66 H          -1.3931   -1.1538   -3.0412 H       1  UNL1        0.0502
     67 H           0.3021   -2.8595   -3.2997 H       1  UNL1        0.0331
     68 H          -1.2945   -3.6140   -2.9480 H       1  UNL1        0.0331
     69 H           2.0738   -2.8530   -1.7200 H       1  UNL1        0.0620
     70 H           3.0508   -3.9089    0.3371 H       1  UNL1        0.0618
     71 H           1.5943   -5.2613    1.8044 H       1  UNL1        0.0618
     72 H          -0.7489   -5.5634    1.2596 H       1  UNL1        0.0618
     73 H          -1.7411   -4.5605   -0.7312 H       1  UNL1        0.0620
     74 H          -2.8421   -2.6130   -1.6011 H       1  UNL1        0.0309
     75 H          -1.8077   -2.2188   -0.2440 H       1  UNL1        0.0309
     76 H          -2.9987    0.0132   -1.9267 H       1  UNL1        0.0612
     77 H          -1.6221   -0.3299    0.4911 H       1  UNL1        0.2099
     78 H          -4.2903   -1.1155    0.6095 H       1  UNL1        0.0528
     79 H          -6.1912   -1.4805   -0.6873 H       1  UNL1        0.0332
     80 H          -4.8398   -2.4905   -1.2142 H       1  UNL1        0.0332
     81 H          -7.0867    0.2846   -1.9547 H       1  UNL1        0.0620
     82 H          -7.5051    1.2252   -4.2221 H       1  UNL1        0.0618
     83 H          -6.1117    0.5724   -6.1048 H       1  UNL1        0.0618
     84 H          -4.2787   -1.0358   -5.7443 H       1  UNL1        0.0618
     85 H          -3.8620   -1.9625   -3.5838 H       1  UNL1        0.0620
     86 H          -4.7559    1.4214   -0.9163 H       1  UNL1        0.1524
     87 H          -7.8246    1.9921    2.3249 H       1  UNL1        0.0755
     88 H          -7.3029    3.6643    2.0859 H       1  UNL1        0.0755
     89 H          -6.6113    0.6151    4.4234 H       1  UNL1        0.0839
     90 H          -4.3951    3.5212    6.6622 H       1  UNL1        0.0907
     91 H           3.0612    2.3309   -2.3155 H       1  UNL1        0.0318
     92 H           3.9108    0.3076   -2.8934 H       1  UNL1        0.0233
     93 H           3.0189    0.5122   -4.4257 H       1  UNL1        0.0233
     94 H           2.2984   -0.4340   -3.0852 H       1  UNL1        0.0233
     95 H           0.6317    2.9456   -3.3984 H       1  UNL1        0.0233
     96 H           2.1708    3.3090   -4.2390 H       1  UNL1        0.0233
     97 H           1.3255    1.8264   -4.7075 H       1  UNL1        0.0233
     98 H           4.2209    3.9238    1.8939 H       1  UNL1        0.0712
@<TRIPOS>BOND
     1     1     2    1
     2     2     3    1
     3     2     4    1
     4     4     5   ar
     5     5     6   ar
     6     6     7    1
     7     7     8    1
     8     8     9    1
     9     8    10   am
    10    10    11    2
    11    10    12   am
    12    12    13    1
    13    13    14    1
    14    14    15    2
    15    14    16   am
    16    16    17    1
    17    17    18    1
    18    18    19    1
    19    19    20   ar
    20    20    21   ar
    21    21    22   ar
    22    22    23   ar
    23    23    24   ar
    24    17    25    1
    25    25    26    1
    26    26    27    1
    27    26    28    1
    28    28    29    1
    29    29    30    1
    30    30    31   ar
    31    31    32   ar
    32    32    33   ar
    33    33    34   ar
    34    34    35   ar
    35    28    36    1
    36    36    37   am
    37    37    38    2
    38    37    39    1
    39    39    40    1
    40    40    41    1
    41    41    42   ar
    42    42    43   ar
    43    43    44   ar
    44    44    45   ar
    45    13    46    1
    46    46    47    1
    47    46    48    1
    48     6    49   ar
    49    49    50   ar
    50    50     4   ar
    51    24    19   ar
    52    35    30   ar
    53    45    41   ar
    54     1    51    1
    55     1    52    1
    56     1    53    1
    57     2    54    1
    58     3    55    1
    59     3    56    1
    60     3    57    1
    61     7    58    1
    62     7    59    1
    63     9    60    1
    64     9    61    1
    65     9    62    1
    66    12    63    1
    67    13    64    1
    68    16    65    1
    69    17    66    1
    70    18    67    1
    71    18    68    1
    72    20    69    1
    73    21    70    1
    74    22    71    1
    75    23    72    1
    76    24    73    1
    77    25    74    1
    78    25    75    1
    79    26    76    1
    80    27    77    1
    81    28    78    1
    82    29    79    1
    83    29    80    1
    84    31    81    1
    85    32    82    1
    86    33    83    1
    87    34    84    1
    88    35    85    1
    89    36    86    1
    90    40    87    1
    91    40    88    1
    92    42    89    1
    93    44    90    1
    94    46    91    1
    95    47    92    1
    96    47    93    1
    97    47    94    1
    98    48    95    1
    99    48    96    1
   100    48    97    1
   101    49    98    1
