@<TRIPOS>MOLECULE
*****
 27 28 0 0 0
SMALL
GASTEIGER

@<TRIPOS>ATOM
      1 O          -1.6634   -0.2545    2.3423 O.2     1  UNL1       -0.2872
      2 C          -1.4398   -0.1899    1.0253 C.2     1  UNL1        0.1875
      3 C          -0.0459   -0.0196    0.7651 C.2     1  UNL1       -0.0137
      4 C           0.6319    0.0437   -0.3447 C.2     1  UNL1       -0.0509
      5 C           2.0686    0.2286   -0.3658 C.ar    1  UNL1       -0.0235
      6 C           2.7130    0.2866   -1.6122 C.ar    1  UNL1       -0.0531
      7 C           4.0689    0.4587   -1.7402 C.ar    1  UNL1       -0.0414
      8 C           4.8528    0.5821   -0.6189 C.ar    1  UNL1        0.0593
      9 CL          6.5752    0.8012   -0.7585 Cl      1  UNL1       -0.0820
     10 C           4.2816    0.5333    0.6171 C.ar    1  UNL1        0.0598
     11 CL          5.2173    0.6834    2.0897 Cl      1  UNL1       -0.0820
     12 C           2.8941    0.3566    0.7140 C.ar    1  UNL1       -0.0348
     13 C          -2.5903   -0.3027    0.1957 C.ar    1  UNL1        0.0397
     14 C          -3.8168   -0.7089    0.7625 C.ar    1  UNL1       -0.0480
     15 C          -4.9333   -0.7760    0.0057 C.ar    1  UNL1       -0.0429
     16 C          -4.9426   -0.4592   -1.3350 C.ar    1  UNL1        0.0276
     17 N          -3.8056   -0.0784   -1.8748 N.ar    1  UNL1       -0.2626
     18 C          -2.6434    0.0023   -1.1295 C.ar    1  UNL1        0.0383
     19 H           0.6272    0.0853    1.6732 H       1  UNL1        0.0656
     20 H           0.1324   -0.0716   -1.2869 H       1  UNL1        0.0625
     21 H           2.1054    0.1906   -2.5043 H       1  UNL1        0.0624
     22 H           4.5443    0.5002   -2.7232 H       1  UNL1        0.0633
     23 H           2.4765    0.3230    1.7235 H       1  UNL1        0.0638
     24 H          -3.8269   -0.9601    1.8038 H       1  UNL1        0.0626
     25 H          -5.8731   -1.0932    0.4651 H       1  UNL1        0.0633
     26 H          -5.8387   -0.5200   -1.9158 H       1  UNL1        0.0829
     27 H          -1.7693    0.3585   -1.6573 H       1  UNL1        0.0837
@<TRIPOS>BOND
     1     1     2    2
     2     2     3    1
     3     3     4    2
     4     4     5    1
     5     5     6   ar
     6     6     7   ar
     7     7     8   ar
     8     8     9    1
     9     8    10   ar
    10    10    11    1
    11    10    12   ar
    12     2    13    1
    13    13    14   ar
    14    14    15   ar
    15    15    16   ar
    16    16    17   ar
    17    17    18   ar
    18    12     5   ar
    19    18    13   ar
    20     3    19    1
    21     4    20    1
    22     6    21    1
    23     7    22    1
    24    12    23    1
    25    14    24    1
    26    15    25    1
    27    16    26    1
    28    18    27    1
