
     RDKit          3D

 56 60  0  0  0  0  0  0  0  0999 V2000
    1.8106   -3.2491    1.6892 C   0  0  0  0  0  0  0  0  0  0  0  0
    1.7554   -2.1427    1.0146 O   0  0  0  0  0  0  0  0  0  0  0  0
    1.7028   -1.0276    0.3344 C   0  0  0  0  0  0  0  0  0  0  0  0
    2.7444   -0.3041   -0.2252 C   0  0  0  0  0  0  0  0  0  0  0  0
    2.4742    0.8913   -0.8608 C   0  0  0  0  0  0  0  0  0  0  0  0
    3.5466    1.5512   -1.4801 C   0  0  0  0  0  0  0  0  0  0  0  0
    4.7292    0.8120   -1.5790 N   0  0  0  0  0  0  0  0  0  0  0  0
    5.7459    0.4377   -0.6905 C   0  0  0  0  0  0  0  0  0  0  0  0
    6.5525   -0.6353   -1.0123 C   0  0  0  0  0  0  0  0  0  0  0  0
    7.6368   -0.9348   -0.1704 C   0  0  0  0  0  0  0  0  0  0  0  0
    7.9241   -0.1933    0.9271 C   0  0  0  0  0  0  0  0  0  0  0  0
    9.3375   -0.4218    1.9134 Cl  0  0  0  0  0  0  0  0  0  0  0  0
    7.0795    0.9182    1.1809 C   0  0  0  0  0  0  0  0  0  0  0  0
    7.4089    1.8570    2.6299 Cl  0  0  0  0  0  0  0  0  0  0  0  0
    6.0411    1.1888    0.4006 C   0  0  0  0  0  0  0  0  0  0  0  0
    3.3330    2.6957   -2.1532 N   0  0  0  0  0  0  0  0  0  0  0  0
    2.0502    3.1870   -2.2073 C   0  0  0  0  0  0  0  0  0  0  0  0
    1.0354    2.5783   -1.6225 N   0  0  0  0  0  0  0  0  0  0  0  0
    1.2400    1.3951   -0.9443 C   0  0  0  0  0  0  0  0  0  0  0  0
    0.1510    0.6987   -0.4227 C   0  0  0  0  0  0  0  0  0  0  0  0
    0.4013   -0.4635    0.1812 C   0  0  0  0  0  0  0  0  0  0  0  0
   -0.5413   -1.4482    0.7103 O   0  0  0  0  0  0  0  0  0  0  0  0
   -1.8406   -1.2112    0.4064 C   0  0  0  0  0  0  0  0  0  0  0  0
   -2.9036   -0.4792    0.9714 C   0  0  2  0  0  0  0  0  0  0  0  0
   -3.6766   -1.0670    2.1285 C   0  0  0  0  0  0  0  0  0  0  0  0
   -5.0183   -0.7012    1.9599 O   0  0  0  0  0  0  0  0  0  0  0  0
   -5.1193    0.2591    1.0078 C   0  0  2  0  0  0  0  0  0  0  0  0
   -6.2712    0.2673    0.0762 C   0  0  1  0  0  0  0  0  0  0  0  0
   -6.4722    1.5944   -0.3579 O   0  0  0  0  0  0  0  0  0  0  0  0
   -7.7439    1.7974   -0.8227 C   0  0  0  0  0  0  0  0  0  0  0  0
   -5.6805   -0.4977   -1.1538 C   0  0  0  0  0  0  0  0  0  0  0  0
   -4.4967   -1.0376   -0.7214 O   0  0  0  0  0  0  0  0  0  0  0  0
   -3.9744   -0.0200    0.0317 C   0  0  2  0  0  0  0  0  0  0  0  0
    2.3861   -3.3843    2.6036 H   0  0  0  0  0  0  0  0  0  0  0  0
    1.8448   -4.1373    1.0016 H   0  0  0  0  0  0  0  0  0  0  0  0
    0.7007   -3.4424    2.1336 H   0  0  0  0  0  0  0  0  0  0  0  0
    3.7168   -0.7392   -0.1890 H   0  0  0  0  0  0  0  0  0  0  0  0
    4.9094    0.4649   -2.6215 H   0  0  0  0  0  0  0  0  0  0  0  0
    6.3280   -1.2737   -1.8126 H   0  0  0  0  0  0  0  0  0  0  0  0
    8.2681   -1.7831   -0.4141 H   0  0  0  0  0  0  0  0  0  0  0  0
    5.3519    2.0491    0.5859 H   0  0  0  0  0  0  0  0  0  0  0  0
    1.8673    4.0741   -2.8034 H   0  0  0  0  0  0  0  0  0  0  0  0
   -0.8169    1.0969   -0.4810 H   0  0  0  0  0  0  0  0  0  0  0  0
   -1.8421   -1.1338   -0.7807 H   0  0  0  0  0  0  0  0  0  0  0  0
   -2.2451   -2.3656    0.4495 H   0  0  0  0  0  0  0  0  0  0  0  0
   -2.5294    0.5352    1.4561 H   0  0  0  0  0  0  0  0  0  0  0  0
   -3.6540   -2.2133    1.8689 H   0  0  0  0  0  0  0  0  0  0  0  0
   -3.2982   -0.9556    3.0972 H   0  0  0  0  0  0  0  0  0  0  0  0
   -4.9600    1.2847    1.4603 H   0  0  0  0  0  0  0  0  0  0  0  0
   -7.1749   -0.2779    0.2945 H   0  0  0  0  0  0  0  0  0  0  0  0
   -8.5732    1.4683   -0.2286 H   0  0  0  0  0  0  0  0  0  0  0  0
   -7.8428    2.9537   -0.8620 H   0  0  0  0  0  0  0  0  0  0  0  0
   -7.7615    1.5128   -1.8934 H   0  0  0  0  0  0  0  0  0  0  0  0
   -5.4931    0.2797   -1.9379 H   0  0  0  0  0  0  0  0  0  0  0  0
   -6.4346   -1.1949   -1.5281 H   0  0  0  0  0  0  0  0  0  0  0  0
   -3.7096    0.8868   -0.5380 H   0  0  0  0  0  0  0  0  0  0  0  0
  1  2  1  0
  2  3  1  0
  3  4  2  0
  4  5  1  0
  5  6  2  0
  6  7  1  0
  7  8  1  0
  8  9  2  0
  9 10  1  0
 10 11  2  0
 11 12  1  0
 11 13  1  0
 13 14  1  0
 13 15  2  0
  6 16  1  0
 16 17  2  0
 17 18  1  0
 18 19  2  0
 19 20  1  0
 20 21  2  0
 21 22  1  0
 22 23  1  0
 23 24  1  0
 24 25  1  0
 25 26  1  0
 26 27  1  0
 27 28  1  0
 28 29  1  0
 29 30  1  0
 28 31  1  0
 31 32  1  0
 32 33  1  0
 21  3  1  0
 33 24  1  0
 19  5  1  0
 33 27  1  0
 15  8  1  0
  1 34  1  0
  1 35  1  0
  1 36  1  0
  4 37  1  0
  7 38  1  0
  9 39  1  0
 10 40  1  0
 15 41  1  0
 17 42  1  0
 20 43  1  0
 23 44  1  0
 23 45  1  0
 24 46  1  1
 25 47  1  0
 25 48  1  0
 27 49  1  1
 28 50  1  1
 30 51  1  0
 30 52  1  0
 30 53  1  0
 31 54  1  0
 31 55  1  0
 33 56  1  6
M  END
$$$$
