@<TRIPOS>MOLECULE
*****
 56 60 0 0 0
SMALL
GASTEIGER

@<TRIPOS>ATOM
      1 C           1.8106   -3.2491    1.6892 C.3     1  UNL1        0.0790
      2 O           1.7554   -2.1427    1.0146 O.3     1  UNL1       -0.4914
      3 C           1.7028   -1.0276    0.3344 C.ar    1  UNL1        0.1623
      4 C           2.7444   -0.3041   -0.2252 C.ar    1  UNL1       -0.0038
      5 C           2.4742    0.8913   -0.8608 C.ar    1  UNL1        0.0441
      6 C           3.5466    1.5512   -1.4801 C.ar    1  UNL1        0.1340
      7 N           4.7292    0.8120   -1.5790 N.pl3   1  UNL1       -0.2988
      8 C           5.7459    0.4377   -0.6905 C.ar    1  UNL1        0.0339
      9 C           6.5525   -0.6353   -1.0123 C.ar    1  UNL1       -0.0390
     10 C           7.6368   -0.9348   -0.1704 C.ar    1  UNL1       -0.0402
     11 C           7.9241   -0.1933    0.9271 C.ar    1  UNL1        0.0594
     12 CL          9.3375   -0.4218    1.9134 Cl      1  UNL1       -0.0820
     13 C           7.0795    0.9182    1.1809 C.ar    1  UNL1        0.0610
     14 CL          7.4089    1.8570    2.6299 Cl      1  UNL1       -0.0820
     15 C           6.0411    1.1888    0.4006 C.ar    1  UNL1       -0.0207
     16 N           3.3330    2.6957   -2.1532 N.ar    1  UNL1       -0.2200
     17 C           2.0502    3.1870   -2.2073 C.ar    1  UNL1        0.1187
     18 N           1.0354    2.5783   -1.6225 N.ar    1  UNL1       -0.2352
     19 C           1.2400    1.3951   -0.9443 C.ar    1  UNL1        0.0797
     20 C           0.1510    0.6987   -0.4227 C.ar    1  UNL1        0.0098
     21 C           0.4013   -0.4635    0.1812 C.ar    1  UNL1        0.1640
     22 O          -0.5413   -1.4482    0.7103 O.3     1  UNL1       -0.4878
     23 C          -1.8406   -1.2112    0.4064 C.3     1  UNL1        0.0971
     24 C          -2.9036   -0.4792    0.9714 C.3     1  UNL1        0.0453
     25 C          -3.6766   -1.0670    2.1285 C.3     1  UNL1        0.0566
     26 O          -5.0183   -0.7012    1.9599 O.3     1  UNL1       -0.3709
     27 C          -5.1193    0.2591    1.0078 C.3     1  UNL1        0.1133
     28 C          -6.2712    0.2673    0.0762 C.3     1  UNL1        0.1100
     29 O          -6.4722    1.5944   -0.3579 O.3     1  UNL1       -0.3748
     30 C          -7.7439    1.7974   -0.8227 C.3     1  UNL1        0.0370
     31 C          -5.6805   -0.4977   -1.1538 C.3     1  UNL1        0.0768
     32 O          -4.4967   -1.0376   -0.7214 O.3     1  UNL1       -0.3708
     33 C          -3.9744   -0.0200    0.0317 C.3     1  UNL1        0.0954
     34 H           2.3861   -3.3843    2.6036 H       1  UNL1        0.0660
     35 H           1.8448   -4.1373    1.0016 H       1  UNL1        0.0660
     36 H           0.7007   -3.4424    2.1336 H       1  UNL1        0.0660
     37 H           3.7168   -0.7392   -0.1890 H       1  UNL1        0.0663
     38 H           4.9094    0.4649   -2.6215 H       1  UNL1        0.1536
     39 H           6.3280   -1.2737   -1.8126 H       1  UNL1        0.0636
     40 H           8.2681   -1.7831   -0.4141 H       1  UNL1        0.0633
     41 H           5.3519    2.0491    0.5859 H       1  UNL1        0.0651
     42 H           1.8673    4.0741   -2.8034 H       1  UNL1        0.1048
     43 H          -0.8169    1.0969   -0.4810 H       1  UNL1        0.0677
     44 H          -1.8421   -1.1338   -0.7807 H       1  UNL1        0.0701
     45 H          -2.2451   -2.3656    0.4495 H       1  UNL1        0.0701
     46 H          -2.5294    0.5352    1.4561 H       1  UNL1        0.0382
     47 H          -3.6540   -2.2133    1.8689 H       1  UNL1        0.0565
     48 H          -3.2982   -0.9556    3.0972 H       1  UNL1        0.0565
     49 H          -4.9600    1.2847    1.4603 H       1  UNL1        0.0649
     50 H          -7.1749   -0.2779    0.2945 H       1  UNL1        0.0646
     51 H          -8.5732    1.4683   -0.2286 H       1  UNL1        0.0524
     52 H          -7.8428    2.9537   -0.8620 H       1  UNL1        0.0524
     53 H          -7.7615    1.5128   -1.8934 H       1  UNL1        0.0524
     54 H          -5.4931    0.2797   -1.9379 H       1  UNL1        0.0587
     55 H          -6.4346   -1.1949   -1.5281 H       1  UNL1        0.0587
     56 H          -3.7096    0.8868   -0.5380 H       1  UNL1        0.0627
@<TRIPOS>BOND
     1     1     2    1
     2     2     3    1
     3     3     4   ar
     4     4     5   ar
     5     5     6   ar
     6     6     7    1
     7     7     8    1
     8     8     9   ar
     9     9    10   ar
    10    10    11   ar
    11    11    12    1
    12    11    13   ar
    13    13    14    1
    14    13    15   ar
    15     6    16   ar
    16    16    17   ar
    17    17    18   ar
    18    18    19   ar
    19    19    20   ar
    20    20    21   ar
    21    21    22    1
    22    22    23    1
    23    23    24    1
    24    24    25    1
    25    25    26    1
    26    26    27    1
    27    27    28    1
    28    28    29    1
    29    29    30    1
    30    28    31    1
    31    31    32    1
    32    32    33    1
    33    21     3   ar
    34    33    24    1
    35    19     5   ar
    36    33    27    1
    37    15     8   ar
    38     1    34    1
    39     1    35    1
    40     1    36    1
    41     4    37    1
    42     7    38    1
    43     9    39    1
    44    10    40    1
    45    15    41    1
    46    17    42    1
    47    20    43    1
    48    23    44    1
    49    23    45    1
    50    24    46    1
    51    25    47    1
    52    25    48    1
    53    27    49    1
    54    28    50    1
    55    30    51    1
    56    30    52    1
    57    30    53    1
    58    31    54    1
    59    31    55    1
    60    33    56    1
