
     RDKit          3D

 45 46  0  0  0  0  0  0  0  0999 V2000
    2.7161   -0.9185   -0.1488 C   0  0  1  0  0  0  0  0  0  0  0  0
    2.3449   -2.3712   -0.2953 C   0  0  0  0  0  0  0  0  0  0  0  0
    3.6459   -0.5121   -1.0978 O   0  0  0  0  0  0  0  0  0  0  0  0
    4.2205    0.6640   -0.5675 C   0  0  2  0  0  0  0  0  0  0  0  0
    4.7372    0.4599    0.7094 O   0  0  0  0  0  0  0  0  0  0  0  0
    3.1595    1.7123   -0.5667 C   0  0  2  0  0  0  0  0  0  0  0  0
    3.7342    2.8978   -0.1200 O   0  0  0  0  0  0  0  0  0  0  0  0
    1.9451    1.3298    0.2565 C   0  0  1  0  0  0  0  0  0  0  0  0
    1.0100    2.3485   -0.0065 O   0  0  0  0  0  0  0  0  0  0  0  0
    1.4820   -0.0149   -0.1744 C   0  0  2  0  0  0  0  0  0  0  0  0
    0.4879   -0.6465    0.5784 N   0  0  0  0  0  0  0  0  0  0  0  0
   -0.7676   -0.0722    0.7485 C   0  0  1  0  0  0  0  0  0  0  0  0
   -1.4374    0.1247   -0.5686 C   0  0  0  0  0  0  0  0  0  0  0  0
   -2.7441   -0.0197   -0.5494 C   0  0  0  0  0  0  0  0  0  0  0  0
   -3.5487    0.1490   -1.7997 C   0  0  0  0  0  0  0  0  0  0  0  0
   -4.4824    1.1633   -1.6905 O   0  0  0  0  0  0  0  0  0  0  0  0
   -3.7338   -0.3438    0.5161 C   0  0  1  0  0  0  0  0  0  0  0  0
   -4.4587   -1.4965    0.2262 O   0  0  0  0  0  0  0  0  0  0  0  0
   -3.0016   -0.4147    1.8231 C   0  0  2  0  0  0  0  0  0  0  0  0
   -2.9022    0.8826    2.3284 O   0  0  0  0  0  0  0  0  0  0  0  0
   -1.6398   -1.0148    1.5590 C   0  0  1  0  0  0  0  0  0  0  0  0
   -1.7947   -2.1873    0.8349 O   0  0  0  0  0  0  0  0  0  0  0  0
    3.1780   -0.7846    0.8513 H   0  0  0  0  0  0  0  0  0  0  0  0
    1.5092   -2.5229   -0.9968 H   0  0  0  0  0  0  0  0  0  0  0  0
    3.2234   -2.8661   -0.7720 H   0  0  0  0  0  0  0  0  0  0  0  0
    2.2075   -2.8791    0.6833 H   0  0  0  0  0  0  0  0  0  0  0  0
    4.9981    0.9721   -1.2696 H   0  0  0  0  0  0  0  0  0  0  0  0
    5.4980   -0.1835    0.6305 H   0  0  0  0  0  0  0  0  0  0  0  0
    2.8519    1.8729   -1.6374 H   0  0  0  0  0  0  0  0  0  0  0  0
    3.1240    3.6652   -0.1396 H   0  0  0  0  0  0  0  0  0  0  0  0
    2.2640    1.3358    1.3187 H   0  0  0  0  0  0  0  0  0  0  0  0
    1.2036    3.0559    0.6743 H   0  0  0  0  0  0  0  0  0  0  0  0
    1.1743    0.0376   -1.2451 H   0  0  0  0  0  0  0  0  0  0  0  0
    0.5248   -1.6686    0.6075 H   0  0  0  0  0  0  0  0  0  0  0  0
   -0.8246    0.8956    1.2665 H   0  0  0  0  0  0  0  0  0  0  0  0
   -0.9895    0.3685   -1.5261 H   0  0  0  0  0  0  0  0  0  0  0  0
   -2.8515    0.3282   -2.6517 H   0  0  0  0  0  0  0  0  0  0  0  0
   -4.1118   -0.7720   -2.0748 H   0  0  0  0  0  0  0  0  0  0  0  0
   -4.0858    2.0025   -2.0317 H   0  0  0  0  0  0  0  0  0  0  0  0
   -4.4916    0.4699    0.6233 H   0  0  0  0  0  0  0  0  0  0  0  0
   -3.9177   -2.2011   -0.2005 H   0  0  0  0  0  0  0  0  0  0  0  0
   -3.4990   -1.0498    2.5843 H   0  0  0  0  0  0  0  0  0  0  0  0
   -3.4085    1.5289    1.7828 H   0  0  0  0  0  0  0  0  0  0  0  0
   -1.1446   -1.1959    2.5417 H   0  0  0  0  0  0  0  0  0  0  0  0
   -1.4046   -2.1291   -0.0728 H   0  0  0  0  0  0  0  0  0  0  0  0
  1  2  1  0
  1  3  1  0
  3  4  1  0
  4  5  1  0
  4  6  1  0
  6  7  1  0
  6  8  1  0
  8  9  1  0
  8 10  1  0
 10 11  1  0
 11 12  1  0
 12 13  1  0
 13 14  2  0
 14 15  1  0
 15 16  1  0
 14 17  1  0
 17 18  1  0
 17 19  1  0
 19 20  1  0
 19 21  1  0
 21 22  1  0
 10  1  1  0
 21 12  1  0
  1 23  1  1
  2 24  1  0
  2 25  1  0
  2 26  1  0
  4 27  1  6
  5 28  1  0
  6 29  1  6
  7 30  1  0
  8 31  1  1
  9 32  1  0
 10 33  1  6
 11 34  1  0
 12 35  1  1
 13 36  1  0
 15 37  1  0
 15 38  1  0
 16 39  1  0
 17 40  1  1
 18 41  1  0
 19 42  1  1
 20 43  1  0
 21 44  1  1
 22 45  1  0
M  END
$$$$
