@<TRIPOS>MOLECULE
*****
 45 46 0 0 0
SMALL
GASTEIGER

@<TRIPOS>ATOM
      1 C           2.7161   -0.9185   -0.1488 C.3     1  UNL1        0.0768
      2 C           2.3449   -2.3712   -0.2953 C.3     1  UNL1       -0.0370
      3 O           3.6459   -0.5121   -1.0978 O.3     1  UNL1       -0.3443
      4 C           4.2205    0.6640   -0.5675 C.3     1  UNL1        0.1852
      5 O           4.7372    0.4599    0.7094 O.3     1  UNL1       -0.3649
      6 C           3.1595    1.7123   -0.5667 C.3     1  UNL1        0.1330
      7 O           3.7342    2.8978   -0.1200 O.3     1  UNL1       -0.3841
      8 C           1.9451    1.3298    0.2565 C.3     1  UNL1        0.1035
      9 O           1.0100    2.3485   -0.0065 O.3     1  UNL1       -0.3874
     10 C           1.4820   -0.0149   -0.1744 C.3     1  UNL1        0.0631
     11 N           0.4879   -0.6465    0.5784 N.3     1  UNL1       -0.3002
     12 C          -0.7676   -0.0722    0.7485 C.3     1  UNL1        0.0555
     13 C          -1.4374    0.1247   -0.5686 C.2     1  UNL1       -0.0608
     14 C          -2.7441   -0.0197   -0.5494 C.2     1  UNL1       -0.0162
     15 C          -3.5487    0.1490   -1.7997 C.3     1  UNL1        0.0678
     16 O          -4.4824    1.1633   -1.6905 O.3     1  UNL1       -0.3906
     17 C          -3.7338   -0.3438    0.5161 C.3     1  UNL1        0.1067
     18 O          -4.4587   -1.4965    0.2262 O.3     1  UNL1       -0.3848
     19 C          -3.0016   -0.4147    1.8231 C.3     1  UNL1        0.1124
     20 O          -2.9022    0.8826    2.3284 O.3     1  UNL1       -0.3863
     21 C          -1.6398   -1.0148    1.5590 C.3     1  UNL1        0.1026
     22 O          -1.7947   -2.1873    0.8349 O.3     1  UNL1       -0.3873
     23 H           3.1780   -0.7846    0.8513 H       1  UNL1        0.0610
     24 H           1.5092   -2.5229   -0.9968 H       1  UNL1        0.0255
     25 H           3.2234   -2.8661   -0.7720 H       1  UNL1        0.0255
     26 H           2.2075   -2.8791    0.6833 H       1  UNL1        0.0255
     27 H           4.9981    0.9721   -1.2696 H       1  UNL1        0.0935
     28 H           5.4980   -0.1835    0.6305 H       1  UNL1        0.2126
     29 H           2.8519    1.8729   -1.6374 H       1  UNL1        0.0671
     30 H           3.1240    3.6652   -0.1396 H       1  UNL1        0.2101
     31 H           2.2640    1.3358    1.3187 H       1  UNL1        0.0637
     32 H           1.2036    3.0559    0.6743 H       1  UNL1        0.2100
     33 H           1.1743    0.0376   -1.2451 H       1  UNL1        0.0512
     34 H           0.5248   -1.6686    0.6075 H       1  UNL1        0.1230
     35 H          -0.8246    0.8956    1.2665 H       1  UNL1        0.0531
     36 H          -0.9895    0.3685   -1.5261 H       1  UNL1        0.0589
     37 H          -2.8515    0.3282   -2.6517 H       1  UNL1        0.0605
     38 H          -4.1118   -0.7720   -2.0748 H       1  UNL1        0.0605
     39 H          -4.0858    2.0025   -2.0317 H       1  UNL1        0.2098
     40 H          -4.4916    0.4699    0.6233 H       1  UNL1        0.0668
     41 H          -3.9177   -2.2011   -0.2005 H       1  UNL1        0.2103
     42 H          -3.4990   -1.0498    2.5843 H       1  UNL1        0.0649
     43 H          -3.4085    1.5289    1.7828 H       1  UNL1        0.2100
     44 H          -1.1446   -1.1959    2.5417 H       1  UNL1        0.0639
     45 H          -1.4046   -2.1291   -0.0728 H       1  UNL1        0.2100
@<TRIPOS>BOND
     1     1     2    1
     2     1     3    1
     3     3     4    1
     4     4     5    1
     5     4     6    1
     6     6     7    1
     7     6     8    1
     8     8     9    1
     9     8    10    1
    10    10    11    1
    11    11    12    1
    12    12    13    1
    13    13    14    2
    14    14    15    1
    15    15    16    1
    16    14    17    1
    17    17    18    1
    18    17    19    1
    19    19    20    1
    20    19    21    1
    21    21    22    1
    22    10     1    1
    23    21    12    1
    24     1    23    1
    25     2    24    1
    26     2    25    1
    27     2    26    1
    28     4    27    1
    29     5    28    1
    30     6    29    1
    31     7    30    1
    32     8    31    1
    33     9    32    1
    34    10    33    1
    35    11    34    1
    36    12    35    1
    37    13    36    1
    38    15    37    1
    39    15    38    1
    40    16    39    1
    41    17    40    1
    42    18    41    1
    43    19    42    1
    44    20    43    1
    45    21    44    1
    46    22    45    1
