@<TRIPOS>MOLECULE
*****
 33 33 0 0 0
SMALL
GASTEIGER

@<TRIPOS>ATOM
      1 C           0.9032   -1.9686   -0.8290 C.3     1  UNL1        0.1117
      2 O           1.5081   -3.2217   -0.9017 O.3     1  UNL1       -0.3865
      3 C          -0.4968   -1.9740   -1.3590 C.3     1  UNL1        0.1117
      4 O          -0.6732   -1.0102   -2.3608 O.3     1  UNL1       -0.3865
      5 C          -1.3195   -1.5926   -0.1778 C.3     1  UNL1        0.1113
      6 C          -2.1008   -0.3002   -0.4336 C.3     1  UNL1        0.0878
      7 O          -2.9057   -0.0569    0.6691 O.3     1  UNL1       -0.2841
      8 P          -3.8175    1.3520    0.4906 P.3     1  UNL1        0.4724
      9 O          -3.5931    1.9446   -1.0719 O.3     1  UNL1       -0.3026
     10 O          -3.3878    2.5355    1.6120 O.3     1  UNL1       -0.3026
     11 O          -5.2699    1.0010    0.7157 O.2     1  UNL1       -0.2275
     12 O          -0.5345   -1.4920    0.9361 O.3     1  UNL1       -0.3635
     13 C           0.7986   -1.4469    0.5663 C.3     1  UNL1        0.1113
     14 C           1.3814   -0.0466    0.6788 C.3     1  UNL1        0.0878
     15 O           2.7137    0.0022    0.3098 O.3     1  UNL1       -0.2841
     16 P           3.3714    1.5475    0.4280 P.3     1  UNL1        0.4724
     17 O           5.0503    1.3969    0.2001 O.3     1  UNL1       -0.3026
     18 O           3.0026    2.3071    1.8944 O.3     1  UNL1       -0.3026
     19 O           2.8919    2.4808   -0.6587 O.2     1  UNL1       -0.2275
     20 H           1.4885   -1.2370   -1.4271 H       1  UNL1        0.0647
     21 H           2.4478   -3.1162   -1.1682 H       1  UNL1        0.2100
     22 H          -0.7290   -2.9712   -1.7687 H       1  UNL1        0.0647
     23 H          -0.5158   -1.4527   -3.2482 H       1  UNL1        0.2100
     24 H          -2.0473   -2.4210   -0.0110 H       1  UNL1        0.0646
     25 H          -1.4162    0.5111   -0.6964 H       1  UNL1        0.0592
     26 H          -2.7719   -0.4623   -1.3065 H       1  UNL1        0.0592
     27 H          -3.4428    2.9151   -1.1069 H       1  UNL1        0.2220
     28 H          -2.5502    2.3637    2.0820 H       1  UNL1        0.2220
     29 H           1.3956   -2.1019    1.2382 H       1  UNL1        0.0646
     30 H           0.8423    0.6979    0.0946 H       1  UNL1        0.0592
     31 H           1.3363    0.2485    1.7623 H       1  UNL1        0.0592
     32 H           5.4786    2.2904    0.1012 H       1  UNL1        0.2220
     33 H           2.9619    3.2777    1.8145 H       1  UNL1        0.2220
@<TRIPOS>BOND
     1     1     2    1
     2     1     3    1
     3     3     4    1
     4     3     5    1
     5     5     6    1
     6     6     7    1
     7     7     8    1
     8     8     9    1
     9     8    10    1
    10     8    11    2
    11     5    12    1
    12    12    13    1
    13    13    14    1
    14    14    15    1
    15    15    16    1
    16    16    17    1
    17    16    18    1
    18    16    19    2
    19    13     1    1
    20     1    20    1
    21     2    21    1
    22     3    22    1
    23     4    23    1
    24     5    24    1
    25     6    25    1
    26     6    26    1
    27     9    27    1
    28    10    28    1
    29    13    29    1
    30    14    30    1
    31    14    31    1
    32    17    32    1
    33    18    33    1
