@<TRIPOS>MOLECULE
*****
 73 77 0 0 0
SMALL
GASTEIGER

@<TRIPOS>ATOM
      1 C           9.4841    1.3644    3.6521 C.3     1  UNL1        0.0805
      2 O           8.4151    1.1205    2.7619 O.3     1  UNL1       -0.4774
      3 C           8.6621    0.6503    1.4682 C.ar    1  UNL1        0.2552
      4 N           9.8490    0.3746    0.9051 N.ar    1  UNL1       -0.1317
      5 N           9.7079   -0.0514   -0.3358 N.ar    1  UNL1       -0.2692
      6 C          10.7080   -0.4577   -1.3035 C.3     1  UNL1        0.0304
      7 C           8.3643   -0.0536   -0.5937 C.ar    1  UNL1        0.0503
      8 C           7.6836    0.3773    0.5068 C.ar    1  UNL1        0.1152
      9 N           6.3032    0.5501    0.7478 N.pl3   1  UNL1       -0.2782
     10 C           5.3526    0.2886   -0.2638 C.ar    1  UNL1        0.2202
     11 N           5.6506   -0.1451   -1.4966 N.ar    1  UNL1       -0.2224
     12 C           4.7435   -0.3831   -2.4668 C.ar    1  UNL1        0.0361
     13 C           3.4054   -0.1476   -2.1219 C.ar    1  UNL1       -0.0062
     14 C           2.3408   -0.3742   -3.1040 C.3     1  UNL1       -0.0362
     15 C           3.0718    0.2980   -0.8632 C.ar    1  UNL1        0.0809
     16 C           1.6831    0.5338   -0.5265 C.ar    1  UNL1        0.0258
     17 C           0.7710    1.3567   -1.1915 C.ar    1  UNL1        0.0120
     18 N          -0.4180    1.3041   -0.5677 N.ar    1  UNL1       -0.3586
     19 C          -0.3420    0.4772    0.4918 C.ar    1  UNL1        0.0686
     20 C          -1.2447    0.0597    1.4576 C.ar    1  UNL1        0.0576
     21 N          -2.5565    0.5913    1.3672 N.am    1  UNL1       -0.2825
     22 C          -3.5535   -0.0345    0.6080 C.2     1  UNL1        0.2342
     23 O          -3.2805   -1.0916   -0.0060 O.2     1  UNL1       -0.2738
     24 C          -4.9515    0.5192    0.4996 C.3     1  UNL1        0.0850
     25 C          -4.7783    1.9452    0.0411 C.3     1  UNL1       -0.0409
     26 N          -5.6870   -0.3230   -0.3800 N.3     1  UNL1       -0.2866
     27 C          -5.7410   -1.6442    0.2207 C.3     1  UNL1        0.0127
     28 C          -7.1182   -2.1885    0.3898 C.3     1  UNL1        0.0115
     29 N          -8.0878   -1.3141    0.9550 N.3     1  UNL1       -0.3027
     30 C          -9.3890   -1.6820    0.3699 C.3     1  UNL1       -0.0127
     31 C          -7.8535    0.0522    0.5497 C.3     1  UNL1        0.0140
     32 C          -7.0211    0.0526   -0.6935 C.3     1  UNL1        0.0211
     33 C          -7.1832    1.2706   -1.5512 C.3     1  UNL1       -0.0483
     34 C          -0.8196   -0.8221    2.4211 C.ar    1  UNL1       -0.0384
     35 C           0.4704   -1.3095    2.4664 C.ar    1  UNL1       -0.0593
     36 C           1.3723   -0.8885    1.4960 C.ar    1  UNL1       -0.0518
     37 C           0.9437   -0.0032    0.5295 C.ar    1  UNL1        0.0107
     38 N           4.0322    0.5070    0.0355 N.ar    1  UNL1       -0.2139
     39 H           9.4811    2.4274    4.0211 H       1  UNL1        0.0660
     40 H           9.4159    0.6618    4.5156 H       1  UNL1        0.0660
     41 H          10.4340    1.1938    3.1093 H       1  UNL1        0.0660
     42 H          10.3531   -1.2661   -1.9749 H       1  UNL1        0.0473
     43 H          11.5869   -0.8183   -0.7152 H       1  UNL1        0.0473
     44 H          10.9973    0.3934   -1.9680 H       1  UNL1        0.0473
     45 H           7.9351   -0.3603   -1.5473 H       1  UNL1        0.0846
     46 H           5.9447    0.8769    1.6845 H       1  UNL1        0.1552
     47 H           5.0181   -0.7337   -3.4524 H       1  UNL1        0.0834
     48 H           2.5788   -1.2766   -3.7285 H       1  UNL1        0.0279
     49 H           1.3625   -0.5415   -2.6454 H       1  UNL1        0.0279
     50 H           2.2881    0.4965   -3.8055 H       1  UNL1        0.0279
     51 H           1.0242    1.9220   -2.0591 H       1  UNL1        0.0814
     52 H          -1.3031    1.8233   -0.8427 H       1  UNL1        0.1654
     53 H          -2.7529    1.4701    1.8890 H       1  UNL1        0.1549
     54 H          -5.3356    0.5002    1.5500 H       1  UNL1        0.0556
     55 H          -4.7878    2.0299   -1.0507 H       1  UNL1        0.0249
     56 H          -3.7536    2.3295    0.3397 H       1  UNL1        0.0249
     57 H          -5.4687    2.6401    0.5720 H       1  UNL1        0.0249
     58 H          -5.1843   -2.3503   -0.4319 H       1  UNL1        0.0439
     59 H          -5.2460   -1.6575    1.2296 H       1  UNL1        0.0439
     60 H          -7.0241   -3.0637    1.0859 H       1  UNL1        0.0439
     61 H          -7.4449   -2.6535   -0.5854 H       1  UNL1        0.0439
     62 H          -9.8535   -2.5292    0.8959 H       1  UNL1        0.0391
     63 H          -9.2800   -1.9739   -0.6970 H       1  UNL1        0.0391
     64 H         -10.0927   -0.8232    0.3901 H       1  UNL1        0.0391
     65 H          -7.3508    0.5585    1.4137 H       1  UNL1        0.0442
     66 H          -8.8322    0.5807    0.3444 H       1  UNL1        0.0442
     67 H          -7.4326   -0.7992   -1.3296 H       1  UNL1        0.0473
     68 H          -7.1745    2.2190   -1.0195 H       1  UNL1        0.0245
     69 H          -8.2293    1.1956   -1.9864 H       1  UNL1        0.0245
     70 H          -6.5253    1.1813   -2.4245 H       1  UNL1        0.0245
     71 H          -1.5158   -1.1493    3.1722 H       1  UNL1        0.0637
     72 H           0.8020   -2.0022    3.2247 H       1  UNL1        0.0618
     73 H           2.3767   -1.2809    1.5490 H       1  UNL1        0.0624
@<TRIPOS>BOND
     1     1     2    1
     2     2     3    1
     3     3     4   ar
     4     4     5   ar
     5     5     6    1
     6     5     7   ar
     7     7     8   ar
     8     8     9    1
     9     9    10    1
    10    10    11   ar
    11    11    12   ar
    12    12    13   ar
    13    13    14    1
    14    13    15   ar
    15    15    16    1
    16    16    17   ar
    17    17    18   ar
    18    18    19   ar
    19    19    20   ar
    20    20    21    1
    21    21    22   am
    22    22    23    2
    23    22    24    1
    24    24    25    1
    25    24    26    1
    26    26    27    1
    27    27    28    1
    28    28    29    1
    29    29    30    1
    30    29    31    1
    31    31    32    1
    32    32    33    1
    33    20    34   ar
    34    34    35   ar
    35    35    36   ar
    36    36    37   ar
    37    15    38   ar
    38     8     3   ar
    39    38    10   ar
    40    37    16   ar
    41    37    19   ar
    42    32    26    1
    43     1    39    1
    44     1    40    1
    45     1    41    1
    46     6    42    1
    47     6    43    1
    48     6    44    1
    49     7    45    1
    50     9    46    1
    51    12    47    1
    52    14    48    1
    53    14    49    1
    54    14    50    1
    55    17    51    1
    56    18    52    1
    57    21    53    1
    58    24    54    1
    59    25    55    1
    60    25    56    1
    61    25    57    1
    62    27    58    1
    63    27    59    1
    64    28    60    1
    65    28    61    1
    66    30    62    1
    67    30    63    1
    68    30    64    1
    69    31    65    1
    70    31    66    1
    71    32    67    1
    72    33    68    1
    73    33    69    1
    74    33    70    1
    75    34    71    1
    76    35    72    1
    77    36    73    1
