@<TRIPOS>MOLECULE
*****
 70 75 0 0 0
SMALL
GASTEIGER

@<TRIPOS>ATOM
      1 C           8.4919   -0.2679    2.9737 C.3     1  UNL1       -0.0127
      2 N           7.2683   -0.2298    2.1795 N.3     1  UNL1       -0.3029
      3 C           7.0700   -1.4712    1.4631 C.3     1  UNL1        0.0114
      4 C           5.9079   -1.3397    0.5330 C.3     1  UNL1        0.0120
      5 N           5.2574   -0.0686    0.5408 N.3     1  UNL1       -0.2970
      6 C           4.3301   -0.0282   -0.5853 C.3     1  UNL1        0.0106
      7 C           3.3208   -1.1311   -0.4339 C.3     1  UNL1       -0.0355
      8 C           2.1694   -1.0139   -1.3895 C.3     1  UNL1       -0.0306
      9 C           1.6085    0.3564   -1.5253 C.3     1  UNL1        0.0360
     10 N           0.1699    0.4129   -1.5535 N.ar    1  UNL1       -0.3281
     11 C          -0.7337   -0.2925   -0.8642 C.ar    1  UNL1        0.0152
     12 C          -2.0208    0.0771   -1.1936 C.ar    1  UNL1        0.0122
     13 C          -3.2785   -0.4144   -0.6584 C.ar    1  UNL1       -0.0155
     14 C          -3.5977   -1.7749   -0.7222 C.ar    1  UNL1       -0.0505
     15 C          -4.7759   -2.2587   -0.1974 C.ar    1  UNL1       -0.0188
     16 C          -5.6906   -1.4292    0.4119 C.ar    1  UNL1        0.1285
     17 O          -6.8874   -1.9133    0.9457 O.3     1  UNL1       -0.4560
     18 C          -7.7682   -1.0298    1.5459 C.ar    1  UNL1        0.1284
     19 C          -8.7407   -0.4207    0.7877 C.ar    1  UNL1       -0.0193
     20 C          -9.6338    0.4619    1.3453 C.ar    1  UNL1       -0.0583
     21 C          -9.5633    0.7528    2.7001 C.ar    1  UNL1       -0.0615
     22 C          -8.6036    0.1566    3.4673 C.ar    1  UNL1       -0.0583
     23 C          -7.6998   -0.7401    2.8897 C.ar    1  UNL1       -0.0193
     24 C          -5.3920   -0.0882    0.4835 C.ar    1  UNL1       -0.0188
     25 C          -4.1979    0.4038   -0.0477 C.ar    1  UNL1       -0.0505
     26 C          -1.9128    1.0666   -2.1414 C.ar    1  UNL1        0.0660
     27 C          -2.8430    1.8123   -2.8485 C.ar    1  UNL1        0.1292
     28 N          -4.2355    1.6007   -2.6508 N.pl3   1  UNL1       -0.3425
     29 N          -2.3756    2.7160   -3.7272 N.ar    1  UNL1       -0.2204
     30 C          -1.0666    2.9180   -3.9410 C.ar    1  UNL1        0.1204
     31 N          -0.1848    2.1845   -3.2468 N.ar    1  UNL1       -0.2176
     32 C          -0.5461    1.2512   -2.3413 C.ar    1  UNL1        0.1466
     33 C           2.2021    1.2117   -0.4128 C.3     1  UNL1       -0.0306
     34 C           3.6930    1.3139   -0.7398 C.3     1  UNL1       -0.0355
     35 C           6.1445    1.0691    0.5260 C.3     1  UNL1        0.0120
     36 C           7.4914    0.7937    1.1592 C.3     1  UNL1        0.0114
     37 H           9.3991   -0.2853    2.3392 H       1  UNL1        0.0391
     38 H           8.4547   -1.0600    3.7264 H       1  UNL1        0.0391
     39 H           8.5303    0.7105    3.5212 H       1  UNL1        0.0391
     40 H           7.0353   -2.3567    2.1185 H       1  UNL1        0.0439
     41 H           7.9957   -1.6060    0.8302 H       1  UNL1        0.0439
     42 H           6.1916   -1.6153   -0.5235 H       1  UNL1        0.0439
     43 H           5.1501   -2.0994    0.8595 H       1  UNL1        0.0439
     44 H           4.9579   -0.3013   -1.4839 H       1  UNL1        0.0462
     45 H           2.9685   -1.2631    0.6122 H       1  UNL1        0.0281
     46 H           3.8429   -2.0972   -0.7014 H       1  UNL1        0.0281
     47 H           2.4921   -1.4178   -2.3937 H       1  UNL1        0.0286
     48 H           1.3881   -1.7442   -1.0434 H       1  UNL1        0.0286
     49 H           2.0206    0.7929   -2.4772 H       1  UNL1        0.0528
     50 H          -0.5029   -1.0514   -0.1444 H       1  UNL1        0.0816
     51 H          -2.8713   -2.4077   -1.2017 H       1  UNL1        0.0625
     52 H          -5.0125   -3.3106   -0.2520 H       1  UNL1        0.0654
     53 H          -8.7790   -0.6652   -0.2834 H       1  UNL1        0.0654
     54 H         -10.4005    0.9376    0.7302 H       1  UNL1        0.0619
     55 H         -10.2793    1.4542    3.1235 H       1  UNL1        0.0618
     56 H          -8.5449    0.3785    4.5172 H       1  UNL1        0.0619
     57 H          -6.9358   -1.2196    3.4814 H       1  UNL1        0.0654
     58 H          -6.0971    0.5703    0.9564 H       1  UNL1        0.0654
     59 H          -4.0098    1.4600    0.0515 H       1  UNL1        0.0625
     60 H          -4.6933    0.7258   -2.9933 H       1  UNL1        0.1437
     61 H          -4.8521    2.2867   -2.1689 H       1  UNL1        0.1437
     62 H          -0.7174    3.6675   -4.6689 H       1  UNL1        0.1048
     63 H           2.0632    0.7298    0.5826 H       1  UNL1        0.0286
     64 H           1.7216    2.2072   -0.4773 H       1  UNL1        0.0286
     65 H           3.7276    1.5697   -1.8334 H       1  UNL1        0.0281
     66 H           4.1722    2.1276   -0.2009 H       1  UNL1        0.0281
     67 H           5.6889    1.8984    1.1435 H       1  UNL1        0.0439
     68 H           6.3596    1.4229   -0.5124 H       1  UNL1        0.0439
     69 H           8.2334    0.4491    0.3955 H       1  UNL1        0.0439
     70 H           7.9253    1.6914    1.6392 H       1  UNL1        0.0439
@<TRIPOS>BOND
     1     1     2    1
     2     2     3    1
     3     3     4    1
     4     4     5    1
     5     5     6    1
     6     6     7    1
     7     7     8    1
     8     8     9    1
     9     9    10    1
    10    10    11   ar
    11    11    12   ar
    12    12    13    1
    13    13    14   ar
    14    14    15   ar
    15    15    16   ar
    16    16    17    1
    17    17    18    1
    18    18    19   ar
    19    19    20   ar
    20    20    21   ar
    21    21    22   ar
    22    22    23   ar
    23    16    24   ar
    24    24    25   ar
    25    12    26   ar
    26    26    27   ar
    27    27    28    1
    28    27    29   ar
    29    29    30   ar
    30    30    31   ar
    31    31    32   ar
    32     9    33    1
    33    33    34    1
    34     5    35    1
    35    35    36    1
    36    36     2    1
    37    34     6    1
    38    32    10   ar
    39    25    13   ar
    40    32    26   ar
    41    23    18   ar
    42     1    37    1
    43     1    38    1
    44     1    39    1
    45     3    40    1
    46     3    41    1
    47     4    42    1
    48     4    43    1
    49     6    44    1
    50     7    45    1
    51     7    46    1
    52     8    47    1
    53     8    48    1
    54     9    49    1
    55    11    50    1
    56    14    51    1
    57    15    52    1
    58    19    53    1
    59    20    54    1
    60    21    55    1
    61    22    56    1
    62    23    57    1
    63    24    58    1
    64    25    59    1
    65    28    60    1
    66    28    61    1
    67    30    62    1
    68    33    63    1
    69    33    64    1
    70    34    65    1
    71    34    66    1
    72    35    67    1
    73    35    68    1
    74    36    69    1
    75    36    70    1
