@<TRIPOS>MOLECULE
*****
 69 71 0 0 0
SMALL
GASTEIGER

@<TRIPOS>ATOM
      1 C           4.0245   -0.0364    0.5525 C.3     1  UNL1        0.0441
      2 C           5.0965   -0.8037    1.2350 C.3     1  UNL1       -0.0391
      3 C           5.3498   -2.1961    0.8121 C.3     1  UNL1       -0.0460
      4 C           4.2601   -3.1949    0.9210 C.3     1  UNL1       -0.0626
      5 C           5.9268   -2.2761   -0.5990 C.3     1  UNL1       -0.0626
      6 C           3.9613    1.4121    1.0981 C.3     1  UNL1        0.0370
      7 C           5.2251    2.1290    0.8842 C.2     1  UNL1        0.2362
      8 O           6.3778    1.9007    0.3722 O.2     1  UNL1       -0.2737
      9 N           5.2935    3.4753    1.3443 N.am    1  UNL1       -0.1975
     10 O           6.4105    4.2228    1.1931 O.3     1  UNL1       -0.2952
     11 C           2.6325   -0.5304    0.8853 C.2     1  UNL1        0.2172
     12 O           2.0197   -1.3425    1.6125 O.2     1  UNL1       -0.2755
     13 N           1.6714    0.1654    0.0992 N.am    1  UNL1       -0.3034
     14 C           0.2344   -0.0366    0.1407 C.3     1  UNL1        0.1034
     15 C          -0.3774    1.2581    0.6299 C.3     1  UNL1        0.0013
     16 C          -1.8535    1.1633    0.7235 C.ar    1  UNL1       -0.0199
     17 C          -2.7109    1.8755   -0.0655 C.ar    1  UNL1        0.0089
     18 N          -4.0035    1.5674    0.1388 N.ar    1  UNL1       -0.3464
     19 C          -5.1949    2.0167   -0.4601 C.3     1  UNL1        0.0233
     20 C          -5.4942    1.7576   -1.8821 C.3     1  UNL1       -0.0350
     21 C          -5.3515    0.3207   -2.3085 C.3     1  UNL1       -0.0514
     22 C          -3.9240    0.0651   -2.5781 C.3     1  UNL1       -0.0516
     23 C          -3.5547   -1.3905   -2.8935 C.3     1  UNL1       -0.0374
     24 C          -2.0126   -1.3247   -3.0808 C.3     1  UNL1        0.0116
     25 N          -1.4048   -0.8720   -1.8595 N.am    1  UNL1       -0.3138
     26 C          -0.2412   -0.4933   -1.1791 C.2     1  UNL1        0.2337
     27 O           0.1064   -0.7815   -2.3562 O.2     1  UNL1       -0.2738
     28 C          -3.9138    0.6257    1.1060 C.ar    1  UNL1        0.0493
     29 C          -2.6539    0.3341    1.5070 C.ar    1  UNL1        0.0031
     30 C          -2.2972   -0.5759    2.4750 C.ar    1  UNL1       -0.0523
     31 C          -3.3017   -1.2635    3.1018 C.ar    1  UNL1       -0.0611
     32 C          -4.6220   -1.0646    2.7890 C.ar    1  UNL1       -0.0598
     33 C          -4.8670   -0.1311    1.8076 C.ar    1  UNL1       -0.0376
     34 H           4.2124    0.0222   -0.5171 H       1  UNL1        0.0399
     35 H           6.0811   -0.2620    1.1657 H       1  UNL1        0.0275
     36 H           4.9305   -0.8423    2.3601 H       1  UNL1        0.0275
     37 H           6.2031   -2.5675    1.4645 H       1  UNL1        0.0296
     38 H           3.8045   -3.3135    1.9140 H       1  UNL1        0.0232
     39 H           3.4906   -3.0215    0.1452 H       1  UNL1        0.0232
     40 H           4.7230   -4.2119    0.6652 H       1  UNL1        0.0232
     41 H           6.9826   -2.0074   -0.6312 H       1  UNL1        0.0232
     42 H           5.8113   -3.3446   -0.9257 H       1  UNL1        0.0232
     43 H           5.3545   -1.6666   -1.3064 H       1  UNL1        0.0232
     44 H           3.7002    1.2816    2.1660 H       1  UNL1        0.0366
     45 H           3.0973    1.8770    0.5850 H       1  UNL1        0.0366
     46 H           4.5006    3.9947    1.8306 H       1  UNL1        0.1822
     47 H           7.2305    3.7567    1.4264 H       1  UNL1        0.2414
     48 H           1.7963    0.9296   -0.6310 H       1  UNL1        0.1495
     49 H           0.0535   -0.8356    0.9156 H       1  UNL1        0.0598
     50 H           0.0107    1.4023    1.6571 H       1  UNL1        0.0337
     51 H          -0.0351    2.0947    0.0162 H       1  UNL1        0.0337
     52 H          -2.3932    2.6147   -0.7838 H       1  UNL1        0.0812
     53 H          -6.0823    1.7098    0.1758 H       1  UNL1        0.0492
     54 H          -5.2375    3.1538   -0.3189 H       1  UNL1        0.0492
     55 H          -4.8155    2.4149   -2.4988 H       1  UNL1        0.0282
     56 H          -6.5195    2.0738   -2.1858 H       1  UNL1        0.0282
     57 H          -5.6843   -0.3346   -1.4503 H       1  UNL1        0.0266
     58 H          -6.0162    0.0293   -3.1479 H       1  UNL1        0.0266
     59 H          -3.6758    0.6104   -3.5813 H       1  UNL1        0.0266
     60 H          -3.1781    0.4273   -1.9131 H       1  UNL1        0.0266
     61 H          -3.8458   -2.0995   -2.1323 H       1  UNL1        0.0280
     62 H          -4.0233   -1.6358   -3.8485 H       1  UNL1        0.0280
     63 H          -1.7315   -2.3563   -3.3886 H       1  UNL1        0.0462
     64 H          -1.8092   -0.6641   -3.9437 H       1  UNL1        0.0462
     65 H          -2.0161   -0.7680   -1.0207 H       1  UNL1        0.1487
     66 H          -1.3165   -0.8083    2.8042 H       1  UNL1        0.0624
     67 H          -3.0769   -2.0056    3.8859 H       1  UNL1        0.0618
     68 H          -5.4024   -1.6168    3.2875 H       1  UNL1        0.0618
     69 H          -5.9347   -0.0072    1.5938 H       1  UNL1        0.0638
@<TRIPOS>BOND
     1     1     2    1
     2     2     3    1
     3     3     4    1
     4     3     5    1
     5     1     6    1
     6     6     7    1
     7     7     8    2
     8     7     9   am
     9     9    10    1
    10     1    11    1
    11    11    12    2
    12    11    13   am
    13    13    14    1
    14    14    15    1
    15    15    16    1
    16    16    17   ar
    17    17    18   ar
    18    18    19    1
    19    19    20    1
    20    20    21    1
    21    21    22    1
    22    22    23    1
    23    23    24    1
    24    24    25    1
    25    25    26   am
    26    26    27    2
    27    18    28   ar
    28    28    29   ar
    29    29    30   ar
    30    30    31   ar
    31    31    32   ar
    32    32    33   ar
    33    26    14    1
    34    33    28   ar
    35    29    16   ar
    36     1    34    1
    37     2    35    1
    38     2    36    1
    39     3    37    1
    40     4    38    1
    41     4    39    1
    42     4    40    1
    43     5    41    1
    44     5    42    1
    45     5    43    1
    46     6    44    1
    47     6    45    1
    48     9    46    1
    49    10    47    1
    50    13    48    1
    51    14    49    1
    52    15    50    1
    53    15    51    1
    54    17    52    1
    55    19    53    1
    56    19    54    1
    57    20    55    1
    58    20    56    1
    59    21    57    1
    60    21    58    1
    61    22    59    1
    62    22    60    1
    63    23    61    1
    64    23    62    1
    65    24    63    1
    66    24    64    1
    67    25    65    1
    68    30    66    1
    69    31    67    1
    70    32    68    1
    71    33    69    1
