@<TRIPOS>MOLECULE
*****
 59 61 0 0 0
SMALL
GASTEIGER

@<TRIPOS>ATOM
      1 C          -7.0387   -1.8137   -2.2633 C.3     1  UNL1       -0.0370
      2 C          -6.7531   -0.3862   -1.7721 C.3     1  UNL1        0.0766
      3 C          -7.4070    0.5661   -2.7202 C.3     1  UNL1       -0.0370
      4 O          -5.3661   -0.1691   -1.7431 O.3     1  UNL1       -0.2733
      5 N          -4.9281   -0.0077   -0.5235 N.3     1  UNL1       -0.0453
      6 C          -4.8942    1.2944    0.0278 C.3     1  UNL1        0.1256
      7 C          -3.7366    2.1069   -0.4461 C.2     1  UNL1        0.2536
      8 O          -3.5304    3.2750   -0.0700 O.2     1  UNL1       -0.2722
      9 N          -2.8437    1.5010   -1.3670 N.am    1  UNL1       -0.1963
     10 O          -1.7902    2.2379   -1.7981 O.3     1  UNL1       -0.2951
     11 S          -4.2097   -1.2603    0.2788 S.O2    1  UNL1        0.0830
     12 O          -4.9061   -1.4803    1.6179 O.2     1  UNL1       -0.1509
     13 O          -4.4910   -2.5449   -0.4991 O.2     1  UNL1       -0.1509
     14 C          -2.5297   -1.2055    0.5690 C.ar    1  UNL1        0.1077
     15 C          -2.0544   -0.6263    1.7264 C.ar    1  UNL1       -0.0347
     16 C          -0.6843   -0.5668    1.9939 C.ar    1  UNL1       -0.0522
     17 C           0.2259   -1.0922    1.0954 C.ar    1  UNL1       -0.0178
     18 C           1.6635   -1.0547    1.3309 C.ar    1  UNL1       -0.0177
     19 C           2.5819   -0.9687    0.3160 C.ar    1  UNL1       -0.0506
     20 C           3.9518   -0.9364    0.6116 C.ar    1  UNL1       -0.0194
     21 C           4.4304   -0.9872    1.8896 C.ar    1  UNL1        0.1210
     22 O           5.7063   -0.9600    2.2553 O.3     1  UNL1       -0.4874
     23 C           6.9511   -0.8778    1.7396 C.3     1  UNL1        0.1146
     24 C           7.1754    0.3896    1.0011 C.ar    1  UNL1       -0.0103
     25 C           7.5469    1.5447    1.7085 C.ar    1  UNL1       -0.0540
     26 C           7.7918    2.7426    1.0810 C.ar    1  UNL1       -0.0430
     27 C           7.6836    2.8683   -0.2831 C.ar    1  UNL1        0.0410
     28 CL          7.9769    4.3484   -1.1400 Cl      1  UNL1       -0.0835
     29 C           7.3182    1.7438   -1.0112 C.ar    1  UNL1       -0.0430
     30 C           7.0769    0.5490   -0.3583 C.ar    1  UNL1       -0.0540
     31 C           3.4712   -1.0755    2.9167 C.ar    1  UNL1       -0.0194
     32 C           2.1498   -1.1058    2.6143 C.ar    1  UNL1       -0.0506
     33 C          -0.2445   -1.6740   -0.0664 C.ar    1  UNL1       -0.0522
     34 C          -1.6158   -1.7202   -0.3087 C.ar    1  UNL1       -0.0347
     35 H          -7.9846   -1.7691   -2.8231 H       1  UNL1        0.0255
     36 H          -6.2118   -2.1200   -2.9066 H       1  UNL1        0.0255
     37 H          -7.2219   -2.4872   -1.3999 H       1  UNL1        0.0255
     38 H          -7.1117   -0.3230   -0.7247 H       1  UNL1        0.0611
     39 H          -8.2069    0.0428   -3.3034 H       1  UNL1        0.0255
     40 H          -6.6183    0.8987   -3.4476 H       1  UNL1        0.0255
     41 H          -7.7782    1.4629   -2.2131 H       1  UNL1        0.0255
     42 H          -4.7828    1.2224    1.1384 H       1  UNL1        0.0565
     43 H          -5.8238    1.8411   -0.2478 H       1  UNL1        0.0565
     44 H          -2.9939    0.5142   -1.7062 H       1  UNL1        0.1822
     45 H          -2.1422    2.9003   -2.4677 H       1  UNL1        0.2414
     46 H          -2.7249   -0.1999    2.4632 H       1  UNL1        0.0637
     47 H          -0.2853   -0.1192    2.8916 H       1  UNL1        0.0624
     48 H           2.2707   -0.9254   -0.7127 H       1  UNL1        0.0625
     49 H           4.6261   -0.8767   -0.2168 H       1  UNL1        0.0654
     50 H           7.7241   -0.9367    2.5656 H       1  UNL1        0.0748
     51 H           7.1997   -1.7341    1.0567 H       1  UNL1        0.0748
     52 H           7.6266    1.4262    2.7818 H       1  UNL1        0.0622
     53 H           8.0743    3.6055    1.6561 H       1  UNL1        0.0632
     54 H           7.2232    1.8026   -2.0801 H       1  UNL1        0.0632
     55 H           6.7984   -0.3293   -0.9453 H       1  UNL1        0.0622
     56 H           3.7910   -1.1195    3.9547 H       1  UNL1        0.0654
     57 H           1.4186   -1.1749    3.4236 H       1  UNL1        0.0625
     58 H           0.4297   -2.0892   -0.7814 H       1  UNL1        0.0624
     59 H          -1.9740   -2.1670   -1.2000 H       1  UNL1        0.0637
@<TRIPOS>BOND
     1     1     2    1
     2     2     3    1
     3     2     4    1
     4     4     5    1
     5     5     6    1
     6     6     7    1
     7     7     8    2
     8     7     9   am
     9     9    10    1
    10     5    11    1
    11    11    12    2
    12    11    13    2
    13    11    14    1
    14    14    15   ar
    15    15    16   ar
    16    16    17   ar
    17    17    18    1
    18    18    19   ar
    19    19    20   ar
    20    20    21   ar
    21    21    22    1
    22    22    23    1
    23    23    24    1
    24    24    25   ar
    25    25    26   ar
    26    26    27   ar
    27    27    28    1
    28    27    29   ar
    29    29    30   ar
    30    21    31   ar
    31    31    32   ar
    32    17    33   ar
    33    33    34   ar
    34    34    14   ar
    35    32    18   ar
    36    30    24   ar
    37     1    35    1
    38     1    36    1
    39     1    37    1
    40     2    38    1
    41     3    39    1
    42     3    40    1
    43     3    41    1
    44     6    42    1
    45     6    43    1
    46     9    44    1
    47    10    45    1
    48    15    46    1
    49    16    47    1
    50    19    48    1
    51    20    49    1
    52    23    50    1
    53    23    51    1
    54    25    52    1
    55    26    53    1
    56    29    54    1
    57    30    55    1
    58    31    56    1
    59    32    57    1
    60    33    58    1
    61    34    59    1
