
     RDKit          3D

 59 61  0  0  0  0  0  0  0  0999 V2000
   -7.0387   -1.8137   -2.2633 C   0  0  0  0  0  0  0  0  0  0  0  0
   -6.7531   -0.3862   -1.7721 C   0  0  0  0  0  0  0  0  0  0  0  0
   -7.4070    0.5661   -2.7202 C   0  0  0  0  0  0  0  0  0  0  0  0
   -5.3661   -0.1691   -1.7431 O   0  0  0  0  0  0  0  0  0  0  0  0
   -4.9281   -0.0077   -0.5235 N   0  0  0  0  0  0  0  0  0  0  0  0
   -4.8942    1.2944    0.0278 C   0  0  0  0  0  0  0  0  0  0  0  0
   -3.7366    2.1069   -0.4461 C   0  0  0  0  0  0  0  0  0  0  0  0
   -3.5304    3.2750   -0.0700 O   0  0  0  0  0  0  0  0  0  0  0  0
   -2.8437    1.5010   -1.3670 N   0  0  0  0  0  0  0  0  0  0  0  0
   -1.7902    2.2379   -1.7981 O   0  0  0  0  0  0  0  0  0  0  0  0
   -4.2097   -1.2603    0.2788 S   0  0  0  0  0  6  0  0  0  0  0  0
   -4.9061   -1.4803    1.6179 O   0  0  0  0  0  0  0  0  0  0  0  0
   -4.4910   -2.5449   -0.4991 O   0  0  0  0  0  0  0  0  0  0  0  0
   -2.5297   -1.2055    0.5690 C   0  0  0  0  0  0  0  0  0  0  0  0
   -2.0544   -0.6263    1.7264 C   0  0  0  0  0  0  0  0  0  0  0  0
   -0.6843   -0.5668    1.9939 C   0  0  0  0  0  0  0  0  0  0  0  0
    0.2259   -1.0922    1.0954 C   0  0  0  0  0  0  0  0  0  0  0  0
    1.6635   -1.0547    1.3309 C   0  0  0  0  0  0  0  0  0  0  0  0
    2.5819   -0.9687    0.3160 C   0  0  0  0  0  0  0  0  0  0  0  0
    3.9518   -0.9364    0.6116 C   0  0  0  0  0  0  0  0  0  0  0  0
    4.4304   -0.9872    1.8896 C   0  0  0  0  0  0  0  0  0  0  0  0
    5.7063   -0.9600    2.2553 O   0  0  0  0  0  0  0  0  0  0  0  0
    6.9511   -0.8778    1.7396 C   0  0  0  0  0  0  0  0  0  0  0  0
    7.1754    0.3896    1.0011 C   0  0  0  0  0  0  0  0  0  0  0  0
    7.5469    1.5447    1.7085 C   0  0  0  0  0  0  0  0  0  0  0  0
    7.7918    2.7426    1.0810 C   0  0  0  0  0  0  0  0  0  0  0  0
    7.6836    2.8683   -0.2831 C   0  0  0  0  0  0  0  0  0  0  0  0
    7.9769    4.3484   -1.1400 Cl  0  0  0  0  0  0  0  0  0  0  0  0
    7.3182    1.7438   -1.0112 C   0  0  0  0  0  0  0  0  0  0  0  0
    7.0769    0.5490   -0.3583 C   0  0  0  0  0  0  0  0  0  0  0  0
    3.4712   -1.0755    2.9167 C   0  0  0  0  0  0  0  0  0  0  0  0
    2.1498   -1.1058    2.6143 C   0  0  0  0  0  0  0  0  0  0  0  0
   -0.2445   -1.6740   -0.0664 C   0  0  0  0  0  0  0  0  0  0  0  0
   -1.6158   -1.7202   -0.3087 C   0  0  0  0  0  0  0  0  0  0  0  0
   -7.9846   -1.7691   -2.8231 H   0  0  0  0  0  0  0  0  0  0  0  0
   -6.2118   -2.1200   -2.9066 H   0  0  0  0  0  0  0  0  0  0  0  0
   -7.2219   -2.4872   -1.3999 H   0  0  0  0  0  0  0  0  0  0  0  0
   -7.1117   -0.3230   -0.7247 H   0  0  0  0  0  0  0  0  0  0  0  0
   -8.2069    0.0428   -3.3034 H   0  0  0  0  0  0  0  0  0  0  0  0
   -6.6183    0.8987   -3.4476 H   0  0  0  0  0  0  0  0  0  0  0  0
   -7.7782    1.4629   -2.2131 H   0  0  0  0  0  0  0  0  0  0  0  0
   -4.7828    1.2224    1.1384 H   0  0  0  0  0  0  0  0  0  0  0  0
   -5.8238    1.8411   -0.2478 H   0  0  0  0  0  0  0  0  0  0  0  0
   -2.9939    0.5142   -1.7062 H   0  0  0  0  0  0  0  0  0  0  0  0
   -2.1422    2.9003   -2.4677 H   0  0  0  0  0  0  0  0  0  0  0  0
   -2.7249   -0.1999    2.4632 H   0  0  0  0  0  0  0  0  0  0  0  0
   -0.2853   -0.1192    2.8916 H   0  0  0  0  0  0  0  0  0  0  0  0
    2.2707   -0.9254   -0.7127 H   0  0  0  0  0  0  0  0  0  0  0  0
    4.6261   -0.8767   -0.2168 H   0  0  0  0  0  0  0  0  0  0  0  0
    7.7241   -0.9367    2.5656 H   0  0  0  0  0  0  0  0  0  0  0  0
    7.1997   -1.7341    1.0567 H   0  0  0  0  0  0  0  0  0  0  0  0
    7.6266    1.4262    2.7818 H   0  0  0  0  0  0  0  0  0  0  0  0
    8.0743    3.6055    1.6561 H   0  0  0  0  0  0  0  0  0  0  0  0
    7.2232    1.8026   -2.0801 H   0  0  0  0  0  0  0  0  0  0  0  0
    6.7984   -0.3293   -0.9453 H   0  0  0  0  0  0  0  0  0  0  0  0
    3.7910   -1.1195    3.9547 H   0  0  0  0  0  0  0  0  0  0  0  0
    1.4186   -1.1749    3.4236 H   0  0  0  0  0  0  0  0  0  0  0  0
    0.4297   -2.0892   -0.7814 H   0  0  0  0  0  0  0  0  0  0  0  0
   -1.9740   -2.1670   -1.2000 H   0  0  0  0  0  0  0  0  0  0  0  0
  1  2  1  0
  2  3  1  0
  2  4  1  0
  4  5  1  0
  5  6  1  0
  6  7  1  0
  7  8  2  0
  7  9  1  0
  9 10  1  0
  5 11  1  0
 11 12  2  0
 11 13  2  0
 11 14  1  0
 14 15  2  0
 15 16  1  0
 16 17  2  0
 17 18  1  0
 18 19  2  0
 19 20  1  0
 20 21  2  0
 21 22  1  0
 22 23  1  0
 23 24  1  0
 24 25  2  0
 25 26  1  0
 26 27  2  0
 27 28  1  0
 27 29  1  0
 29 30  2  0
 21 31  1  0
 31 32  2  0
 17 33  1  0
 33 34  2  0
 34 14  1  0
 32 18  1  0
 30 24  1  0
  1 35  1  0
  1 36  1  0
  1 37  1  0
  2 38  1  0
  3 39  1  0
  3 40  1  0
  3 41  1  0
  6 42  1  0
  6 43  1  0
  9 44  1  0
 10 45  1  0
 15 46  1  0
 16 47  1  0
 19 48  1  0
 20 49  1  0
 23 50  1  0
 23 51  1  0
 25 52  1  0
 26 53  1  0
 29 54  1  0
 30 55  1  0
 31 56  1  0
 32 57  1  0
 33 58  1  0
 34 59  1  0
M  END
$$$$
