@<TRIPOS>MOLECULE
*****
 45 48 0 0 0
SMALL
GASTEIGER

@<TRIPOS>ATOM
      1 N          -1.1287   -3.0806   -0.2840 N.4     1  UNL1        0.2232
      2 C          -1.2476   -1.6156   -0.2060 C.3     1  UNL1       -0.0066
      3 C          -2.6957   -1.3254    0.0001 C.3     1  UNL1        0.0184
      4 C          -3.0355    0.1130    0.1063 C.ar    1  UNL1       -0.0417
      5 C          -3.3755    0.9635   -0.9230 C.ar    1  UNL1       -0.0570
      6 C          -3.6723    2.2914   -0.6972 C.ar    1  UNL1       -0.0431
      7 C          -3.6435    2.8321    0.5666 C.ar    1  UNL1        0.0410
      8 CL         -4.0455    4.5358    0.6902 Cl      1  UNL1       -0.0835
      9 C          -3.3058    1.9976    1.6092 C.ar    1  UNL1       -0.0431
     10 C          -3.0104    0.6710    1.3753 C.ar    1  UNL1       -0.0570
     11 C          -0.4846   -1.1383    1.0089 C.3     1  UNL1        0.0092
     12 C           0.9766   -1.4267    0.8608 C.3     1  UNL1        0.0189
     13 N           1.4813   -0.9531   -0.4057 N.pl3   1  UNL1       -0.3142
     14 C           0.7539   -1.1128   -1.6367 C.3     1  UNL1        0.0189
     15 C          -0.7316   -1.0543   -1.4827 C.3     1  UNL1        0.0092
     16 C           2.7648   -0.2921   -0.4479 C.ar    1  UNL1        0.1338
     17 C           3.1047    0.8476    0.2135 C.ar    1  UNL1        0.0585
     18 C           2.3477    1.6176    1.0467 C.ar    1  UNL1       -0.0318
     19 C           3.1795    2.6606    1.4479 C.ar    1  UNL1        0.0042
     20 N           4.3761    2.4790    0.8526 N.ar    1  UNL1       -0.3457
     21 C           4.3716    1.3706    0.0818 C.ar    1  UNL1        0.1432
     22 N           5.3100    0.7923   -0.6890 N.ar    1  UNL1       -0.2178
     23 C           4.9446   -0.3449   -1.3385 C.ar    1  UNL1        0.1204
     24 N           3.6967   -0.8804   -1.2230 N.ar    1  UNL1       -0.2200
     25 H          -1.6897   -3.5534    0.4752 H       1  UNL1        0.2000
     26 H          -0.1580   -3.4115   -0.1888 H       1  UNL1        0.2000
     27 H          -1.5781   -3.4138   -1.1727 H       1  UNL1        0.2000
     28 H          -3.0881   -1.8727    0.8913 H       1  UNL1        0.0371
     29 H          -3.3143   -1.7454   -0.8476 H       1  UNL1        0.0371
     30 H          -3.3942    0.5244   -1.9080 H       1  UNL1        0.0621
     31 H          -3.9288    2.8864   -1.5642 H       1  UNL1        0.0632
     32 H          -3.2963    2.4672    2.5861 H       1  UNL1        0.0632
     33 H          -2.7626    0.1412    2.2990 H       1  UNL1        0.0621
     34 H          -0.8490   -1.7755    1.8514 H       1  UNL1        0.0338
     35 H          -0.6490   -0.0741    1.1812 H       1  UNL1        0.0338
     36 H           1.2250   -2.4995    1.0013 H       1  UNL1        0.0466
     37 H           1.5113   -0.8980    1.6763 H       1  UNL1        0.0466
     38 H           1.0396   -0.2727   -2.3091 H       1  UNL1        0.0466
     39 H           1.1195   -2.0420   -2.1228 H       1  UNL1        0.0466
     40 H          -1.1661   -1.6413   -2.3193 H       1  UNL1        0.0338
     41 H          -1.0759    0.0131   -1.5778 H       1  UNL1        0.0338
     42 H           1.3189    1.4710    1.3475 H       1  UNL1        0.0640
     43 H           2.9288    3.4805    2.1176 H       1  UNL1        0.0807
     44 H           5.2058    3.1149    0.9708 H       1  UNL1        0.1668
     45 H           5.6706   -0.8465   -1.9726 H       1  UNL1        0.1048
@<TRIPOS>UNITY_ATOM_ATTR
1 1
charge 1
@<TRIPOS>BOND
     1     1     2    1
     2     2     3    1
     3     3     4    1
     4     4     5   ar
     5     5     6   ar
     6     6     7   ar
     7     7     8    1
     8     7     9   ar
     9     9    10   ar
    10     2    11    1
    11    11    12    1
    12    12    13    1
    13    13    14    1
    14    14    15    1
    15    13    16    1
    16    16    17   ar
    17    17    18   ar
    18    18    19   ar
    19    19    20   ar
    20    20    21   ar
    21    21    22   ar
    22    22    23   ar
    23    23    24   ar
    24    15     2    1
    25    24    16   ar
    26    10     4   ar
    27    21    17   ar
    28     1    25    1
    29     1    26    1
    30     1    27    1
    31     3    28    1
    32     3    29    1
    33     5    30    1
    34     6    31    1
    35     9    32    1
    36    10    33    1
    37    11    34    1
    38    11    35    1
    39    12    36    1
    40    12    37    1
    41    14    38    1
    42    14    39    1
    43    15    40    1
    44    15    41    1
    45    18    42    1
    46    19    43    1
    47    20    44    1
    48    23    45    1
