@<TRIPOS>MOLECULE
*****
 48 51 0 0 0
SMALL
GASTEIGER

@<TRIPOS>ATOM
      1 C          -5.0994    2.7479    1.7319 C.3     1  UNL1        0.0365
      2 O          -5.6579    1.8606    0.8607 O.3     1  UNL1       -0.3816
      3 C          -4.8866    1.3667   -0.1519 C.3     1  UNL1        0.0627
      4 C          -3.6247    0.6634    0.2110 C.3     1  UNL1        0.0528
      5 C          -2.4971    1.3761    0.9299 C.3     1  UNL1       -0.0287
      6 C          -2.3623    0.8909   -0.4831 C.3     1  UNL1        0.0068
      7 C          -1.5718   -0.3258   -0.8198 C.3     1  UNL1        0.0931
      8 C          -2.3920   -1.1624   -1.8012 C.3     1  UNL1       -0.0352
      9 C          -0.3206    0.0642   -1.5606 C.ar    1  UNL1        0.0157
     10 C           0.9142   -0.3546   -1.0357 C.ar    1  UNL1       -0.0463
     11 C           2.1152   -0.0308   -1.6187 C.ar    1  UNL1       -0.0217
     12 C           3.4064   -0.4594   -1.0695 C.2     1  UNL1       -0.0171
     13 C           3.6555   -0.4726    0.2267 C.2     1  UNL1        0.1506
     14 F           2.6252   -0.0573    1.0300 F       1  UNL1       -0.2032
     15 C           4.9138   -0.8884    0.8294 C.ar    1  UNL1        0.1171
     16 C           6.0082   -1.3249    0.1266 C.ar    1  UNL1        0.0574
     17 N           7.1586   -1.7004    0.7322 N.ar    1  UNL1       -0.2398
     18 C           7.2634   -1.6544    2.0736 C.ar    1  UNL1        0.1472
     19 CL          8.7521   -2.1387    2.8808 Cl      1  UNL1       -0.0604
     20 C           6.1723   -1.2176    2.7956 C.ar    1  UNL1        0.0651
     21 N           5.0420   -0.8510    2.1680 N.ar    1  UNL1       -0.2482
     22 C           2.0515    0.7367   -2.7624 C.ar    1  UNL1       -0.0518
     23 C           0.8817    1.1741   -3.3215 C.ar    1  UNL1       -0.0255
     24 C          -0.3233    0.8215   -2.6952 C.ar    1  UNL1        0.1289
     25 F          -1.5051    1.2153   -3.2288 F       1  UNL1       -0.2051
     26 N          -1.2009   -1.1494    0.3071 N.2     1  UNL1       -0.2521
     27 C          -2.0746   -1.5921    1.1137 C.2     1  UNL1        0.1481
     28 N          -1.8308   -2.4004    2.2376 N.pl3   1  UNL1       -0.3380
     29 S          -3.7781   -1.0875    0.7765 S.3     1  UNL1       -0.0817
     30 H          -5.8636    3.1256    2.4761 H       1  UNL1        0.0523
     31 H          -4.3539    2.1479    2.3554 H       1  UNL1        0.0523
     32 H          -4.6071    3.6254    1.3036 H       1  UNL1        0.0523
     33 H          -5.4910    0.7771   -0.8939 H       1  UNL1        0.0574
     34 H          -4.5726    2.2733   -0.7768 H       1  UNL1        0.0574
     35 H          -2.5181    2.4789    1.0788 H       1  UNL1        0.0283
     36 H          -1.8684    0.8557    1.6584 H       1  UNL1        0.0283
     37 H          -2.3957    1.6646   -1.2901 H       1  UNL1        0.0342
     38 H          -2.0634   -0.9719   -2.8421 H       1  UNL1        0.0256
     39 H          -2.3405   -2.2392   -1.5378 H       1  UNL1        0.0256
     40 H          -3.4634   -0.8766   -1.7624 H       1  UNL1        0.0256
     41 H           0.9134   -0.9609   -0.1374 H       1  UNL1        0.0628
     42 H           4.2159   -0.7857   -1.7137 H       1  UNL1        0.0653
     43 H           5.9784   -1.3810   -0.9450 H       1  UNL1        0.0853
     44 H           6.2355   -1.1733    3.8635 H       1  UNL1        0.0860
     45 H           3.0010    0.9944   -3.2249 H       1  UNL1        0.0624
     46 H           0.8296    1.7794   -4.2227 H       1  UNL1        0.0646
     47 H          -1.7469   -3.4397    2.2101 H       1  UNL1        0.1442
     48 H          -1.7240   -1.9438    3.1687 H       1  UNL1        0.1442
@<TRIPOS>BOND
     1     1     2    1
     2     2     3    1
     3     4     3    1
     4     4     5    1
     5     5     6    1
     6     6     7    1
     7     7     8    1
     8     7     9    1
     9     9    10   ar
    10    10    11   ar
    11    11    12    1
    12    12    13    2
    13    13    14    1
    14    13    15    1
    15    15    16   ar
    16    16    17   ar
    17    17    18   ar
    18    18    19    1
    19    18    20   ar
    20    20    21   ar
    21    11    22   ar
    22    22    23   ar
    23    23    24   ar
    24    24    25    1
    25     7    26    1
    26    26    27    2
    27    27    28    1
    28    27    29    1
    29     6     4    1
    30    24     9   ar
    31    29     4    1
    32    21    15   ar
    33     1    30    1
    34     1    31    1
    35     1    32    1
    36     3    33    1
    37     3    34    1
    38     5    35    1
    39     5    36    1
    40     6    37    1
    41     8    38    1
    42     8    39    1
    43     8    40    1
    44    10    41    1
    45    12    42    1
    46    16    43    1
    47    20    44    1
    48    22    45    1
    49    23    46    1
    50    28    47    1
    51    28    48    1
