@<TRIPOS>MOLECULE
*****
 44 46 0 0 0
SMALL
GASTEIGER

@<TRIPOS>ATOM
      1 C           6.0469    1.2420   -0.0934 C.3     1  UNL1       -0.0653
      2 C           5.2349    0.0988    0.5334 C.3     1  UNL1       -0.0559
      3 C           3.8685    0.2028   -0.1010 C.3     1  UNL1       -0.0522
      4 C           2.9215   -0.8614    0.4060 C.3     1  UNL1       -0.0333
      5 C           1.6133   -0.6789   -0.2709 C.3     1  UNL1        0.1156
      6 C           0.5645   -1.6725    0.1262 C.2     1  UNL1        0.2486
      7 O           0.9502   -2.7729    0.5841 O.2     1  UNL1       -0.2729
      8 N          -0.7198   -1.1095   -0.1204 N.am    1  UNL1       -0.1804
      9 N          -0.4938    0.2584   -0.0697 N.am    1  UNL1       -0.1804
     10 C           0.8946    0.5627    0.2011 C.2     1  UNL1        0.2486
     11 O           1.2856    1.6519    0.7167 O.2     1  UNL1       -0.2729
     12 C          -1.4445    1.2881   -0.2484 C.ar    1  UNL1        0.0569
     13 C          -1.6805    1.7953   -1.5343 C.ar    1  UNL1       -0.0352
     14 C          -2.6121    2.8101   -1.6254 C.ar    1  UNL1       -0.0184
     15 C          -3.2825    3.3097   -0.5265 C.ar    1  UNL1        0.1170
     16 O          -4.2088    4.3189   -0.6183 O.3     1  UNL1       -0.5068
     17 C          -3.0151    2.7735    0.7358 C.ar    1  UNL1       -0.0184
     18 C          -2.0958    1.7570    0.9019 C.ar    1  UNL1       -0.0352
     19 C          -1.8619   -1.8726   -0.3481 C.ar    1  UNL1        0.0566
     20 C          -1.8091   -3.2512   -0.3633 C.ar    1  UNL1       -0.0386
     21 C          -2.8968   -4.0682   -0.5795 C.ar    1  UNL1       -0.0599
     22 C          -4.1457   -3.5208   -0.8009 C.ar    1  UNL1       -0.0616
     23 C          -4.2697   -2.1572   -0.7992 C.ar    1  UNL1       -0.0599
     24 C          -3.1364   -1.4052   -0.5757 C.ar    1  UNL1       -0.0386
     25 H           6.2094    1.0636   -1.1756 H       1  UNL1        0.0230
     26 H           5.5072    2.1910    0.0882 H       1  UNL1        0.0230
     27 H           7.0460    1.3304    0.3843 H       1  UNL1        0.0230
     28 H           5.7036   -0.8608    0.3205 H       1  UNL1        0.0263
     29 H           5.1289    0.3476    1.6043 H       1  UNL1        0.0263
     30 H           3.9977    0.0021   -1.2017 H       1  UNL1        0.0266
     31 H           3.4313    1.1936   -0.0322 H       1  UNL1        0.0266
     32 H           2.8464   -0.6945    1.5147 H       1  UNL1        0.0277
     33 H           3.3346   -1.8696    0.2504 H       1  UNL1        0.0277
     34 H           1.6992   -0.5999   -1.3624 H       1  UNL1        0.0491
     35 H          -1.1326    1.3740   -2.3667 H       1  UNL1        0.0638
     36 H          -2.8221    3.2282   -2.6018 H       1  UNL1        0.0655
     37 H          -3.9164    5.2863   -0.4734 H       1  UNL1        0.2921
     38 H          -3.5381    3.1605    1.6069 H       1  UNL1        0.0655
     39 H          -1.8576    1.3127    1.8586 H       1  UNL1        0.0638
     40 H          -0.9184   -3.8262   -0.2108 H       1  UNL1        0.0637
     41 H          -2.8668   -5.1428   -0.5934 H       1  UNL1        0.0618
     42 H          -5.0102   -4.1326   -0.9720 H       1  UNL1        0.0618
     43 H          -5.2360   -1.7212   -0.9703 H       1  UNL1        0.0618
     44 H          -3.3137   -0.3416   -0.5893 H       1  UNL1        0.0637
@<TRIPOS>BOND
     1     1     2    1
     2     2     3    1
     3     3     4    1
     4     4     5    1
     5     5     6    1
     6     6     7    2
     7     6     8   am
     8     8     9    1
     9     9    10   am
    10    10    11    2
    11     9    12    1
    12    12    13   ar
    13    13    14   ar
    14    14    15   ar
    15    15    16    1
    16    15    17   ar
    17    17    18   ar
    18     8    19    1
    19    19    20   ar
    20    20    21   ar
    21    21    22   ar
    22    22    23   ar
    23    23    24   ar
    24    10     5    1
    25    18    12   ar
    26    24    19   ar
    27     1    25    1
    28     1    26    1
    29     1    27    1
    30     2    28    1
    31     2    29    1
    32     3    30    1
    33     3    31    1
    34     4    32    1
    35     4    33    1
    36     5    34    1
    37    13    35    1
    38    14    36    1
    39    16    37    1
    40    17    38    1
    41    18    39    1
    42    20    40    1
    43    21    41    1
    44    22    42    1
    45    23    43    1
    46    24    44    1
