@<TRIPOS>MOLECULE
*****
 50 53 0 0 0
SMALL
GASTEIGER

@<TRIPOS>ATOM
      1 C          -1.3936    1.4834    6.1070 C.3     1  UNL1        0.0365
      2 O          -0.7276    2.5938    5.6413 O.3     1  UNL1       -0.3814
      3 C          -0.1295    2.3790    4.4505 C.3     1  UNL1        0.0684
      4 C          -1.0732    1.9899    3.2850 C.3     1  UNL1        0.1209
      5 S          -2.2943    3.2060    2.9465 S.3     1  UNL1       -0.0755
      6 C          -1.8785    3.9834    1.3578 C.2     1  UNL1        0.1483
      7 N          -2.3975    5.1776    0.9673 N.pl3   1  UNL1       -0.3380
      8 N          -1.0806    3.2679    0.6543 N.2     1  UNL1       -0.2519
      9 C          -0.4603    2.0393    0.8381 C.3     1  UNL1        0.0988
     10 C           1.0318    2.3863    0.3787 C.3     1  UNL1       -0.0350
     11 C          -0.9443    1.1382   -0.2470 C.ar    1  UNL1        0.0159
     12 C          -0.1279    0.3894   -1.0669 C.ar    1  UNL1       -0.0463
     13 C          -0.6237   -0.4239   -2.0407 C.ar    1  UNL1       -0.0217
     14 C           0.2012   -1.2767   -2.8857 C.2     1  UNL1       -0.0172
     15 C           1.0433   -2.1730   -2.3851 C.2     1  UNL1        0.1492
     16 F           1.1083   -2.2527   -1.0238 F       1  UNL1       -0.2032
     17 C           1.8095   -3.0269   -3.2376 C.ar    1  UNL1        0.0990
     18 C           2.5724   -4.1002   -2.6399 C.ar    1  UNL1       -0.0322
     19 C           3.3206   -4.8603   -3.4924 C.ar    1  UNL1       -0.0408
     20 C           3.4522   -4.7562   -4.8405 C.ar    1  UNL1        0.0699
     21 C           4.2961   -5.4899   -5.7034 C.1     1  UNL1        0.1007
     22 N           4.9908   -6.0718   -6.4139 N.1     1  UNL1       -0.1908
     23 C           2.6607   -3.6616   -5.3962 C.ar    1  UNL1        0.0457
     24 N           1.9675   -2.9702   -4.5404 N.ar    1  UNL1       -0.2514
     25 C          -2.0101   -0.5278   -2.2342 C.ar    1  UNL1       -0.0518
     26 C          -2.8787    0.2074   -1.4145 C.ar    1  UNL1       -0.0255
     27 C          -2.3288    1.0225   -0.4419 C.ar    1  UNL1        0.1289
     28 F          -3.1571    1.8014    0.2837 F       1  UNL1       -0.2051
     29 C          -0.3400    1.4347    2.1267 C.3     1  UNL1        0.0757
     30 C          -1.2628    0.5728    2.9174 C.3     1  UNL1        0.2730
     31 F          -2.4365    0.0921    2.4595 F       1  UNL1       -0.2036
     32 F          -0.6648   -0.3453    3.8221 F       1  UNL1       -0.2036
     33 H          -2.2055    1.1184    5.4241 H       1  UNL1        0.0523
     34 H          -1.9448    1.8124    7.0379 H       1  UNL1        0.0523
     35 H          -0.6952    0.6381    6.3562 H       1  UNL1        0.0523
     36 H           0.3513    3.3363    4.1038 H       1  UNL1        0.0576
     37 H           0.6425    1.5629    4.4904 H       1  UNL1        0.0576
     38 H          -1.9178    5.7876    0.2222 H       1  UNL1        0.1442
     39 H          -3.2657    5.5582    1.3560 H       1  UNL1        0.1442
     40 H           0.9657    2.7174   -0.6612 H       1  UNL1        0.0256
     41 H           1.6079    1.4719    0.4844 H       1  UNL1        0.0256
     42 H           1.4212    3.1576    1.0788 H       1  UNL1        0.0256
     43 H           0.9454    0.4400   -0.9493 H       1  UNL1        0.0628
     44 H           0.1581   -1.1990   -3.9791 H       1  UNL1        0.0653
     45 H           2.5364   -4.2723   -1.5963 H       1  UNL1        0.0640
     46 H           3.9458   -5.7034   -3.0553 H       1  UNL1        0.0631
     47 H           2.7684   -3.5978   -6.4528 H       1  UNL1        0.0843
     48 H          -2.3820   -1.1615   -3.0166 H       1  UNL1        0.0624
     49 H          -3.9552    0.1481   -1.5083 H       1  UNL1        0.0646
     50 H           0.7788    1.2510    2.4332 H       1  UNL1        0.0402
@<TRIPOS>BOND
     1     1     2    1
     2     2     3    1
     3     4     3    1
     4     4     5    1
     5     5     6    1
     6     6     7    1
     7     6     8    2
     8     8     9    1
     9     9    10    1
    10     9    11    1
    11    11    12   ar
    12    12    13   ar
    13    13    14    1
    14    14    15    2
    15    15    16    1
    16    15    17    1
    17    17    18   ar
    18    18    19   ar
    19    19    20   ar
    20    20    21    1
    21    21    22    3
    22    20    23   ar
    23    23    24   ar
    24    13    25   ar
    25    25    26   ar
    26    26    27   ar
    27    27    28    1
    28     9    29    1
    29    29    30    1
    30    30    31    1
    31    30    32    1
    32    29     4    1
    33    30     4    1
    34    27    11   ar
    35    24    17   ar
    36     1    33    1
    37     1    34    1
    38     1    35    1
    39     3    36    1
    40     3    37    1
    41     7    38    1
    42     7    39    1
    43    10    40    1
    44    10    41    1
    45    10    42    1
    46    12    43    1
    47    14    44    1
    48    18    45    1
    49    19    46    1
    50    23    47    1
    51    25    48    1
    52    26    49    1
    53    29    50    1
