
     RDKit          3D

 50 53  0  0  0  0  0  0  0  0999 V2000
   -1.3936    1.4834    6.1070 C   0  0  0  0  0  0  0  0  0  0  0  0
   -0.7276    2.5938    5.6413 O   0  0  0  0  0  0  0  0  0  0  0  0
   -0.1295    2.3790    4.4505 C   0  0  0  0  0  0  0  0  0  0  0  0
   -1.0732    1.9899    3.2850 C   0  0  1  0  0  0  0  0  0  0  0  0
   -2.2943    3.2060    2.9465 S   0  0  0  0  0  0  0  0  0  0  0  0
   -1.8785    3.9834    1.3578 C   0  0  0  0  0  0  0  0  0  0  0  0
   -2.3975    5.1776    0.9673 N   0  0  0  0  0  0  0  0  0  0  0  0
   -1.0806    3.2679    0.6543 N   0  0  0  0  0  0  0  0  0  0  0  0
   -0.4603    2.0393    0.8381 C   0  0  2  0  0  0  0  0  0  0  0  0
    1.0318    2.3863    0.3787 C   0  0  0  0  0  0  0  0  0  0  0  0
   -0.9443    1.1382   -0.2470 C   0  0  0  0  0  0  0  0  0  0  0  0
   -0.1279    0.3894   -1.0669 C   0  0  0  0  0  0  0  0  0  0  0  0
   -0.6237   -0.4239   -2.0407 C   0  0  0  0  0  0  0  0  0  0  0  0
    0.2012   -1.2767   -2.8857 C   0  0  0  0  0  0  0  0  0  0  0  0
    1.0433   -2.1730   -2.3851 C   0  0  0  0  0  0  0  0  0  0  0  0
    1.1083   -2.2527   -1.0238 F   0  0  0  0  0  0  0  0  0  0  0  0
    1.8095   -3.0269   -3.2376 C   0  0  0  0  0  0  0  0  0  0  0  0
    2.5724   -4.1002   -2.6399 C   0  0  0  0  0  0  0  0  0  0  0  0
    3.3206   -4.8603   -3.4924 C   0  0  0  0  0  0  0  0  0  0  0  0
    3.4522   -4.7562   -4.8405 C   0  0  0  0  0  0  0  0  0  0  0  0
    4.2961   -5.4899   -5.7034 C   0  0  0  0  0  0  0  0  0  0  0  0
    4.9908   -6.0718   -6.4139 N   0  0  0  0  0  0  0  0  0  0  0  0
    2.6607   -3.6616   -5.3962 C   0  0  0  0  0  0  0  0  0  0  0  0
    1.9675   -2.9702   -4.5404 N   0  0  0  0  0  0  0  0  0  0  0  0
   -2.0101   -0.5278   -2.2342 C   0  0  0  0  0  0  0  0  0  0  0  0
   -2.8787    0.2074   -1.4145 C   0  0  0  0  0  0  0  0  0  0  0  0
   -2.3288    1.0225   -0.4419 C   0  0  0  0  0  0  0  0  0  0  0  0
   -3.1571    1.8014    0.2837 F   0  0  0  0  0  0  0  0  0  0  0  0
   -0.3400    1.4347    2.1267 C   0  0  2  0  0  0  0  0  0  0  0  0
   -1.2628    0.5728    2.9174 C   0  0  0  0  0  0  0  0  0  0  0  0
   -2.4365    0.0921    2.4595 F   0  0  0  0  0  0  0  0  0  0  0  0
   -0.6648   -0.3453    3.8221 F   0  0  0  0  0  0  0  0  0  0  0  0
   -2.2055    1.1184    5.4241 H   0  0  0  0  0  0  0  0  0  0  0  0
   -1.9448    1.8124    7.0379 H   0  0  0  0  0  0  0  0  0  0  0  0
   -0.6952    0.6381    6.3562 H   0  0  0  0  0  0  0  0  0  0  0  0
    0.3513    3.3363    4.1038 H   0  0  0  0  0  0  0  0  0  0  0  0
    0.6425    1.5629    4.4904 H   0  0  0  0  0  0  0  0  0  0  0  0
   -1.9178    5.7876    0.2222 H   0  0  0  0  0  0  0  0  0  0  0  0
   -3.2657    5.5582    1.3560 H   0  0  0  0  0  0  0  0  0  0  0  0
    0.9657    2.7174   -0.6612 H   0  0  0  0  0  0  0  0  0  0  0  0
    1.6079    1.4719    0.4844 H   0  0  0  0  0  0  0  0  0  0  0  0
    1.4212    3.1576    1.0788 H   0  0  0  0  0  0  0  0  0  0  0  0
    0.9454    0.4400   -0.9493 H   0  0  0  0  0  0  0  0  0  0  0  0
    0.1581   -1.1990   -3.9791 H   0  0  0  0  0  0  0  0  0  0  0  0
    2.5364   -4.2723   -1.5963 H   0  0  0  0  0  0  0  0  0  0  0  0
    3.9458   -5.7034   -3.0553 H   0  0  0  0  0  0  0  0  0  0  0  0
    2.7684   -3.5978   -6.4528 H   0  0  0  0  0  0  0  0  0  0  0  0
   -2.3820   -1.1615   -3.0166 H   0  0  0  0  0  0  0  0  0  0  0  0
   -3.9552    0.1481   -1.5083 H   0  0  0  0  0  0  0  0  0  0  0  0
    0.7788    1.2510    2.4332 H   0  0  0  0  0  0  0  0  0  0  0  0
  1  2  1  0
  2  3  1  0
  4  3  1  1
  4  5  1  0
  5  6  1  0
  6  7  1  0
  6  8  2  0
  8  9  1  0
  9 10  1  6
  9 11  1  0
 11 12  2  0
 12 13  1  0
 13 14  1  0
 14 15  2  0
 15 16  1  0
 15 17  1  0
 17 18  2  0
 18 19  1  0
 19 20  2  0
 20 21  1  0
 21 22  3  0
 20 23  1  0
 23 24  2  0
 13 25  2  0
 25 26  1  0
 26 27  2  0
 27 28  1  0
  9 29  1  0
 29 30  1  0
 30 31  1  0
 30 32  1  0
 29  4  1  0
 30  4  1  0
 27 11  1  0
 24 17  1  0
  1 33  1  0
  1 34  1  0
  1 35  1  0
  3 36  1  0
  3 37  1  0
  7 38  1  0
  7 39  1  0
 10 40  1  0
 10 41  1  0
 10 42  1  0
 12 43  1  0
 14 44  1  0
 18 45  1  0
 19 46  1  0
 23 47  1  0
 25 48  1  0
 26 49  1  0
 29 50  1  1
M  END
$$$$
