
     RDKit          3D

 56 58  0  0  0  0  0  0  0  0999 V2000
    3.0232   -2.1140   -0.0418 C   0  0  0  0  0  0  0  0  0  0  0  0
    4.2834   -1.8757   -0.2092 C   0  0  0  0  0  0  0  0  0  0  0  0
    5.1389   -3.0429   -0.7270 C   0  0  0  0  0  0  0  0  0  0  0  0
    5.0192   -0.6364   -0.0615 C   0  0  0  0  0  0  0  0  0  0  0  0
    6.4160   -0.7490    0.1815 C   0  0  0  0  0  0  0  0  0  0  0  0
    7.1796    0.3667    0.3682 C   0  0  0  0  0  0  0  0  0  0  0  0
    8.9178    0.2715    0.6727 Cl  0  0  0  0  0  0  0  0  0  0  0  0
    6.5518    1.5897    0.3128 C   0  0  0  0  0  0  0  0  0  0  0  0
    5.2397    1.6966    0.0810 N   0  0  0  0  0  0  0  0  0  0  0  0
    4.4370    0.5768   -0.1167 C   0  0  0  0  0  0  0  0  0  0  0  0
    3.0848    0.8216   -0.5581 C   0  0  0  0  0  0  0  0  0  0  0  0
    2.5415    0.1146   -1.4317 O   0  0  0  0  0  0  0  0  0  0  0  0
    2.2708    1.8767   -0.0388 N   0  0  0  0  0  0  0  0  0  0  0  0
    0.9356    2.1349   -0.4603 C   0  0  0  0  0  0  0  0  0  0  0  0
    0.7103    2.9970   -1.5166 C   0  0  0  0  0  0  0  0  0  0  0  0
   -0.5667    3.2695   -1.9505 C   0  0  0  0  0  0  0  0  0  0  0  0
   -1.6537    2.6880   -1.3406 C   0  0  0  0  0  0  0  0  0  0  0  0
   -2.9359    2.9495   -1.7627 F   0  0  0  0  0  0  0  0  0  0  0  0
   -1.4416    1.8162   -0.2737 C   0  0  0  0  0  0  0  0  0  0  0  0
   -2.6480    1.2142    0.3553 C   0  0  2  0  0  0  0  0  0  0  0  0
   -3.5914    2.3153    0.8505 C   0  0  0  0  0  0  0  0  0  0  0  0
   -2.2969    0.3977    1.5846 C   0  0  0  0  0  0  0  0  0  0  0  0
   -3.7623   -0.5426    1.9854 S   0  0  0  0  0  6  0  0  0  0  0  0
   -4.8945    0.3535    2.3704 O   0  0  0  0  0  0  0  0  0  0  0  0
   -3.5002   -1.4684    3.1456 O   0  0  0  0  0  0  0  0  0  0  0  0
   -4.2052   -1.4180    0.5167 C   0  0  0  0  0  0  0  0  0  0  0  0
   -5.6547   -1.8602    0.5615 C   0  0  0  0  0  0  0  0  0  0  0  0
   -3.2924   -2.6499    0.4605 C   0  0  0  0  0  0  0  0  0  0  0  0
   -3.9693   -0.5819   -0.6556 C   0  0  0  0  0  0  0  0  0  0  0  0
   -4.5264   -1.0210   -1.9164 N   0  0  0  0  0  0  0  0  0  0  0  0
   -3.3280    0.4779   -0.6588 N   0  0  0  0  0  0  0  0  0  0  0  0
   -0.1571    1.5588    0.1426 C   0  0  0  0  0  0  0  0  0  0  0  0
    2.6578   -3.1314   -0.2884 H   0  0  0  0  0  0  0  0  0  0  0  0
    2.2661   -1.4773    0.3572 H   0  0  0  0  0  0  0  0  0  0  0  0
    5.5706   -3.5774    0.1168 H   0  0  0  0  0  0  0  0  0  0  0  0
    5.9724   -2.6569   -1.3468 H   0  0  0  0  0  0  0  0  0  0  0  0
    4.4865   -3.6069   -1.3917 H   0  0  0  0  0  0  0  0  0  0  0  0
    6.8694   -1.7081    0.2198 H   0  0  0  0  0  0  0  0  0  0  0  0
    7.1911    2.4581    0.4692 H   0  0  0  0  0  0  0  0  0  0  0  0
    2.6940    2.4829    0.6896 H   0  0  0  0  0  0  0  0  0  0  0  0
    1.5740    3.4514   -1.9920 H   0  0  0  0  0  0  0  0  0  0  0  0
   -0.7630    3.9508   -2.7867 H   0  0  0  0  0  0  0  0  0  0  0  0
   -4.6357    2.0685    0.5692 H   0  0  0  0  0  0  0  0  0  0  0  0
   -3.5841    2.4046    1.9561 H   0  0  0  0  0  0  0  0  0  0  0  0
   -3.2717    3.3175    0.4744 H   0  0  0  0  0  0  0  0  0  0  0  0
   -2.0257    1.1161    2.3833 H   0  0  0  0  0  0  0  0  0  0  0  0
   -1.5119   -0.3583    1.3966 H   0  0  0  0  0  0  0  0  0  0  0  0
   -5.7067   -2.9675    0.5919 H   0  0  0  0  0  0  0  0  0  0  0  0
   -6.1851   -1.4903    1.4542 H   0  0  0  0  0  0  0  0  0  0  0  0
   -6.1661   -1.5382   -0.3766 H   0  0  0  0  0  0  0  0  0  0  0  0
   -3.1356   -2.9111   -0.6058 H   0  0  0  0  0  0  0  0  0  0  0  0
   -3.8470   -3.4469    1.0108 H   0  0  0  0  0  0  0  0  0  0  0  0
   -2.3530   -2.4305    0.9966 H   0  0  0  0  0  0  0  0  0  0  0  0
   -5.4186   -0.6289   -2.2818 H   0  0  0  0  0  0  0  0  0  0  0  0
   -4.0215   -1.7346   -2.4520 H   0  0  0  0  0  0  0  0  0  0  0  0
    0.0186    0.8876    0.9671 H   0  0  0  0  0  0  0  0  0  0  0  0
  1  2  2  3
  2  3  1  0
  2  4  1  0
  4  5  2  0
  5  6  1  0
  6  7  1  0
  6  8  2  0
  8  9  1  0
  9 10  2  0
 10 11  1  0
 11 12  2  0
 11 13  1  0
 13 14  1  0
 14 15  2  0
 15 16  1  0
 16 17  2  0
 17 18  1  0
 17 19  1  0
 19 20  1  0
 20 21  1  1
 20 22  1  0
 22 23  1  0
 23 24  2  0
 23 25  2  0
 23 26  1  0
 26 27  1  0
 26 28  1  0
 26 29  1  0
 29 30  1  0
 29 31  2  0
 19 32  2  0
 10  4  1  0
 32 14  1  0
 31 20  1  0
  1 33  1  0
  1 34  1  0
  3 35  1  0
  3 36  1  0
  3 37  1  0
  5 38  1  0
  8 39  1  0
 13 40  1  0
 15 41  1  0
 16 42  1  0
 21 43  1  0
 21 44  1  0
 21 45  1  0
 22 46  1  0
 22 47  1  0
 27 48  1  0
 27 49  1  0
 27 50  1  0
 28 51  1  0
 28 52  1  0
 28 53  1  0
 30 54  1  0
 30 55  1  0
 32 56  1  0
M  END
$$$$
