@<TRIPOS>MOLECULE
*****
 56 58 0 0 0
SMALL
GASTEIGER

@<TRIPOS>ATOM
      1 C           3.0232   -2.1140   -0.0418 C.2     1  UNL1       -0.0951
      2 C           4.2834   -1.8757   -0.2092 C.2     1  UNL1       -0.0482
      3 C           5.1389   -3.0429   -0.7270 C.3     1  UNL1       -0.0396
      4 C           5.0192   -0.6364   -0.0615 C.ar    1  UNL1        0.0092
      5 C           6.4160   -0.7490    0.1815 C.ar    1  UNL1       -0.0323
      6 C           7.1796    0.3667    0.3682 C.ar    1  UNL1        0.0596
      7 CL          8.9178    0.2715    0.6727 Cl      1  UNL1       -0.0820
      8 C           6.5518    1.5897    0.3128 C.ar    1  UNL1        0.0468
      9 N           5.2397    1.6966    0.0810 N.ar    1  UNL1       -0.2483
     10 C           4.4370    0.5768   -0.1167 C.ar    1  UNL1        0.1331
     11 C           3.0848    0.8216   -0.5581 C.2     1  UNL1        0.2672
     12 O           2.5415    0.1146   -1.4317 O.2     1  UNL1       -0.2682
     13 N           2.2708    1.8767   -0.0388 N.am    1  UNL1       -0.2802
     14 C           0.9356    2.1349   -0.4603 C.ar    1  UNL1        0.0343
     15 C           0.7103    2.9970   -1.5166 C.ar    1  UNL1       -0.0377
     16 C          -0.5667    3.2695   -1.9505 C.ar    1  UNL1       -0.0243
     17 C          -1.6537    2.6880   -1.3406 C.ar    1  UNL1        0.1311
     18 F          -2.9359    2.9495   -1.7627 F       1  UNL1       -0.2050
     19 C          -1.4416    1.8162   -0.2737 C.ar    1  UNL1        0.0420
     20 C          -2.6480    1.2142    0.3553 C.3     1  UNL1        0.1959
     21 C          -3.5914    2.3153    0.8505 C.3     1  UNL1       -0.0112
     22 C          -2.2969    0.3977    1.5846 C.3     1  UNL1        0.1183
     23 S          -3.7623   -0.5426    1.9854 S.O2    1  UNL1       -0.0101
     24 O          -4.8945    0.3535    2.3704 O.2     1  UNL1       -0.1731
     25 O          -3.5002   -1.4684    3.1456 O.2     1  UNL1       -0.1731
     26 C          -4.2052   -1.4180    0.5167 C.3     1  UNL1        0.1831
     27 C          -5.6547   -1.8602    0.5615 C.3     1  UNL1       -0.0288
     28 C          -3.2924   -2.6499    0.4605 C.3     1  UNL1       -0.0288
     29 C          -3.9693   -0.5819   -0.6556 C.2     1  UNL1        0.3067
     30 N          -4.5264   -1.0210   -1.9164 N.pl3   1  UNL1       -0.2488
     31 N          -3.3280    0.4779   -0.6588 N.2     1  UNL1       -0.0727
     32 C          -0.1571    1.5588    0.1426 C.ar    1  UNL1       -0.0301
     33 H           2.6578   -3.1314   -0.2884 H       1  UNL1        0.0538
     34 H           2.2661   -1.4773    0.3572 H       1  UNL1        0.0538
     35 H           5.5706   -3.5774    0.1168 H       1  UNL1        0.0278
     36 H           5.9724   -2.6569   -1.3468 H       1  UNL1        0.0278
     37 H           4.4865   -3.6069   -1.3917 H       1  UNL1        0.0278
     38 H           6.8694   -1.7081    0.2198 H       1  UNL1        0.0639
     39 H           7.1911    2.4581    0.4692 H       1  UNL1        0.0844
     40 H           2.6940    2.4829    0.6896 H       1  UNL1        0.1552
     41 H           1.5740    3.4514   -1.9920 H       1  UNL1        0.0637
     42 H          -0.7630    3.9508   -2.7867 H       1  UNL1        0.0647
     43 H          -4.6357    2.0685    0.5692 H       1  UNL1        0.0279
     44 H          -3.5841    2.4046    1.9561 H       1  UNL1        0.0279
     45 H          -3.2717    3.3175    0.4744 H       1  UNL1        0.0279
     46 H          -2.0257    1.1161    2.3833 H       1  UNL1        0.0550
     47 H          -1.5119   -0.3583    1.3966 H       1  UNL1        0.0550
     48 H          -5.7067   -2.9675    0.5919 H       1  UNL1        0.0256
     49 H          -6.1851   -1.4903    1.4542 H       1  UNL1        0.0256
     50 H          -6.1661   -1.5382   -0.3766 H       1  UNL1        0.0256
     51 H          -3.1356   -2.9111   -0.6058 H       1  UNL1        0.0256
     52 H          -3.8470   -3.4469    1.0108 H       1  UNL1        0.0256
     53 H          -2.3530   -2.4305    0.9966 H       1  UNL1        0.0256
     54 H          -5.4186   -0.6289   -2.2818 H       1  UNL1        0.2881
     55 H          -4.0215   -1.7346   -2.4520 H       1  UNL1        0.2881
     56 H           0.0186    0.8876    0.9671 H       1  UNL1        0.0641
@<TRIPOS>BOND
     1     1     2    2
     2     2     3    1
     3     2     4    1
     4     4     5   ar
     5     5     6   ar
     6     6     7    1
     7     6     8   ar
     8     8     9   ar
     9     9    10   ar
    10    10    11    1
    11    11    12    2
    12    11    13   am
    13    13    14    1
    14    14    15   ar
    15    15    16   ar
    16    16    17   ar
    17    17    18    1
    18    17    19   ar
    19    19    20    1
    20    20    21    1
    21    20    22    1
    22    22    23    1
    23    23    24    2
    24    23    25    2
    25    23    26    1
    26    26    27    1
    27    26    28    1
    28    26    29    1
    29    29    30    1
    30    29    31    2
    31    19    32   ar
    32    10     4   ar
    33    32    14   ar
    34    31    20    1
    35     1    33    1
    36     1    34    1
    37     3    35    1
    38     3    36    1
    39     3    37    1
    40     5    38    1
    41     8    39    1
    42    13    40    1
    43    15    41    1
    44    16    42    1
    45    21    43    1
    46    21    44    1
    47    21    45    1
    48    22    46    1
    49    22    47    1
    50    27    48    1
    51    27    49    1
    52    27    50    1
    53    28    51    1
    54    28    52    1
    55    28    53    1
    56    30    54    1
    57    30    55    1
    58    32    56    1
