
     RDKit          3D

 55 58  0  0  0  0  0  0  0  0999 V2000
   -5.2305   -1.1436   -1.8674 C   0  0  0  0  0  0  0  0  0  0  0  0
   -4.3558   -0.2161   -1.0750 N   0  0  0  0  0  0  0  0  0  0  0  0
   -3.1347   -0.9554   -0.8948 C   0  0  0  0  0  0  0  0  0  0  0  0
   -1.9464   -0.2231   -0.3544 C   0  0  0  0  0  0  0  0  0  0  0  0
   -1.6729    0.8077   -1.2908 O   0  0  0  0  0  0  0  0  0  0  0  0
   -2.1260    0.4458    0.9543 C   0  0  0  0  0  0  0  0  0  0  0  0
   -0.9046    1.1587    1.4977 C   0  0  0  0  0  0  0  0  0  0  0  0
    0.2671    0.5038    0.9877 N   0  0  0  0  0  0  0  0  0  0  0  0
    1.4331    1.2189    0.6514 C   0  0  0  0  0  0  0  0  0  0  0  0
    2.6073    0.6535    0.3201 N   0  0  0  0  0  0  0  0  0  0  0  0
    3.7133    1.3054   -0.0189 C   0  0  0  0  0  0  0  0  0  0  0  0
    4.8739    0.7300   -0.3442 O   0  0  0  0  0  0  0  0  0  0  0  0
    5.2255   -0.5732   -0.3767 C   0  0  0  0  0  0  0  0  0  0  0  0
    4.4551   -1.6183    0.0736 C   0  0  0  0  0  0  0  0  0  0  0  0
    4.9485   -2.9065   -0.0258 C   0  0  0  0  0  0  0  0  0  0  0  0
    6.1898   -3.1503   -0.5656 C   0  0  0  0  0  0  0  0  0  0  0  0
    6.9818   -2.1239   -1.0236 C   0  0  0  0  0  0  0  0  0  0  0  0
    8.2048   -2.3369   -1.5638 F   0  0  0  0  0  0  0  0  0  0  0  0
    6.4988   -0.8416   -0.9282 C   0  0  0  0  0  0  0  0  0  0  0  0
    3.6611    2.7105   -0.0363 C   0  0  0  0  0  0  0  0  0  0  0  0
    2.4845    3.3317    0.2948 C   0  0  0  0  0  0  0  0  0  0  0  0
    2.3951    4.8428    0.2878 C   0  0  0  0  0  0  0  0  0  0  0  0
    1.0614    5.1922    0.1267 F   0  0  0  0  0  0  0  0  0  0  0  0
    2.9335    5.3331    1.4421 F   0  0  0  0  0  0  0  0  0  0  0  0
    3.1012    5.2790   -0.8048 F   0  0  0  0  0  0  0  0  0  0  0  0
    1.4167    2.5922    0.6251 N   0  0  0  0  0  0  0  0  0  0  0  0
    0.1683   -0.9170    0.8228 C   0  0  0  0  0  0  0  0  0  0  0  0
   -0.7428   -1.1361   -0.3592 C   0  0  0  0  0  0  0  0  0  0  0  0
   -5.0622    0.0491    0.1840 C   0  0  0  0  0  0  0  0  0  0  0  0
   -5.2730   -1.0726    1.0930 C   0  0  0  0  0  0  0  0  0  0  0  0
   -6.4390   -0.5888    0.3491 C   0  0  0  0  0  0  0  0  0  0  0  0
   -4.5921   -1.4535   -2.7503 H   0  0  0  0  0  0  0  0  0  0  0  0
   -5.3785   -2.0422   -1.2753 H   0  0  0  0  0  0  0  0  0  0  0  0
   -6.0957   -0.6343   -2.2712 H   0  0  0  0  0  0  0  0  0  0  0  0
   -2.8328   -1.2977   -1.9381 H   0  0  0  0  0  0  0  0  0  0  0  0
   -3.2899   -1.9267   -0.3444 H   0  0  0  0  0  0  0  0  0  0  0  0
   -2.4915    1.3510   -1.3953 H   0  0  0  0  0  0  0  0  0  0  0  0
   -2.5887   -0.1317    1.7571 H   0  0  0  0  0  0  0  0  0  0  0  0
   -2.9001    1.2760    0.7481 H   0  0  0  0  0  0  0  0  0  0  0  0
   -0.9301    1.1331    2.6060 H   0  0  0  0  0  0  0  0  0  0  0  0
   -0.9586    2.2250    1.1848 H   0  0  0  0  0  0  0  0  0  0  0  0
    3.4784   -1.4802    0.5072 H   0  0  0  0  0  0  0  0  0  0  0  0
    4.3290   -3.7302    0.3396 H   0  0  0  0  0  0  0  0  0  0  0  0
    6.5486   -4.1817   -0.6296 H   0  0  0  0  0  0  0  0  0  0  0  0
    7.0767   -0.0084   -1.2698 H   0  0  0  0  0  0  0  0  0  0  0  0
    4.5362    3.3095   -0.3078 H   0  0  0  0  0  0  0  0  0  0  0  0
    1.1553   -1.3209    0.6045 H   0  0  0  0  0  0  0  0  0  0  0  0
   -0.2817   -1.3916    1.7438 H   0  0  0  0  0  0  0  0  0  0  0  0
   -0.1371   -0.9212   -1.2736 H   0  0  0  0  0  0  0  0  0  0  0  0
   -1.0633   -2.2129   -0.4344 H   0  0  0  0  0  0  0  0  0  0  0  0
   -5.1086    1.1153    0.4354 H   0  0  0  0  0  0  0  0  0  0  0  0
   -4.9104   -2.0805    0.8159 H   0  0  0  0  0  0  0  0  0  0  0  0
   -5.1872   -0.8609    2.1836 H   0  0  0  0  0  0  0  0  0  0  0  0
   -6.9202   -1.0613   -0.4955 H   0  0  0  0  0  0  0  0  0  0  0  0
   -7.1903   -0.0250    0.9854 H   0  0  0  0  0  0  0  0  0  0  0  0
  1  2  1  0
  2  3  1  0
  3  4  1  0
  4  5  1  0
  4  6  1  0
  6  7  1  0
  7  8  1  0
  8  9  1  0
  9 10  2  0
 10 11  1  0
 11 12  1  0
 12 13  1  0
 13 14  2  0
 14 15  1  0
 15 16  2  0
 16 17  1  0
 17 18  1  0
 17 19  2  0
 11 20  2  0
 20 21  1  0
 21 22  1  0
 22 23  1  0
 22 24  1  0
 22 25  1  0
 21 26  2  0
  8 27  1  0
 27 28  1  0
  2 29  1  0
 29 30  1  0
 30 31  1  0
 28  4  1  0
 31 29  1  0
 26  9  1  0
 19 13  1  0
  1 32  1  0
  1 33  1  0
  1 34  1  0
  3 35  1  0
  3 36  1  0
  5 37  1  0
  6 38  1  0
  6 39  1  0
  7 40  1  0
  7 41  1  0
 14 42  1  0
 15 43  1  0
 16 44  1  0
 19 45  1  0
 20 46  1  0
 27 47  1  0
 27 48  1  0
 28 49  1  0
 28 50  1  0
 29 51  1  0
 30 52  1  0
 30 53  1  0
 31 54  1  0
 31 55  1  0
M  END
$$$$
