@<TRIPOS>MOLECULE
*****
 55 58 0 0 0
SMALL
GASTEIGER

@<TRIPOS>ATOM
      1 C          -5.2305   -1.1436   -1.8674 C.3     1  UNL1       -0.0124
      2 N          -4.3558   -0.2161   -1.0750 N.3     1  UNL1       -0.2997
      3 C          -3.1347   -0.9554   -0.8948 C.3     1  UNL1        0.0279
      4 C          -1.9464   -0.2231   -0.3544 C.3     1  UNL1        0.0816
      5 O          -1.6729    0.8077   -1.2908 O.3     1  UNL1       -0.3872
      6 C          -2.1260    0.4458    0.9543 C.3     1  UNL1       -0.0069
      7 C          -0.9046    1.1587    1.4977 C.3     1  UNL1        0.0175
      8 N           0.2671    0.5038    0.9877 N.pl3   1  UNL1       -0.2994
      9 C           1.4331    1.2189    0.6514 C.ar    1  UNL1        0.2214
     10 N           2.6073    0.6535    0.3201 N.ar    1  UNL1       -0.1790
     11 C           3.7133    1.3054   -0.0189 C.ar    1  UNL1        0.2254
     12 O           4.8739    0.7300   -0.3442 O.3     1  UNL1       -0.4378
     13 C           5.2255   -0.5732   -0.3767 C.ar    1  UNL1        0.1331
     14 C           4.4551   -1.6183    0.0736 C.ar    1  UNL1       -0.0191
     15 C           4.9485   -2.9065   -0.0258 C.ar    1  UNL1       -0.0556
     16 C           6.1898   -3.1503   -0.5656 C.ar    1  UNL1       -0.0262
     17 C           6.9818   -2.1239   -1.0236 C.ar    1  UNL1        0.1269
     18 F           8.2048   -2.3369   -1.5638 F       1  UNL1       -0.2054
     19 C           6.4988   -0.8416   -0.9282 C.ar    1  UNL1        0.0160
     20 C           3.6611    2.7105   -0.0363 C.ar    1  UNL1        0.0305
     21 C           2.4845    3.3317    0.2948 C.ar    1  UNL1        0.1522
     22 C           2.3951    4.8428    0.2878 C.3     1  UNL1        0.4345
     23 F           1.0614    5.1922    0.1267 F       1  UNL1       -0.1644
     24 F           2.9335    5.3331    1.4421 F       1  UNL1       -0.1644
     25 F           3.1012    5.2790   -0.8048 F       1  UNL1       -0.1644
     26 N           1.4167    2.5922    0.6251 N.ar    1  UNL1       -0.2101
     27 C           0.1683   -0.9170    0.8228 C.3     1  UNL1        0.0175
     28 C          -0.7428   -1.1361   -0.3592 C.3     1  UNL1       -0.0069
     29 C          -5.0622    0.0491    0.1840 C.3     1  UNL1        0.0103
     30 C          -5.2730   -1.0726    1.0930 C.3     1  UNL1       -0.0359
     31 C          -6.4390   -0.5888    0.3491 C.3     1  UNL1       -0.0359
     32 H          -4.5921   -1.4535   -2.7503 H       1  UNL1        0.0391
     33 H          -5.3785   -2.0422   -1.2753 H       1  UNL1        0.0391
     34 H          -6.0957   -0.6343   -2.2712 H       1  UNL1        0.0391
     35 H          -2.8328   -1.2977   -1.9381 H       1  UNL1        0.0455
     36 H          -3.2899   -1.9267   -0.3444 H       1  UNL1        0.0455
     37 H          -2.4915    1.3510   -1.3953 H       1  UNL1        0.2102
     38 H          -2.5887   -0.1317    1.7571 H       1  UNL1        0.0308
     39 H          -2.9001    1.2760    0.7481 H       1  UNL1        0.0308
     40 H          -0.9301    1.1331    2.6060 H       1  UNL1        0.0465
     41 H          -0.9586    2.2250    1.1848 H       1  UNL1        0.0465
     42 H           3.4784   -1.4802    0.5072 H       1  UNL1        0.0654
     43 H           4.3290   -3.7302    0.3396 H       1  UNL1        0.0620
     44 H           6.5486   -4.1817   -0.6296 H       1  UNL1        0.0646
     45 H           7.0767   -0.0084   -1.2698 H       1  UNL1        0.0683
     46 H           4.5362    3.3095   -0.3078 H       1  UNL1        0.0692
     47 H           1.1553   -1.3209    0.6045 H       1  UNL1        0.0465
     48 H          -0.2817   -1.3916    1.7438 H       1  UNL1        0.0465
     49 H          -0.1371   -0.9212   -1.2736 H       1  UNL1        0.0308
     50 H          -1.0633   -2.2129   -0.4344 H       1  UNL1        0.0308
     51 H          -5.1086    1.1153    0.4354 H       1  UNL1        0.0462
     52 H          -4.9104   -2.0805    0.8159 H       1  UNL1        0.0281
     53 H          -5.1872   -0.8609    2.1836 H       1  UNL1        0.0281
     54 H          -6.9202   -1.0613   -0.4955 H       1  UNL1        0.0281
     55 H          -7.1903   -0.0250    0.9854 H       1  UNL1        0.0281
@<TRIPOS>BOND
     1     1     2    1
     2     2     3    1
     3     3     4    1
     4     4     5    1
     5     4     6    1
     6     6     7    1
     7     7     8    1
     8     8     9    1
     9     9    10   ar
    10    10    11   ar
    11    11    12    1
    12    12    13    1
    13    13    14   ar
    14    14    15   ar
    15    15    16   ar
    16    16    17   ar
    17    17    18    1
    18    17    19   ar
    19    11    20   ar
    20    20    21   ar
    21    21    22    1
    22    22    23    1
    23    22    24    1
    24    22    25    1
    25    21    26   ar
    26     8    27    1
    27    27    28    1
    28     2    29    1
    29    29    30    1
    30    30    31    1
    31    28     4    1
    32    31    29    1
    33    26     9   ar
    34    19    13   ar
    35     1    32    1
    36     1    33    1
    37     1    34    1
    38     3    35    1
    39     3    36    1
    40     5    37    1
    41     6    38    1
    42     6    39    1
    43     7    40    1
    44     7    41    1
    45    14    42    1
    46    15    43    1
    47    16    44    1
    48    19    45    1
    49    20    46    1
    50    27    47    1
    51    27    48    1
    52    28    49    1
    53    28    50    1
    54    29    51    1
    55    30    52    1
    56    30    53    1
    57    31    54    1
    58    31    55    1
