
     RDKit          3D

 39 40  0  0  0  0  0  0  0  0999 V2000
   -5.2183   -1.4936   -1.8381 C   0  0  0  0  0  0  0  0  0  0  0  0
   -4.7293   -0.5274   -0.9387 O   0  0  0  0  0  0  0  0  0  0  0  0
   -3.3804   -0.4454   -0.6215 C   0  0  0  0  0  0  0  0  0  0  0  0
   -2.5206   -1.3490   -1.2200 C   0  0  0  0  0  0  0  0  0  0  0  0
   -1.1744   -1.3415   -0.9638 C   0  0  0  0  0  0  0  0  0  0  0  0
   -0.6445   -0.3831   -0.0613 C   0  0  0  0  0  0  0  0  0  0  0  0
    0.7826   -0.4319    0.1547 C   0  0  0  0  0  0  0  0  0  0  0  0
    1.5267    0.1470    1.0356 C   0  0  0  0  0  0  0  0  0  0  0  0
    2.9500    0.1135    1.2707 C   0  0  0  0  0  0  0  0  0  0  0  0
    3.3579    0.9072    2.2371 O   0  0  0  0  0  0  0  0  0  0  0  0
    4.0150   -0.6181    0.6520 C   0  0  0  0  0  0  0  0  0  0  0  0
    5.3393   -0.1928    0.8715 C   0  0  0  0  0  0  0  0  0  0  0  0
    6.4348   -0.8473    0.3801 C   0  0  0  0  0  0  0  0  0  0  0  0
    6.2605   -1.9833   -0.3710 C   0  0  0  0  0  0  0  0  0  0  0  0
    5.0108   -2.3998   -0.5873 N   0  0  0  0  0  0  0  0  0  0  0  0
    3.9073   -1.7550   -0.1009 C   0  0  0  0  0  0  0  0  0  0  0  0
   -1.4792    0.5092    0.5284 C   0  0  0  0  0  0  0  0  0  0  0  0
   -1.0274    1.4696    1.3990 O   0  0  0  0  0  0  0  0  0  0  0  0
   -0.6799    2.7871    0.9780 C   0  0  0  0  0  0  0  0  0  0  0  0
   -2.8707    0.4793    0.2470 C   0  0  0  0  0  0  0  0  0  0  0  0
   -3.6905    1.3896    0.8584 O   0  0  0  0  0  0  0  0  0  0  0  0
   -3.9757    2.6495    0.2905 C   0  0  0  0  0  0  0  0  0  0  0  0
   -4.9010   -2.4841   -1.4587 H   0  0  0  0  0  0  0  0  0  0  0  0
   -6.2923   -1.3948   -1.9799 H   0  0  0  0  0  0  0  0  0  0  0  0
   -4.6661   -1.3446   -2.7983 H   0  0  0  0  0  0  0  0  0  0  0  0
   -2.9536   -2.0840   -1.9170 H   0  0  0  0  0  0  0  0  0  0  0  0
   -0.5513   -2.0420   -1.4335 H   0  0  0  0  0  0  0  0  0  0  0  0
    1.3343   -1.0307   -0.5949 H   0  0  0  0  0  0  0  0  0  0  0  0
    0.9501    0.7532    1.7748 H   0  0  0  0  0  0  0  0  0  0  0  0
    5.4634    0.7168    1.4665 H   0  0  0  0  0  0  0  0  0  0  0  0
    7.4485   -0.4829    0.5741 H   0  0  0  0  0  0  0  0  0  0  0  0
    7.1110   -2.5176   -0.7709 H   0  0  0  0  0  0  0  0  0  0  0  0
    2.9385   -2.1957   -0.2971 H   0  0  0  0  0  0  0  0  0  0  0  0
   -0.7432    2.9196   -0.1007 H   0  0  0  0  0  0  0  0  0  0  0  0
    0.3116    3.0461    1.4104 H   0  0  0  0  0  0  0  0  0  0  0  0
   -1.4125    3.4732    1.4549 H   0  0  0  0  0  0  0  0  0  0  0  0
   -3.9454    3.4453    1.0874 H   0  0  0  0  0  0  0  0  0  0  0  0
   -3.2678    2.9209   -0.5076 H   0  0  0  0  0  0  0  0  0  0  0  0
   -5.0182    2.6971   -0.1101 H   0  0  0  0  0  0  0  0  0  0  0  0
  1  2  1  0
  2  3  1  0
  3  4  2  0
  4  5  1  0
  5  6  2  0
  6  7  1  0
  7  8  2  0
  8  9  1  0
  9 10  2  0
  9 11  1  0
 11 12  2  0
 12 13  1  0
 13 14  2  0
 14 15  1  0
 15 16  2  0
  6 17  1  0
 17 18  1  0
 18 19  1  0
 17 20  2  0
 20 21  1  0
 21 22  1  0
 20  3  1  0
 16 11  1  0
  1 23  1  0
  1 24  1  0
  1 25  1  0
  4 26  1  0
  5 27  1  0
  7 28  1  0
  8 29  1  0
 12 30  1  0
 13 31  1  0
 14 32  1  0
 16 33  1  0
 19 34  1  0
 19 35  1  0
 19 36  1  0
 22 37  1  0
 22 38  1  0
 22 39  1  0
M  END
$$$$
