@<TRIPOS>MOLECULE
*****
 39 40 0 0 0
SMALL
GASTEIGER

@<TRIPOS>ATOM
      1 C          -5.2183   -1.4936   -1.8381 C.3     1  UNL1        0.0790
      2 O          -4.7293   -0.5274   -0.9387 O.3     1  UNL1       -0.4913
      3 C          -3.3804   -0.4454   -0.6215 C.ar    1  UNL1        0.1652
      4 C          -2.5206   -1.3490   -1.2200 C.ar    1  UNL1       -0.0155
      5 C          -1.1744   -1.3415   -0.9638 C.ar    1  UNL1       -0.0474
      6 C          -0.6445   -0.3831   -0.0613 C.ar    1  UNL1        0.0207
      7 C           0.7826   -0.4319    0.1547 C.2     1  UNL1       -0.0473
      8 C           1.5267    0.1470    1.0356 C.2     1  UNL1       -0.0136
      9 C           2.9500    0.1135    1.2707 C.2     1  UNL1        0.1875
     10 O           3.3579    0.9072    2.2371 O.2     1  UNL1       -0.2872
     11 C           4.0150   -0.6181    0.6520 C.ar    1  UNL1        0.0397
     12 C           5.3393   -0.1928    0.8715 C.ar    1  UNL1       -0.0480
     13 C           6.4348   -0.8473    0.3801 C.ar    1  UNL1       -0.0429
     14 C           6.2605   -1.9833   -0.3710 C.ar    1  UNL1        0.0276
     15 N           5.0108   -2.3998   -0.5873 N.ar    1  UNL1       -0.2626
     16 C           3.9073   -1.7550   -0.1009 C.ar    1  UNL1        0.0383
     17 C          -1.4792    0.5092    0.5284 C.ar    1  UNL1        0.1723
     18 O          -1.0274    1.4696    1.3990 O.3     1  UNL1       -0.4907
     19 C          -0.6799    2.7871    0.9780 C.3     1  UNL1        0.0790
     20 C          -2.8707    0.4793    0.2470 C.ar    1  UNL1        0.2041
     21 O          -3.6905    1.3896    0.8584 O.3     1  UNL1       -0.4885
     22 C          -3.9757    2.6495    0.2905 C.3     1  UNL1        0.0791
     23 H          -4.9010   -2.4841   -1.4587 H       1  UNL1        0.0660
     24 H          -6.2923   -1.3948   -1.9799 H       1  UNL1        0.0660
     25 H          -4.6661   -1.3446   -2.7983 H       1  UNL1        0.0660
     26 H          -2.9536   -2.0840   -1.9170 H       1  UNL1        0.0655
     27 H          -0.5513   -2.0420   -1.4335 H       1  UNL1        0.0626
     28 H           1.3343   -1.0307   -0.5949 H       1  UNL1        0.0626
     29 H           0.9501    0.7532    1.7748 H       1  UNL1        0.0656
     30 H           5.4634    0.7168    1.4665 H       1  UNL1        0.0626
     31 H           7.4485   -0.4829    0.5741 H       1  UNL1        0.0633
     32 H           7.1110   -2.5176   -0.7709 H       1  UNL1        0.0829
     33 H           2.9385   -2.1957   -0.2971 H       1  UNL1        0.0837
     34 H          -0.7432    2.9196   -0.1007 H       1  UNL1        0.0660
     35 H           0.3116    3.0461    1.4104 H       1  UNL1        0.0660
     36 H          -1.4125    3.4732    1.4549 H       1  UNL1        0.0660
     37 H          -3.9454    3.4453    1.0874 H       1  UNL1        0.0660
     38 H          -3.2678    2.9209   -0.5076 H       1  UNL1        0.0660
     39 H          -5.0182    2.6971   -0.1101 H       1  UNL1        0.0660
@<TRIPOS>BOND
     1     1     2    1
     2     2     3    1
     3     3     4   ar
     4     4     5   ar
     5     5     6   ar
     6     6     7    1
     7     7     8    2
     8     8     9    1
     9     9    10    2
    10     9    11    1
    11    11    12   ar
    12    12    13   ar
    13    13    14   ar
    14    14    15   ar
    15    15    16   ar
    16     6    17   ar
    17    17    18    1
    18    18    19    1
    19    17    20   ar
    20    20    21    1
    21    21    22    1
    22    20     3   ar
    23    16    11   ar
    24     1    23    1
    25     1    24    1
    26     1    25    1
    27     4    26    1
    28     5    27    1
    29     7    28    1
    30     8    29    1
    31    12    30    1
    32    13    31    1
    33    14    32    1
    34    16    33    1
    35    19    34    1
    36    19    35    1
    37    19    36    1
    38    22    37    1
    39    22    38    1
    40    22    39    1
