
     RDKit          3D

 71 76  0  0  0  0  0  0  0  0999 V2000
   -3.0421    7.1128   -0.6286 C   0  0  0  0  0  0  0  0  0  0  0  0
   -2.4139    5.9152   -0.9811 O   0  0  0  0  0  0  0  0  0  0  0  0
   -1.9152    5.0622   -0.0109 C   0  0  0  0  0  0  0  0  0  0  0  0
   -1.2892    3.8735   -0.3040 C   0  0  0  0  0  0  0  0  0  0  0  0
   -0.7973    3.0349    0.6810 C   0  0  0  0  0  0  0  0  0  0  0  0
   -0.1648    1.8294    0.3017 N   0  0  0  0  0  0  0  0  0  0  0  0
    1.2523    1.7308    0.0407 C   0  0  0  0  0  0  0  0  0  0  0  0
    1.9895    2.7324   -0.1855 O   0  0  0  0  0  0  0  0  0  0  0  0
    1.6224    0.3632    0.0874 N   0  0  0  0  0  0  0  0  0  0  0  0
    2.9223   -0.1778   -0.1089 C   0  0  0  0  0  0  0  0  0  0  0  0
    4.0154    0.6247   -0.3119 C   0  0  0  0  0  0  0  0  0  0  0  0
    5.2524    0.0290   -0.5078 C   0  0  0  0  0  0  0  0  0  0  0  0
    5.4188   -1.3388   -0.5053 C   0  0  0  0  0  0  0  0  0  0  0  0
    6.7550   -1.8933   -0.7181 C   0  0  0  0  0  0  0  0  0  0  0  0
    7.1525   -3.0814   -0.1474 C   0  0  0  0  0  0  0  0  0  0  0  0
    8.4221   -3.6042   -0.3494 C   0  0  0  0  0  0  0  0  0  0  0  0
    9.2934   -2.8972   -1.1476 C   0  0  0  0  0  0  0  0  0  0  0  0
   10.6232   -3.4133   -1.3755 C   0  0  0  0  0  0  0  0  0  0  0  0
   11.6886   -3.8073   -1.5482 N   0  0  0  0  0  0  0  0  0  0  0  0
    8.9251   -1.6967   -1.7385 C   0  0  0  0  0  0  0  0  0  0  0  0
    7.6710   -1.2239   -1.5119 C   0  0  0  0  0  0  0  0  0  0  0  0
    4.3454   -2.1455   -0.3057 C   0  0  0  0  0  0  0  0  0  0  0  0
    3.0968   -1.5612   -0.1076 C   0  0  0  0  0  0  0  0  0  0  0  0
    0.4282   -0.3440    0.3762 C   0  0  0  0  0  0  0  0  0  0  0  0
    0.3127   -1.5040    0.7922 O   0  0  0  0  0  0  0  0  0  0  0  0
   -0.7475    0.5313    0.1042 C   0  0  0  0  0  0  0  0  0  0  0  0
   -1.2216    0.2688   -1.2827 C   0  0  0  0  0  0  0  0  0  0  0  0
   -2.7164    0.3995   -1.4465 C   0  0  0  0  0  0  0  0  0  0  0  0
   -3.4660   -0.3782   -0.5152 N   0  0  0  0  0  0  0  0  0  0  0  0
   -4.1912   -1.4393   -1.1398 C   0  0  0  0  0  0  0  0  0  0  0  0
   -4.9775   -2.2664   -0.2232 C   0  0  0  0  0  0  0  0  0  0  0  0
   -4.5720   -3.5142    0.1477 N   0  0  0  0  0  0  0  0  0  0  0  0
   -5.3217   -4.2454    0.9895 C   0  0  0  0  0  0  0  0  0  0  0  0
   -6.5144   -3.8066    1.5234 C   0  0  0  0  0  0  0  0  0  0  0  0
   -6.9481   -2.5490    1.1654 C   0  0  0  0  0  0  0  0  0  0  0  0
   -6.1684   -1.7925    0.2918 C   0  0  0  0  0  0  0  0  0  0  0  0
   -6.6002   -0.4298   -0.1214 C   0  0  0  0  0  0  0  0  0  0  0  0
   -2.6778   -0.8704    0.5929 C   0  0  0  0  0  0  0  0  0  0  0  0
   -1.8065    0.2499    1.1273 C   0  0  0  0  0  0  0  0  0  0  0  0
   -0.9517    3.4222    1.9554 N   0  0  0  0  0  0  0  0  0  0  0  0
   -1.5627    4.5838    2.2604 C   0  0  0  0  0  0  0  0  0  0  0  0
   -2.0371    5.3917    1.3000 N   0  0  0  0  0  0  0  0  0  0  0  0
   -2.8160    7.3443    0.4293 H   0  0  0  0  0  0  0  0  0  0  0  0
   -2.6749    7.9222   -1.3120 H   0  0  0  0  0  0  0  0  0  0  0  0
   -4.1453    6.9900   -0.7847 H   0  0  0  0  0  0  0  0  0  0  0  0
   -1.1806    3.5902   -1.3364 H   0  0  0  0  0  0  0  0  0  0  0  0
    3.9333    1.6860   -0.3206 H   0  0  0  0  0  0  0  0  0  0  0  0
    6.0975    0.6747   -0.6647 H   0  0  0  0  0  0  0  0  0  0  0  0
    6.4718   -3.6500    0.4871 H   0  0  0  0  0  0  0  0  0  0  0  0
    8.7131   -4.5552    0.1194 H   0  0  0  0  0  0  0  0  0  0  0  0
    9.6280   -1.1617   -2.3607 H   0  0  0  0  0  0  0  0  0  0  0  0
    7.4032   -0.2791   -1.9865 H   0  0  0  0  0  0  0  0  0  0  0  0
    4.4451   -3.2050   -0.2989 H   0  0  0  0  0  0  0  0  0  0  0  0
    2.2752   -2.2418    0.0423 H   0  0  0  0  0  0  0  0  0  0  0  0
   -0.7506    0.9943   -1.9814 H   0  0  0  0  0  0  0  0  0  0  0  0
   -0.9159   -0.7437   -1.6617 H   0  0  0  0  0  0  0  0  0  0  0  0
   -3.0528    1.4567   -1.4688 H   0  0  0  0  0  0  0  0  0  0  0  0
   -2.9484    0.0018   -2.4781 H   0  0  0  0  0  0  0  0  0  0  0  0
   -3.4410   -2.1108   -1.6302 H   0  0  0  0  0  0  0  0  0  0  0  0
   -4.7984   -1.0200   -1.9676 H   0  0  0  0  0  0  0  0  0  0  0  0
   -4.9953   -5.2512    1.2893 H   0  0  0  0  0  0  0  0  0  0  0  0
   -7.1259   -4.3758    2.1957 H   0  0  0  0  0  0  0  0  0  0  0  0
   -7.8834   -2.1490    1.5559 H   0  0  0  0  0  0  0  0  0  0  0  0
   -6.0367    0.3552    0.4454 H   0  0  0  0  0  0  0  0  0  0  0  0
   -7.6647   -0.2986    0.2010 H   0  0  0  0  0  0  0  0  0  0  0  0
   -6.5793   -0.2800   -1.2000 H   0  0  0  0  0  0  0  0  0  0  0  0
   -2.1226   -1.7803    0.3576 H   0  0  0  0  0  0  0  0  0  0  0  0
   -3.3869   -1.1262    1.4105 H   0  0  0  0  0  0  0  0  0  0  0  0
   -2.4876    1.1409    1.2357 H   0  0  0  0  0  0  0  0  0  0  0  0
   -1.3408   -0.0310    2.0916 H   0  0  0  0  0  0  0  0  0  0  0  0
   -1.7042    4.9284    3.2849 H   0  0  0  0  0  0  0  0  0  0  0  0
  1  2  1  0
  2  3  1  0
  3  4  2  0
  4  5  1  0
  5  6  1  0
  6  7  1  0
  7  8  2  0
  7  9  1  0
  9 10  1  0
 10 11  2  0
 11 12  1  0
 12 13  2  0
 13 14  1  0
 14 15  2  0
 15 16  1  0
 16 17  2  0
 17 18  1  0
 18 19  3  0
 17 20  1  0
 20 21  2  0
 13 22  1  0
 22 23  2  0
  9 24  1  0
 24 25  2  0
 24 26  1  0
 26 27  1  0
 27 28  1  0
 28 29  1  0
 29 30  1  0
 30 31  1  0
 31 32  2  0
 32 33  1  0
 33 34  2  0
 34 35  1  0
 35 36  2  0
 36 37  1  0
 29 38  1  0
 38 39  1  0
  5 40  2  0
 40 41  1  0
 41 42  2  0
 42  3  1  0
 26  6  1  0
 36 31  1  0
 23 10  1  0
 39 26  1  0
 21 14  1  0
  1 43  1  0
  1 44  1  0
  1 45  1  0
  4 46  1  0
 11 47  1  0
 12 48  1  0
 15 49  1  0
 16 50  1  0
 20 51  1  0
 21 52  1  0
 22 53  1  0
 23 54  1  0
 27 55  1  0
 27 56  1  0
 28 57  1  0
 28 58  1  0
 30 59  1  0
 30 60  1  0
 33 61  1  0
 34 62  1  0
 35 63  1  0
 37 64  1  0
 37 65  1  0
 37 66  1  0
 38 67  1  0
 38 68  1  0
 39 69  1  0
 39 70  1  0
 41 71  1  0
M  END
$$$$
