@<TRIPOS>MOLECULE
*****
 71 76 0 0 0
SMALL
GASTEIGER

@<TRIPOS>ATOM
      1 C          -3.0421    7.1128   -0.6286 C.3     1  UNL1        0.0804
      2 O          -2.4139    5.9152   -0.9811 O.3     1  UNL1       -0.4795
      3 C          -1.9152    5.0622   -0.0109 C.ar    1  UNL1        0.2191
      4 C          -1.2892    3.8735   -0.3040 C.ar    1  UNL1        0.0404
      5 C          -0.7973    3.0349    0.6810 C.ar    1  UNL1        0.1364
      6 N          -0.1648    1.8294    0.3017 N.am    1  UNL1       -0.2240
      7 C           1.2523    1.7308    0.0407 C.2     1  UNL1        0.3219
      8 O           1.9895    2.7324   -0.1855 O.2     1  UNL1       -0.2512
      9 N           1.6224    0.3632    0.0874 N.am    1  UNL1       -0.1920
     10 C           2.9223   -0.1778   -0.1089 C.ar    1  UNL1        0.0455
     11 C           4.0154    0.6247   -0.3119 C.ar    1  UNL1       -0.0392
     12 C           5.2524    0.0290   -0.5078 C.ar    1  UNL1       -0.0523
     13 C           5.4188   -1.3388   -0.5053 C.ar    1  UNL1       -0.0178
     14 C           6.7550   -1.8933   -0.7181 C.ar    1  UNL1       -0.0178
     15 C           7.1525   -3.0814   -0.1474 C.ar    1  UNL1       -0.0528
     16 C           8.4221   -3.6042   -0.3494 C.ar    1  UNL1       -0.0438
     17 C           9.2934   -2.8972   -1.1476 C.ar    1  UNL1        0.0518
     18 C          10.6232   -3.4133   -1.3755 C.1     1  UNL1        0.0992
     19 N          11.6886   -3.8073   -1.5482 N.1     1  UNL1       -0.1909
     20 C           8.9251   -1.6967   -1.7385 C.ar    1  UNL1       -0.0438
     21 C           7.6710   -1.2239   -1.5119 C.ar    1  UNL1       -0.0528
     22 C           4.3454   -2.1455   -0.3057 C.ar    1  UNL1       -0.0523
     23 C           3.0968   -1.5612   -0.1076 C.ar    1  UNL1       -0.0392
     24 C           0.4282   -0.3440    0.3762 C.2     1  UNL1        0.2516
     25 O           0.3127   -1.5040    0.7922 O.2     1  UNL1       -0.2724
     26 C          -0.7475    0.5313    0.1042 C.3     1  UNL1        0.1240
     27 C          -1.2216    0.2688   -1.2827 C.3     1  UNL1       -0.0095
     28 C          -2.7164    0.3995   -1.4465 C.3     1  UNL1        0.0017
     29 N          -3.4660   -0.3782   -0.5152 N.3     1  UNL1       -0.2965
     30 C          -4.1912   -1.4393   -1.1398 C.3     1  UNL1        0.0415
     31 C          -4.9775   -2.2664   -0.2232 C.ar    1  UNL1        0.0581
     32 N          -4.5720   -3.5142    0.1477 N.ar    1  UNL1       -0.2583
     33 C          -5.3217   -4.2454    0.9895 C.ar    1  UNL1        0.0279
     34 C          -6.5144   -3.8066    1.5234 C.ar    1  UNL1       -0.0433
     35 C          -6.9481   -2.5490    1.1654 C.ar    1  UNL1       -0.0557
     36 C          -6.1684   -1.7925    0.2918 C.ar    1  UNL1       -0.0279
     37 C          -6.6002   -0.4298   -0.1214 C.3     1  UNL1       -0.0380
     38 C          -2.6778   -0.8704    0.5929 C.3     1  UNL1        0.0017
     39 C          -1.8065    0.2499    1.1273 C.3     1  UNL1       -0.0095
     40 N          -0.9517    3.4222    1.9554 N.ar    1  UNL1       -0.2200
     41 C          -1.5627    4.5838    2.2604 C.ar    1  UNL1        0.1219
     42 N          -2.0371    5.3917    1.3000 N.ar    1  UNL1       -0.2013
     43 H          -2.8160    7.3443    0.4293 H       1  UNL1        0.0660
     44 H          -2.6749    7.9222   -1.3120 H       1  UNL1        0.0660
     45 H          -4.1453    6.9900   -0.7847 H       1  UNL1        0.0660
     46 H          -1.1806    3.5902   -1.3364 H       1  UNL1        0.0705
     47 H           3.9333    1.6860   -0.3206 H       1  UNL1        0.0636
     48 H           6.0975    0.6747   -0.6647 H       1  UNL1        0.0624
     49 H           6.4718   -3.6500    0.4871 H       1  UNL1        0.0624
     50 H           8.7131   -4.5552    0.1194 H       1  UNL1        0.0631
     51 H           9.6280   -1.1617   -2.3607 H       1  UNL1        0.0631
     52 H           7.4032   -0.2791   -1.9865 H       1  UNL1        0.0624
     53 H           4.4451   -3.2050   -0.2989 H       1  UNL1        0.0624
     54 H           2.2752   -2.2418    0.0423 H       1  UNL1        0.0636
     55 H          -0.7506    0.9943   -1.9814 H       1  UNL1        0.0303
     56 H          -0.9159   -0.7437   -1.6617 H       1  UNL1        0.0303
     57 H          -3.0528    1.4567   -1.4688 H       1  UNL1        0.0427
     58 H          -2.9484    0.0018   -2.4781 H       1  UNL1        0.0427
     59 H          -3.4410   -2.1108   -1.6302 H       1  UNL1        0.0491
     60 H          -4.7984   -1.0200   -1.9676 H       1  UNL1        0.0491
     61 H          -4.9953   -5.2512    1.2893 H       1  UNL1        0.0829
     62 H          -7.1259   -4.3758    2.1957 H       1  UNL1        0.0633
     63 H          -7.8834   -2.1490    1.5559 H       1  UNL1        0.0621
     64 H          -6.0367    0.3552    0.4454 H       1  UNL1        0.0278
     65 H          -7.6647   -0.2986    0.2010 H       1  UNL1        0.0278
     66 H          -6.5793   -0.2800   -1.2000 H       1  UNL1        0.0278
     67 H          -2.1226   -1.7803    0.3576 H       1  UNL1        0.0427
     68 H          -3.3869   -1.1262    1.4105 H       1  UNL1        0.0427
     69 H          -2.4876    1.1409    1.2357 H       1  UNL1        0.0303
     70 H          -1.3408   -0.0310    2.0916 H       1  UNL1        0.0303
     71 H          -1.7042    4.9284    3.2849 H       1  UNL1        0.1049
@<TRIPOS>BOND
     1     1     2    1
     2     2     3    1
     3     3     4   ar
     4     4     5   ar
     5     5     6    1
     6     6     7   am
     7     7     8    2
     8     7     9   am
     9     9    10    1
    10    10    11   ar
    11    11    12   ar
    12    12    13   ar
    13    13    14    1
    14    14    15   ar
    15    15    16   ar
    16    16    17   ar
    17    17    18    1
    18    18    19    3
    19    17    20   ar
    20    20    21   ar
    21    13    22   ar
    22    22    23   ar
    23     9    24   am
    24    24    25    2
    25    24    26    1
    26    26    27    1
    27    27    28    1
    28    28    29    1
    29    29    30    1
    30    30    31    1
    31    31    32   ar
    32    32    33   ar
    33    33    34   ar
    34    34    35   ar
    35    35    36   ar
    36    36    37    1
    37    29    38    1
    38    38    39    1
    39     5    40   ar
    40    40    41   ar
    41    41    42   ar
    42    42     3   ar
    43    26     6    1
    44    36    31   ar
    45    23    10   ar
    46    39    26    1
    47    21    14   ar
    48     1    43    1
    49     1    44    1
    50     1    45    1
    51     4    46    1
    52    11    47    1
    53    12    48    1
    54    15    49    1
    55    16    50    1
    56    20    51    1
    57    21    52    1
    58    22    53    1
    59    23    54    1
    60    27    55    1
    61    27    56    1
    62    28    57    1
    63    28    58    1
    64    30    59    1
    65    30    60    1
    66    33    61    1
    67    34    62    1
    68    35    63    1
    69    37    64    1
    70    37    65    1
    71    37    66    1
    72    38    67    1
    73    38    68    1
    74    39    69    1
    75    39    70    1
    76    41    71    1
