@<TRIPOS>MOLECULE
*****
 53 57 0 0 0
SMALL
GASTEIGER

@<TRIPOS>ATOM
      1 C           1.1022   -3.7974    0.9965 C.3     1  UNL1        0.0790
      2 O           0.0963   -2.8915    0.6463 O.3     1  UNL1       -0.4914
      3 C           0.3324   -1.5683    0.3183 C.ar    1  UNL1        0.1623
      4 C           1.6550   -1.0923    0.3330 C.ar    1  UNL1       -0.0038
      5 C           1.9146    0.2216    0.0102 C.ar    1  UNL1        0.0441
      6 C           3.2523    0.6732    0.0310 C.ar    1  UNL1        0.1340
      7 N           4.3139   -0.1761    0.3879 N.pl3   1  UNL1       -0.2977
      8 C           5.6872    0.1699    0.3712 C.ar    1  UNL1        0.0524
      9 C           6.1538    1.3990   -0.0200 C.ar    1  UNL1       -0.0379
     10 C           7.5249    1.6908   -0.0131 C.ar    1  UNL1       -0.0445
     11 C           8.4125    0.7439    0.3869 C.ar    1  UNL1        0.0377
     12 BR         10.2866    1.1473    0.3946 Br      1  UNL1       -0.0487
     13 C           7.9607   -0.5015    0.7848 C.ar    1  UNL1        0.0750
     14 CL          9.1159   -1.7381    1.3068 Cl      1  UNL1       -0.0808
     15 C           6.6271   -0.7917    0.7803 C.ar    1  UNL1        0.0814
     16 CL          6.0737   -2.3928    1.2943 Cl      1  UNL1       -0.0801
     17 N           3.4308    1.9484   -0.2928 N.ar    1  UNL1       -0.2200
     18 C           2.4574    2.7924   -0.6228 C.ar    1  UNL1        0.1187
     19 N           1.1725    2.3554   -0.6416 N.ar    1  UNL1       -0.2352
     20 C           0.8859    1.0876   -0.3315 C.ar    1  UNL1        0.0797
     21 C          -0.4079    0.6000   -0.3400 C.ar    1  UNL1        0.0099
     22 C          -0.6878   -0.7067   -0.0210 C.ar    1  UNL1        0.1646
     23 O          -1.9671   -1.1978   -0.0269 O.3     1  UNL1       -0.4801
     24 C          -3.1444   -0.5398   -0.3289 C.3     1  UNL1        0.1519
     25 C          -3.8657   -1.1353   -1.5239 C.3     1  UNL1        0.0877
     26 O          -5.2098   -1.0840   -1.2758 O.3     1  UNL1       -0.3675
     27 C          -5.4528   -0.6569   -0.0014 C.3     1  UNL1        0.1166
     28 C          -5.8499    0.8248    0.0573 C.3     1  UNL1        0.1101
     29 O          -7.2020    1.0111   -0.0640 O.3     1  UNL1       -0.3748
     30 C          -7.4122    1.9052   -1.1352 C.3     1  UNL1        0.0370
     31 C          -5.3583    1.1362    1.4782 C.3     1  UNL1        0.0770
     32 O          -4.1233    0.5404    1.4901 O.3     1  UNL1       -0.3675
     33 C          -4.1769   -0.6311    0.7805 C.3     1  UNL1        0.1262
     34 H           1.6200   -3.5387    1.9392 H       1  UNL1        0.0660
     35 H           0.7165   -4.8217    1.0900 H       1  UNL1        0.0660
     36 H           1.8880   -3.7626    0.1862 H       1  UNL1        0.0660
     37 H           2.4383   -1.7885    0.6004 H       1  UNL1        0.0663
     38 H           4.1230   -1.1586    0.7044 H       1  UNL1        0.1536
     39 H           5.5095    2.2140   -0.3590 H       1  UNL1        0.0637
     40 H           7.8393    2.6840   -0.3341 H       1  UNL1        0.0630
     41 H           2.6369    3.8132   -0.8780 H       1  UNL1        0.1048
     42 H          -1.1629    1.3224   -0.6138 H       1  UNL1        0.0677
     43 H          -2.9597    0.5164   -0.5931 H       1  UNL1        0.0784
     44 H          -3.5378   -2.2034   -1.6766 H       1  UNL1        0.0598
     45 H          -3.6571   -0.5824   -2.4628 H       1  UNL1        0.0598
     46 H          -6.1848   -1.2664    0.5495 H       1  UNL1        0.0650
     47 H          -5.2369    1.3818   -0.6685 H       1  UNL1        0.0646
     48 H          -6.8708    2.8410   -0.8319 H       1  UNL1        0.0524
     49 H          -8.4743    2.1299   -1.2757 H       1  UNL1        0.0524
     50 H          -6.8996    1.5542   -2.0590 H       1  UNL1        0.0524
     51 H          -6.0364    0.5872    2.1778 H       1  UNL1        0.0587
     52 H          -5.3209    2.2099    1.6725 H       1  UNL1        0.0587
     53 H          -4.0277   -1.4776    1.4486 H       1  UNL1        0.0661
@<TRIPOS>BOND
     1     1     2    1
     2     2     3    1
     3     3     4   ar
     4     4     5   ar
     5     5     6   ar
     6     6     7    1
     7     7     8    1
     8     8     9   ar
     9     9    10   ar
    10    10    11   ar
    11    11    12    1
    12    11    13   ar
    13    13    14    1
    14    13    15   ar
    15    15    16    1
    16     6    17   ar
    17    17    18   ar
    18    18    19   ar
    19    19    20   ar
    20    20    21   ar
    21    21    22   ar
    22    22    23    1
    23    23    24    1
    24    24    25    1
    25    25    26    1
    26    26    27    1
    27    27    28    1
    28    28    29    1
    29    29    30    1
    30    28    31    1
    31    31    32    1
    32    32    33    1
    33    22     3   ar
    34    33    24    1
    35    20     5   ar
    36    33    27    1
    37    15     8   ar
    38     1    34    1
    39     1    35    1
    40     1    36    1
    41     4    37    1
    42     7    38    1
    43     9    39    1
    44    10    40    1
    45    18    41    1
    46    21    42    1
    47    24    43    1
    48    25    44    1
    49    25    45    1
    50    27    46    1
    51    28    47    1
    52    30    48    1
    53    30    49    1
    54    30    50    1
    55    31    51    1
    56    31    52    1
    57    33    53    1
