@<TRIPOS>MOLECULE
*****
 56 58 0 0 0
SMALL
GASTEIGER

@<TRIPOS>ATOM
      1 C           9.6607   -1.6211    0.3961 C.2     1  UNL1       -0.0938
      2 C           9.4604   -0.6199   -0.4192 C.2     1  UNL1       -0.0066
      3 C           8.1990    0.0332   -0.6838 C.2     1  UNL1        0.2405
      4 O           8.1174    1.0034   -1.5008 O.2     1  UNL1       -0.2705
      5 N           7.0294   -0.4133   -0.0224 N.am    1  UNL1       -0.2820
      6 C           5.7445    0.1839   -0.2334 C.ar    1  UNL1        0.0338
      7 C           5.2713    1.2326    0.5084 C.ar    1  UNL1       -0.0386
      8 C           4.0139    1.7872    0.2730 C.ar    1  UNL1       -0.0336
      9 C           3.2047    1.2885   -0.7242 C.ar    1  UNL1        0.1056
     10 S           1.6158    1.9669   -1.0419 S.O2    1  UNL1        0.0609
     11 O           1.3106    1.7549   -2.4974 O.2     1  UNL1       -0.1528
     12 O           1.5904    3.4407   -0.7764 O.2     1  UNL1       -0.1528
     13 N           0.4123    1.1406   -0.0874 N.3     1  UNL1       -0.1736
     14 C           0.4447   -0.2428   -0.5134 C.3     1  UNL1        0.0364
     15 C          -0.7889   -0.9989   -0.0764 C.3     1  UNL1        0.0323
     16 N          -1.9624   -0.3215   -0.6129 N.am    1  UNL1       -0.2649
     17 C          -3.2605   -0.9219   -0.5287 C.2     1  UNL1        0.4033
     18 O          -3.3683   -2.0320    0.0114 O.2     1  UNL1       -0.2262
     19 O          -4.3362   -0.2708   -1.0366 O.3     1  UNL1       -0.4455
     20 C          -5.6304   -0.7965   -0.9890 C.3     1  UNL1        0.1194
     21 C          -6.0114   -1.0041    0.4295 C.ar    1  UNL1       -0.0073
     22 C          -6.0640   -2.2766    0.9658 C.ar    1  UNL1       -0.0551
     23 C          -6.4195   -2.5285    2.2690 C.ar    1  UNL1       -0.0614
     24 C          -6.7371   -1.4542    3.0706 C.ar    1  UNL1       -0.0615
     25 C          -6.6982   -0.1503    2.5720 C.ar    1  UNL1       -0.0585
     26 C          -6.3360    0.0546    1.2591 C.ar    1  UNL1       -0.0441
     27 C          -6.2897    1.4349    0.7154 C.3     1  UNL1       -0.0393
     28 C          -1.7535    0.9711   -1.2265 C.3     1  UNL1        0.0323
     29 C          -0.8412    1.7783   -0.3301 C.3     1  UNL1        0.0364
     30 C           3.6939    0.2263   -1.4695 C.ar    1  UNL1       -0.0336
     31 C           4.9382   -0.3204   -1.2345 C.ar    1  UNL1       -0.0386
     32 H           8.8514   -2.0502    0.9572 H       1  UNL1        0.0536
     33 H          10.6529   -2.0230    0.5078 H       1  UNL1        0.0536
     34 H          10.3328   -0.2226   -0.9676 H       1  UNL1        0.0663
     35 H           7.0608   -1.2009    0.6489 H       1  UNL1        0.1551
     36 H           5.8666    1.6474    1.2895 H       1  UNL1        0.0637
     37 H           3.6947    2.6148    0.8923 H       1  UNL1        0.0638
     38 H           1.3169   -0.7165   -0.0179 H       1  UNL1        0.0459
     39 H           0.5724   -0.3620   -1.5989 H       1  UNL1        0.0459
     40 H          -0.7612   -2.0019   -0.5255 H       1  UNL1        0.0479
     41 H          -0.8940   -1.0584    1.0117 H       1  UNL1        0.0479
     42 H          -6.3482   -0.1136   -1.4911 H       1  UNL1        0.0749
     43 H          -5.7172   -1.7734   -1.5228 H       1  UNL1        0.0749
     44 H          -5.8267   -3.1331    0.3604 H       1  UNL1        0.0621
     45 H          -6.4604   -3.5163    2.6860 H       1  UNL1        0.0618
     46 H          -7.0214   -1.6081    4.0997 H       1  UNL1        0.0618
     47 H          -6.9481    0.6896    3.2037 H       1  UNL1        0.0620
     48 H          -5.2712    1.8288    0.7385 H       1  UNL1        0.0278
     49 H          -6.9680    2.1013    1.3265 H       1  UNL1        0.0278
     50 H          -6.6852    1.5115   -0.3164 H       1  UNL1        0.0278
     51 H          -2.7107    1.4651   -1.3898 H       1  UNL1        0.0479
     52 H          -1.2006    0.8164   -2.1790 H       1  UNL1        0.0479
     53 H          -1.3763    1.8396    0.6626 H       1  UNL1        0.0459
     54 H          -0.6960    2.7748   -0.7438 H       1  UNL1        0.0459
     55 H           3.0429   -0.1518   -2.2490 H       1  UNL1        0.0638
     56 H           5.2838   -1.1597   -1.8489 H       1  UNL1        0.0637
@<TRIPOS>BOND
     1     1     2    2
     2     2     3    1
     3     3     4    2
     4     3     5   am
     5     5     6    1
     6     6     7   ar
     7     7     8   ar
     8     8     9   ar
     9     9    10    1
    10    10    11    2
    11    10    12    2
    12    10    13    1
    13    13    14    1
    14    14    15    1
    15    15    16    1
    16    16    17   am
    17    17    18    2
    18    17    19    1
    19    19    20    1
    20    20    21    1
    21    21    22   ar
    22    22    23   ar
    23    23    24   ar
    24    24    25   ar
    25    25    26   ar
    26    26    27    1
    27    16    28    1
    28    28    29    1
    29     9    30   ar
    30    30    31   ar
    31    31     6   ar
    32    29    13    1
    33    26    21   ar
    34     1    32    1
    35     1    33    1
    36     2    34    1
    37     5    35    1
    38     7    36    1
    39     8    37    1
    40    14    38    1
    41    14    39    1
    42    15    40    1
    43    15    41    1
    44    20    42    1
    45    20    43    1
    46    22    44    1
    47    23    45    1
    48    24    46    1
    49    25    47    1
    50    27    48    1
    51    27    49    1
    52    27    50    1
    53    28    51    1
    54    28    52    1
    55    29    53    1
    56    29    54    1
    57    30    55    1
    58    31    56    1
