
     RDKit          3D

 67 69  0  0  0  0  0  0  0  0999 V2000
   -4.7084    3.1970    3.0865 C   0  0  0  0  0  0  0  0  0  0  0  0
   -3.4886    2.4024    3.4984 C   0  0  0  0  0  0  0  0  0  0  0  0
   -2.9654    1.5765    2.3845 C   0  0  0  0  0  0  0  0  0  0  0  0
   -2.0196    2.0302    1.4984 C   0  0  0  0  0  0  0  0  0  0  0  0
   -1.5389    1.2440    0.4602 C   0  0  0  0  0  0  0  0  0  0  0  0
   -2.0301   -0.0349    0.3189 C   0  0  0  0  0  0  0  0  0  0  0  0
   -1.6116   -0.8879   -0.6795 O   0  0  0  0  0  0  0  0  0  0  0  0
   -0.6633   -0.6002   -1.6457 C   0  0  0  0  0  0  0  0  0  0  0  0
   -1.3221   -0.5766   -3.0312 C   0  0  0  0  0  0  0  0  0  0  0  0
    0.4480   -1.6733   -1.6575 C   0  0  0  0  0  0  0  0  0  0  0  0
    1.4507   -1.3338   -2.7140 C   0  0  0  0  0  0  0  0  0  0  0  0
    2.0792   -0.1207   -2.5490 O   0  0  0  0  0  0  0  0  0  0  0  0
    2.9288    0.2376   -1.5389 C   0  0  0  0  0  0  0  0  0  0  0  0
    3.4488    1.5540   -1.5200 C   0  0  0  0  0  0  0  0  0  0  0  0
    4.3058    1.9557   -0.5294 C   0  0  0  0  0  0  0  0  0  0  0  0
    4.7002    1.1098    0.4856 C   0  0  0  0  0  0  0  0  0  0  0  0
    5.5967    1.5912    1.5198 C   0  0  0  0  0  0  0  0  0  0  0  0
    7.0095    1.0720    1.4492 C   0  0  0  0  0  0  0  0  0  0  0  0
    7.7126    1.3940    0.2051 C   0  0  0  0  0  0  0  0  0  0  0  0
    7.2016    2.0547   -0.7318 O   0  0  0  0  0  0  0  0  0  0  0  0
    9.0368    0.9779   -0.0351 O   0  0  0  0  0  0  0  0  0  0  0  0
    4.2162   -0.1733    0.4991 C   0  0  0  0  0  0  0  0  0  0  0  0
    4.6008   -1.1014    1.5480 C   0  0  0  0  0  0  0  0  0  0  0  0
    3.3414   -0.5715   -0.5197 C   0  0  0  0  0  0  0  0  0  0  0  0
   -2.9980   -0.5157    1.2171 C   0  0  0  0  0  0  0  0  0  0  0  0
   -3.5292   -1.9011    1.0663 C   0  0  0  0  0  0  0  0  0  0  0  0
   -4.5148   -2.0401   -0.0135 C   0  0  0  0  0  0  0  0  0  0  0  0
   -4.1548   -2.5854   -1.2170 C   0  0  0  0  0  0  0  0  0  0  0  0
   -5.0860   -2.7124   -2.2417 C   0  0  0  0  0  0  0  0  0  0  0  0
   -6.3710   -2.3005   -2.0754 C   0  0  0  0  0  0  0  0  0  0  0  0
   -6.7666   -1.7484   -0.8792 C   0  0  0  0  0  0  0  0  0  0  0  0
   -5.8273   -1.6259    0.1397 C   0  0  0  0  0  0  0  0  0  0  0  0
   -3.4393    0.3016    2.2245 C   0  0  0  0  0  0  0  0  0  0  0  0
   -4.7981    3.3442    2.0036 H   0  0  0  0  0  0  0  0  0  0  0  0
   -4.6703    4.1669    3.6228 H   0  0  0  0  0  0  0  0  0  0  0  0
   -5.6536    2.6783    3.4050 H   0  0  0  0  0  0  0  0  0  0  0  0
   -2.6717    3.0675    3.8546 H   0  0  0  0  0  0  0  0  0  0  0  0
   -3.7544    1.7416    4.3343 H   0  0  0  0  0  0  0  0  0  0  0  0
   -1.6172    3.0369    1.5891 H   0  0  0  0  0  0  0  0  0  0  0  0
   -0.7903    1.6366   -0.2236 H   0  0  0  0  0  0  0  0  0  0  0  0
   -0.1690    0.3724   -1.5536 H   0  0  0  0  0  0  0  0  0  0  0  0
   -1.4317   -1.5947   -3.4295 H   0  0  0  0  0  0  0  0  0  0  0  0
   -2.3235   -0.1194   -2.9086 H   0  0  0  0  0  0  0  0  0  0  0  0
   -0.7504    0.0511   -3.7311 H   0  0  0  0  0  0  0  0  0  0  0  0
   -0.1145   -2.6085   -1.9562 H   0  0  0  0  0  0  0  0  0  0  0  0
    0.8173   -1.8152   -0.6471 H   0  0  0  0  0  0  0  0  0  0  0  0
    0.9743   -1.3995   -3.7459 H   0  0  0  0  0  0  0  0  0  0  0  0
    2.1782   -2.1981   -2.7498 H   0  0  0  0  0  0  0  0  0  0  0  0
    3.1291    2.2167   -2.3315 H   0  0  0  0  0  0  0  0  0  0  0  0
    4.6587    2.9825   -0.5755 H   0  0  0  0  0  0  0  0  0  0  0  0
    5.2447    1.3987    2.5566 H   0  0  0  0  0  0  0  0  0  0  0  0
    5.6523    2.7198    1.4542 H   0  0  0  0  0  0  0  0  0  0  0  0
    7.0014   -0.0099    1.6926 H   0  0  0  0  0  0  0  0  0  0  0  0
    7.6122    1.5307    2.2867 H   0  0  0  0  0  0  0  0  0  0  0  0
    9.3010    0.5230   -0.9066 H   0  0  0  0  0  0  0  0  0  0  0  0
    3.7417   -1.8250    1.6872 H   0  0  0  0  0  0  0  0  0  0  0  0
    4.7484   -0.6476    2.5415 H   0  0  0  0  0  0  0  0  0  0  0  0
    5.4386   -1.7421    1.2183 H   0  0  0  0  0  0  0  0  0  0  0  0
    3.0167   -1.6078   -0.4699 H   0  0  0  0  0  0  0  0  0  0  0  0
   -3.9651   -2.2654    2.0261 H   0  0  0  0  0  0  0  0  0  0  0  0
   -2.6733   -2.5759    0.8445 H   0  0  0  0  0  0  0  0  0  0  0  0
   -3.1573   -2.9510   -1.4421 H   0  0  0  0  0  0  0  0  0  0  0  0
   -4.7755   -3.1499   -3.1930 H   0  0  0  0  0  0  0  0  0  0  0  0
   -7.0808   -2.4163   -2.9086 H   0  0  0  0  0  0  0  0  0  0  0  0
   -7.7976   -1.4249   -0.7625 H   0  0  0  0  0  0  0  0  0  0  0  0
   -6.1645   -1.1865    1.0768 H   0  0  0  0  0  0  0  0  0  0  0  0
   -4.1980   -0.1243    2.8988 H   0  0  0  0  0  0  0  0  0  0  0  0
  1  2  1  0
  2  3  1  0
  3  4  2  0
  4  5  1  0
  5  6  2  0
  6  7  1  0
  7  8  1  0
  8  9  1  0
  8 10  1  0
 10 11  1  0
 11 12  1  0
 12 13  1  0
 13 14  2  0
 14 15  1  0
 15 16  2  0
 16 17  1  0
 17 18  1  0
 18 19  1  0
 19 20  2  0
 19 21  1  0
 16 22  1  0
 22 23  1  0
 22 24  2  0
  6 25  1  0
 25 26  1  0
 26 27  1  0
 27 28  2  0
 28 29  1  0
 29 30  2  0
 30 31  1  0
 31 32  2  0
 25 33  2  0
 33  3  1  0
 24 13  1  0
 32 27  1  0
  1 34  1  0
  1 35  1  0
  1 36  1  0
  2 37  1  0
  2 38  1  0
  4 39  1  0
  5 40  1  0
  8 41  1  0
  9 42  1  0
  9 43  1  0
  9 44  1  0
 10 45  1  0
 10 46  1  0
 11 47  1  0
 11 48  1  0
 14 49  1  0
 15 50  1  0
 17 51  1  0
 17 52  1  0
 18 53  1  0
 18 54  1  0
 21 55  1  0
 23 56  1  0
 23 57  1  0
 23 58  1  0
 24 59  1  0
 26 60  1  0
 26 61  1  0
 28 62  1  0
 29 63  1  0
 30 64  1  0
 31 65  1  0
 32 66  1  0
 33 67  1  0
M  END
$$$$
