@<TRIPOS>MOLECULE
*****
 67 69 0 0 0
SMALL
GASTEIGER

@<TRIPOS>ATOM
      1 C          -4.7084    3.1970    3.0865 C.3     1  UNL1       -0.0613
      2 C          -3.4886    2.4024    3.4984 C.3     1  UNL1       -0.0305
      3 C          -2.9654    1.5765    2.3845 C.ar    1  UNL1       -0.0471
      4 C          -2.0196    2.0302    1.4984 C.ar    1  UNL1       -0.0551
      5 C          -1.5389    1.2440    0.4602 C.ar    1  UNL1       -0.0194
      6 C          -2.0301   -0.0349    0.3189 C.ar    1  UNL1        0.1244
      7 O          -1.6116   -0.8879   -0.6795 O.3     1  UNL1       -0.4887
      8 C          -0.6633   -0.6002   -1.6457 C.3     1  UNL1        0.1005
      9 C          -1.3221   -0.5766   -3.0312 C.3     1  UNL1       -0.0277
     10 C           0.4480   -1.6733   -1.6575 C.3     1  UNL1        0.0182
     11 C           1.4507   -1.3338   -2.7140 C.3     1  UNL1        0.0929
     12 O           2.0792   -0.1207   -2.5490 O.3     1  UNL1       -0.4918
     13 C           2.9288    0.2376   -1.5389 C.ar    1  UNL1        0.1208
     14 C           3.4488    1.5540   -1.5200 C.ar    1  UNL1       -0.0197
     15 C           4.3058    1.9557   -0.5294 C.ar    1  UNL1       -0.0549
     16 C           4.7002    1.1098    0.4856 C.ar    1  UNL1       -0.0437
     17 C           5.5967    1.5912    1.5198 C.3     1  UNL1       -0.0174
     18 C           7.0095    1.0720    1.4492 C.3     1  UNL1        0.0487
     19 C           7.7126    1.3940    0.2051 C.2     1  UNL1        0.3050
     20 O           7.2016    2.0547   -0.7318 O.2     1  UNL1       -0.2510
     21 O           9.0368    0.9779   -0.0351 O.3     1  UNL1       -0.4806
     22 C           4.2162   -0.1733    0.4991 C.ar    1  UNL1       -0.0438
     23 C           4.6008   -1.1014    1.5480 C.3     1  UNL1       -0.0393
     24 C           3.3414   -0.5715   -0.5197 C.ar    1  UNL1       -0.0168
     25 C          -2.9980   -0.5157    1.2171 C.ar    1  UNL1       -0.0012
     26 C          -3.5292   -1.9011    1.0663 C.3     1  UNL1        0.0010
     27 C          -4.5148   -2.0401   -0.0135 C.ar    1  UNL1       -0.0429
     28 C          -4.1548   -2.5854   -1.2170 C.ar    1  UNL1       -0.0583
     29 C          -5.0860   -2.7124   -2.2417 C.ar    1  UNL1       -0.0615
     30 C          -6.3710   -2.3005   -2.0754 C.ar    1  UNL1       -0.0617
     31 C          -6.7666   -1.7484   -0.8792 C.ar    1  UNL1       -0.0615
     32 C          -5.8273   -1.6259    0.1397 C.ar    1  UNL1       -0.0583
     33 C          -3.4393    0.3016    2.2245 C.ar    1  UNL1       -0.0516
     34 H          -4.7981    3.3442    2.0036 H       1  UNL1        0.0233
     35 H          -4.6703    4.1669    3.6228 H       1  UNL1        0.0233
     36 H          -5.6536    2.6783    3.4050 H       1  UNL1        0.0233
     37 H          -2.6717    3.0675    3.8546 H       1  UNL1        0.0311
     38 H          -3.7544    1.7416    4.3343 H       1  UNL1        0.0311
     39 H          -1.6172    3.0369    1.5891 H       1  UNL1        0.0621
     40 H          -0.7903    1.6366   -0.2236 H       1  UNL1        0.0654
     41 H          -0.1690    0.3724   -1.5536 H       1  UNL1        0.0731
     42 H          -1.4317   -1.5947   -3.4295 H       1  UNL1        0.0265
     43 H          -2.3235   -0.1194   -2.9086 H       1  UNL1        0.0265
     44 H          -0.7504    0.0511   -3.7311 H       1  UNL1        0.0265
     45 H          -0.1145   -2.6085   -1.9562 H       1  UNL1        0.0334
     46 H           0.8173   -1.8152   -0.6471 H       1  UNL1        0.0334
     47 H           0.9743   -1.3995   -3.7459 H       1  UNL1        0.0698
     48 H           2.1782   -2.1981   -2.7498 H       1  UNL1        0.0698
     49 H           3.1291    2.2167   -2.3315 H       1  UNL1        0.0654
     50 H           4.6587    2.9825   -0.5755 H       1  UNL1        0.0621
     51 H           5.2447    1.3987    2.5566 H       1  UNL1        0.0318
     52 H           5.6523    2.7198    1.4542 H       1  UNL1        0.0318
     53 H           7.0014   -0.0099    1.6926 H       1  UNL1        0.0381
     54 H           7.6122    1.5307    2.2867 H       1  UNL1        0.0381
     55 H           9.3010    0.5230   -0.9066 H       1  UNL1        0.2951
     56 H           3.7417   -1.8250    1.6872 H       1  UNL1        0.0278
     57 H           4.7484   -0.6476    2.5415 H       1  UNL1        0.0278
     58 H           5.4386   -1.7421    1.2183 H       1  UNL1        0.0278
     59 H           3.0167   -1.6078   -0.4699 H       1  UNL1        0.0657
     60 H          -3.9651   -2.2654    2.0261 H       1  UNL1        0.0363
     61 H          -2.6733   -2.5759    0.8445 H       1  UNL1        0.0363
     62 H          -3.1573   -2.9510   -1.4421 H       1  UNL1        0.0620
     63 H          -4.7755   -3.1499   -3.1930 H       1  UNL1        0.0618
     64 H          -7.0808   -2.4163   -2.9086 H       1  UNL1        0.0618
     65 H          -7.7976   -1.4249   -0.7625 H       1  UNL1        0.0618
     66 H          -6.1645   -1.1865    1.0768 H       1  UNL1        0.0620
     67 H          -4.1980   -0.1243    2.8988 H       1  UNL1        0.0624
@<TRIPOS>BOND
     1     1     2    1
     2     2     3    1
     3     3     4   ar
     4     4     5   ar
     5     5     6   ar
     6     6     7    1
     7     7     8    1
     8     8     9    1
     9     8    10    1
    10    10    11    1
    11    11    12    1
    12    12    13    1
    13    13    14   ar
    14    14    15   ar
    15    15    16   ar
    16    16    17    1
    17    17    18    1
    18    18    19    1
    19    19    20    2
    20    19    21    1
    21    16    22   ar
    22    22    23    1
    23    22    24   ar
    24     6    25   ar
    25    25    26    1
    26    26    27    1
    27    27    28   ar
    28    28    29   ar
    29    29    30   ar
    30    30    31   ar
    31    31    32   ar
    32    25    33   ar
    33    33     3   ar
    34    24    13   ar
    35    32    27   ar
    36     1    34    1
    37     1    35    1
    38     1    36    1
    39     2    37    1
    40     2    38    1
    41     4    39    1
    42     5    40    1
    43     8    41    1
    44     9    42    1
    45     9    43    1
    46     9    44    1
    47    10    45    1
    48    10    46    1
    49    11    47    1
    50    11    48    1
    51    14    49    1
    52    15    50    1
    53    17    51    1
    54    17    52    1
    55    18    53    1
    56    18    54    1
    57    21    55    1
    58    23    56    1
    59    23    57    1
    60    23    58    1
    61    24    59    1
    62    26    60    1
    63    26    61    1
    64    28    62    1
    65    29    63    1
    66    30    64    1
    67    31    65    1
    68    32    66    1
    69    33    67    1
