
     RDKit          3D

 51 55  0  0  0  0  0  0  0  0999 V2000
   -6.3906    2.6425    1.0003 N   0  0  0  0  0  0  0  0  0  0  0  0
   -5.5474    1.5627    0.6611 C   0  0  0  0  0  0  0  0  0  0  0  0
   -5.6625    0.3587    1.1149 N   0  0  0  0  0  0  0  0  0  0  0  0
   -4.7673   -0.7078    0.7333 C   0  0  1  0  0  0  0  0  0  0  0  0
   -3.5659   -0.7206    1.6312 C   0  0  0  0  0  0  0  0  0  0  0  0
   -2.2841   -0.5573    1.1026 C   0  0  0  0  0  0  0  0  0  0  0  0
   -1.1877   -0.5686    1.8929 C   0  0  0  0  0  0  0  0  0  0  0  0
    0.1643   -0.4153    1.4818 N   0  0  0  0  0  0  0  0  0  0  0  0
    0.6295   -0.2240    0.1666 C   0  0  0  0  0  0  0  0  0  0  0  0
   -0.1925   -0.1769   -0.7723 O   0  0  0  0  0  0  0  0  0  0  0  0
    2.0748   -0.0776   -0.1239 C   0  0  0  0  0  0  0  0  0  0  0  0
    2.4844    0.1075   -1.4228 C   0  0  0  0  0  0  0  0  0  0  0  0
    3.7902    0.2471   -1.7471 N   0  0  0  0  0  0  0  0  0  0  0  0
    4.7181    0.2028   -0.7627 C   0  0  0  0  0  0  0  0  0  0  0  0
    6.0654    0.3349   -0.9968 O   0  0  0  0  0  0  0  0  0  0  0  0
    6.6146    0.5301   -2.2893 C   0  0  0  0  0  0  0  0  0  0  0  0
    8.0939    0.6391   -2.2412 C   0  0  0  0  0  0  0  0  0  0  0  0
    9.0324   -0.3630   -2.3392 C   0  0  0  0  0  0  0  0  0  0  0  0
   10.2066    0.1931   -2.2447 O   0  0  0  0  0  0  0  0  0  0  0  0
   10.0918    1.4777   -2.0933 C   0  0  0  0  0  0  0  0  0  0  0  0
    8.7968    1.7727   -2.0886 N   0  0  0  0  0  0  0  0  0  0  0  0
    4.3327    0.0173    0.5557 C   0  0  0  0  0  0  0  0  0  0  0  0
    3.0196   -0.1161    0.8234 N   0  0  0  0  0  0  0  0  0  0  0  0
   -1.4049   -0.7512    3.2619 C   0  0  0  0  0  0  0  0  0  0  0  0
   -2.6441   -0.9139    3.8194 C   0  0  0  0  0  0  0  0  0  0  0  0
   -3.7494   -0.8978    2.9835 C   0  0  0  0  0  0  0  0  0  0  0  0
   -4.9784   -1.0434    3.5298 F   0  0  0  0  0  0  0  0  0  0  0  0
   -5.4928   -2.0205    0.8860 C   0  0  0  0  0  0  0  0  0  0  0  0
   -6.6212   -2.0192    0.0505 F   0  0  0  0  0  0  0  0  0  0  0  0
   -4.6718   -3.0944    0.5581 F   0  0  0  0  0  0  0  0  0  0  0  0
   -4.2804   -0.5894   -0.6964 C   0  0  1  0  0  0  0  0  0  0  0  0
   -5.1898   -0.0613   -1.7717 C   0  0  0  0  0  0  0  0  0  0  0  0
   -4.1090    0.7795   -1.1674 C   0  0  1  0  0  0  0  0  0  0  0  0
   -4.5011    1.7765   -0.2293 O   0  0  0  0  0  0  0  0  0  0  0  0
   -7.3708    2.4983    1.3031 H   0  0  0  0  0  0  0  0  0  0  0  0
   -6.0215    3.6087    0.9458 H   0  0  0  0  0  0  0  0  0  0  0  0
   -2.1815   -0.4143    0.0591 H   0  0  0  0  0  0  0  0  0  0  0  0
    0.9495   -0.4406    2.2118 H   0  0  0  0  0  0  0  0  0  0  0  0
    1.7817    0.1517   -2.2590 H   0  0  0  0  0  0  0  0  0  0  0  0
    6.2028    1.5070   -2.6535 H   0  0  0  0  0  0  0  0  0  0  0  0
    6.2727   -0.3053   -2.9245 H   0  0  0  0  0  0  0  0  0  0  0  0
    8.8130   -1.4392   -2.4735 H   0  0  0  0  0  0  0  0  0  0  0  0
   10.9041    2.2157   -1.9856 H   0  0  0  0  0  0  0  0  0  0  0  0
    5.0876   -0.0180    1.3510 H   0  0  0  0  0  0  0  0  0  0  0  0
   -0.5623   -0.7676    3.9323 H   0  0  0  0  0  0  0  0  0  0  0  0
   -2.7864   -1.0552    4.8963 H   0  0  0  0  0  0  0  0  0  0  0  0
   -5.8822   -2.2266    1.8917 H   0  0  0  0  0  0  0  0  0  0  0  0
   -3.5408   -1.3520   -0.9865 H   0  0  0  0  0  0  0  0  0  0  0  0
   -6.2320    0.0981   -1.4674 H   0  0  0  0  0  0  0  0  0  0  0  0
   -5.0419   -0.4535   -2.8044 H   0  0  0  0  0  0  0  0  0  0  0  0
   -3.2660    1.0690   -1.8124 H   0  0  0  0  0  0  0  0  0  0  0  0
  1  2  1  0
  2  3  2  0
  3  4  1  0
  4  5  1  0
  5  6  2  0
  6  7  1  0
  7  8  1  0
  8  9  1  0
  9 10  2  0
  9 11  1  0
 11 12  2  0
 12 13  1  0
 13 14  2  0
 14 15  1  0
 15 16  1  0
 16 17  1  0
 17 18  2  0
 18 19  1  0
 19 20  1  0
 20 21  2  0
 14 22  1  0
 22 23  2  0
  7 24  2  0
 24 25  1  0
 25 26  2  0
 26 27  1  0
  4 28  1  6
 28 29  1  0
 28 30  1  0
  4 31  1  0
 31 32  1  0
 32 33  1  0
 33 34  1  0
 34  2  1  0
 26  5  1  0
 33 31  1  0
 23 11  1  0
 21 17  1  0
  1 35  1  0
  1 36  1  0
  6 37  1  0
  8 38  1  0
 12 39  1  0
 16 40  1  0
 16 41  1  0
 18 42  1  0
 20 43  1  0
 22 44  1  0
 24 45  1  0
 25 46  1  0
 28 47  1  0
 31 48  1  6
 32 49  1  0
 32 50  1  0
 33 51  1  6
M  END
$$$$
