@<TRIPOS>MOLECULE
*****
 51 55 0 0 0
SMALL
GASTEIGER

@<TRIPOS>ATOM
      1 N          -6.3906    2.6425    1.0003 N.pl3   1  UNL1       -0.3134
      2 C          -5.5474    1.5627    0.6611 C.2     1  UNL1        0.2764
      3 N          -5.6625    0.3587    1.1149 N.2     1  UNL1       -0.2194
      4 C          -4.7673   -0.7078    0.7333 C.3     1  UNL1        0.1603
      5 C          -3.5659   -0.7206    1.6312 C.ar    1  UNL1        0.0228
      6 C          -2.2841   -0.5573    1.1026 C.ar    1  UNL1       -0.0321
      7 C          -1.1877   -0.5686    1.8929 C.ar    1  UNL1        0.0342
      8 N           0.1643   -0.4153    1.4818 N.am    1  UNL1       -0.2802
      9 C           0.6295   -0.2240    0.1666 C.2     1  UNL1        0.2681
     10 O          -0.1925   -0.1769   -0.7723 O.2     1  UNL1       -0.2681
     11 C           2.0748   -0.0776   -0.1239 C.ar    1  UNL1        0.1439
     12 C           2.4844    0.1075   -1.4228 C.ar    1  UNL1        0.0619
     13 N           3.7902    0.2471   -1.7471 N.ar    1  UNL1       -0.2177
     14 C           4.7181    0.2028   -0.7627 C.ar    1  UNL1        0.2338
     15 O           6.0654    0.3349   -0.9968 O.3     1  UNL1       -0.4689
     16 C           6.6146    0.5301   -2.2893 C.3     1  UNL1        0.1361
     17 C           8.0939    0.6391   -2.2412 C.ar    1  UNL1        0.1164
     18 C           9.0324   -0.3630   -2.3392 C.ar    1  UNL1        0.1183
     19 O          10.2066    0.1931   -2.2447 O.2     1  UNL1       -0.4502
     20 C          10.0918    1.4777   -2.0933 C.ar    1  UNL1        0.1820
     21 N           8.7968    1.7727   -2.0886 N.ar    1  UNL1       -0.2177
     22 C           4.3327    0.0173    0.5557 C.ar    1  UNL1        0.0899
     23 N           3.0196   -0.1161    0.8234 N.ar    1  UNL1       -0.2435
     24 C          -1.4049   -0.7512    3.2619 C.ar    1  UNL1       -0.0377
     25 C          -2.6441   -0.9139    3.8194 C.ar    1  UNL1       -0.0243
     26 C          -3.7494   -0.8978    2.9835 C.ar    1  UNL1        0.1292
     27 F          -4.9784   -1.0434    3.5298 F       1  UNL1       -0.2051
     28 C          -5.4928   -2.0205    0.8860 C.3     1  UNL1        0.2686
     29 F          -6.6212   -2.0192    0.0505 F       1  UNL1       -0.2062
     30 F          -4.6718   -3.0944    0.5581 F       1  UNL1       -0.2062
     31 C          -4.2804   -0.5894   -0.6964 C.3     1  UNL1        0.0344
     32 C          -5.1898   -0.0613   -1.7717 C.3     1  UNL1       -0.0064
     33 C          -4.1090    0.7795   -1.1674 C.3     1  UNL1        0.1091
     34 O          -4.5011    1.7765   -0.2293 O.2     1  UNL1       -0.4622
     35 H          -7.3708    2.4983    1.3031 H       1  UNL1        0.1466
     36 H          -6.0215    3.6087    0.9458 H       1  UNL1        0.1466
     37 H          -2.1815   -0.4143    0.0591 H       1  UNL1        0.0640
     38 H           0.9495   -0.4406    2.2118 H       1  UNL1        0.1552
     39 H           1.7817    0.1517   -2.2590 H       1  UNL1        0.0854
     40 H           6.2028    1.5070   -2.6535 H       1  UNL1        0.0765
     41 H           6.2727   -0.3053   -2.9245 H       1  UNL1        0.0765
     42 H           8.8130   -1.4392   -2.4735 H       1  UNL1        0.1050
     43 H          10.9041    2.2157   -1.9856 H       1  UNL1        0.1254
     44 H           5.0876   -0.0180    1.3510 H       1  UNL1        0.0884
     45 H          -0.5623   -0.7676    3.9323 H       1  UNL1        0.0637
     46 H          -2.7864   -1.0552    4.8963 H       1  UNL1        0.0647
     47 H          -5.8822   -2.2266    1.8917 H       1  UNL1        0.1047
     48 H          -3.5408   -1.3520   -0.9865 H       1  UNL1        0.0366
     49 H          -6.2320    0.0981   -1.4674 H       1  UNL1        0.0306
     50 H          -5.0419   -0.4535   -2.8044 H       1  UNL1        0.0306
     51 H          -3.2660    1.0690   -1.8124 H       1  UNL1        0.0737
@<TRIPOS>BOND
     1     1     2    1
     2     2     3    2
     3     3     4    1
     4     4     5    1
     5     5     6   ar
     6     6     7   ar
     7     7     8    1
     8     8     9   am
     9     9    10    2
    10     9    11    1
    11    11    12   ar
    12    12    13   ar
    13    13    14   ar
    14    14    15    1
    15    15    16    1
    16    16    17    1
    17    17    18   ar
    18    18    19   ar
    19    19    20   ar
    20    20    21   ar
    21    14    22   ar
    22    22    23   ar
    23     7    24   ar
    24    24    25   ar
    25    25    26   ar
    26    26    27    1
    27     4    28    1
    28    28    29    1
    29    28    30    1
    30     4    31    1
    31    31    32    1
    32    32    33    1
    33    33    34    1
    34    34     2    1
    35    26     5   ar
    36    33    31    1
    37    23    11   ar
    38    21    17   ar
    39     1    35    1
    40     1    36    1
    41     6    37    1
    42     8    38    1
    43    12    39    1
    44    16    40    1
    45    16    41    1
    46    18    42    1
    47    20    43    1
    48    22    44    1
    49    24    45    1
    50    25    46    1
    51    28    47    1
    52    31    48    1
    53    32    49    1
    54    32    50    1
    55    33    51    1
