@<TRIPOS>MOLECULE
*****
 22 21 0 0 0
SMALL
GASTEIGER

@<TRIPOS>ATOM
      1 O          -0.4195   -2.0559    0.1747 O.3     1  UNL1       -0.3864
      2 C          -0.7387   -0.7054    0.4343 C.3     1  UNL1        0.1152
      3 C           0.4688    0.0891    0.0139 C.3     1  UNL1        0.0880
      4 O           1.5256   -0.3918    0.8108 O.3     1  UNL1       -0.2841
      5 P           2.9691    0.3845    0.4800 P.3     1  UNL1        0.4724
      6 O           4.0079   -0.5494   -0.4729 O.3     1  UNL1       -0.3026
      7 O           2.6422    1.8158   -0.3390 O.3     1  UNL1       -0.3026
      8 O           3.6962    0.6539    1.7878 O.2     1  UNL1       -0.2275
      9 C          -1.9685   -0.4216   -0.3764 C.3     1  UNL1        0.1795
     10 O          -2.9504   -1.3191    0.0890 O.3     1  UNL1       -0.3783
     11 C          -2.4399    0.9778   -0.2861 C.2     1  UNL1        0.3363
     12 O          -3.7087    1.2649    0.2102 O.3     1  UNL1       -0.4788
     13 O          -1.8651    2.0678   -0.5996 O.2     1  UNL1       -0.2480
     14 H           0.0278   -2.1513   -0.7056 H       1  UNL1        0.2100
     15 H          -0.8989   -0.5803    1.5058 H       1  UNL1        0.0648
     16 H           0.7628   -0.1285   -1.0414 H       1  UNL1        0.0592
     17 H           0.3636    1.1734    0.2061 H       1  UNL1        0.0592
     18 H           3.6420   -1.4513   -0.6788 H       1  UNL1        0.2220
     19 H           3.5121    2.1689   -0.6503 H       1  UNL1        0.2220
     20 H          -1.7538   -0.6630   -1.4315 H       1  UNL1        0.0738
     21 H          -2.5435   -2.1523    0.4563 H       1  UNL1        0.2106
     22 H          -4.3312    1.9737   -0.1913 H       1  UNL1        0.2951
@<TRIPOS>BOND
     1     1     2    1
     2     2     3    1
     3     3     4    1
     4     4     5    1
     5     5     6    1
     6     5     7    1
     7     5     8    2
     8     2     9    1
     9     9    10    1
    10     9    11    1
    11    11    12    1
    12    11    13    2
    13     1    14    1
    14     2    15    1
    15     3    16    1
    16     3    17    1
    17     6    18    1
    18     7    19    1
    19     9    20    1
    20    10    21    1
    21    12    22    1
