@<TRIPOS>MOLECULE
*****
 49 53 0 0 0
SMALL
GASTEIGER

@<TRIPOS>ATOM
      1 C          -5.3911    1.3837    0.3197 C.3     1  UNL1        0.0788
      2 O          -4.3012    0.8096   -0.3581 O.3     1  UNL1       -0.4947
      3 C          -3.3436    0.1066    0.3909 C.ar    1  UNL1        0.1278
      4 C          -3.4822   -0.0103    1.7669 C.ar    1  UNL1       -0.0194
      5 C          -2.5388   -0.7023    2.5137 C.ar    1  UNL1       -0.0556
      6 C          -1.4538   -1.2812    1.8937 C.ar    1  UNL1       -0.0259
      7 C          -1.3427   -1.1492    0.5244 C.ar    1  UNL1        0.1318
      8 F          -0.2688   -1.7328   -0.0488 F       1  UNL1       -0.2050
      9 C          -2.2597   -0.4707   -0.2408 C.ar    1  UNL1        0.0497
     10 C          -2.1725   -0.3227   -1.7115 C.3     1  UNL1        0.0609
     11 C          -2.7887   -1.4261   -2.4631 C.3     1  UNL1        0.0100
     12 C          -1.6874   -2.1515   -3.1667 C.3     1  UNL1        0.1785
     13 F          -1.5214   -3.4517   -2.6920 F       1  UNL1       -0.2355
     14 C          -0.4610   -1.4190   -2.7651 C.2     1  UNL1        0.2505
     15 O           0.7436   -1.8398   -2.8927 O.2     1  UNL1       -0.2724
     16 N          -0.8315   -0.1674   -2.2119 N.am    1  UNL1       -0.2874
     17 C           0.0133    1.0150   -2.1780 C.3     1  UNL1        0.0404
     18 C           0.8107    1.1339   -0.9313 C.ar    1  UNL1       -0.0293
     19 C           0.2709    1.8420    0.1226 C.ar    1  UNL1       -0.0536
     20 C           0.9322    2.0057    1.3198 C.ar    1  UNL1       -0.0184
     21 C           2.1819    1.4560    1.5099 C.ar    1  UNL1        0.1363
     22 O           3.0487    1.4273    2.4931 O.2     1  UNL1       -0.4548
     23 C           4.1251    0.7511    2.1675 C.ar    1  UNL1        0.1362
     24 C           5.3008    0.4334    2.8315 C.ar    1  UNL1       -0.0187
     25 C           6.2615   -0.3109    2.2015 C.ar    1  UNL1       -0.0582
     26 C           6.0736   -0.7510    0.9112 C.ar    1  UNL1       -0.0610
     27 C           4.9203   -0.4575    0.2188 C.ar    1  UNL1       -0.0504
     28 C           3.9576    0.2980    0.8716 C.ar    1  UNL1        0.0279
     29 C           2.7202    0.7452    0.4492 C.ar    1  UNL1        0.0282
     30 C           2.0552    0.5761   -0.7656 C.ar    1  UNL1       -0.0457
     31 H          -5.9858    2.0454   -0.3688 H       1  UNL1        0.0660
     32 H          -6.0526    0.6367    0.7853 H       1  UNL1        0.0660
     33 H          -4.9572    2.0393    1.1109 H       1  UNL1        0.0660
     34 H          -4.3487    0.4548    2.2285 H       1  UNL1        0.0654
     35 H          -2.6822   -0.7724    3.6028 H       1  UNL1        0.0620
     36 H          -0.7449   -1.8109    2.5196 H       1  UNL1        0.0646
     37 H          -2.7652    0.6093   -1.9456 H       1  UNL1        0.0554
     38 H          -3.5115   -1.0909   -3.2453 H       1  UNL1        0.0319
     39 H          -3.2754   -2.1928   -1.7929 H       1  UNL1        0.0319
     40 H          -1.8157   -2.1546   -4.2752 H       1  UNL1        0.0750
     41 H           0.6844    1.0217   -3.0470 H       1  UNL1        0.0514
     42 H          -0.6402    1.9222   -2.2993 H       1  UNL1        0.0514
     43 H          -0.7075    2.2807   -0.0078 H       1  UNL1        0.0622
     44 H           0.4934    2.5666    2.1443 H       1  UNL1        0.0654
     45 H           5.4783    0.7674    3.8462 H       1  UNL1        0.0654
     46 H           7.2011   -0.5686    2.7185 H       1  UNL1        0.0619
     47 H           6.8414   -1.3428    0.4126 H       1  UNL1        0.0618
     48 H           4.7097   -0.7668   -0.7869 H       1  UNL1        0.0625
     49 H           2.5075    0.0164   -1.5669 H       1  UNL1        0.0628
@<TRIPOS>BOND
     1     1     2    1
     2     2     3    1
     3     3     4   ar
     4     4     5   ar
     5     5     6   ar
     6     6     7   ar
     7     7     8    1
     8     7     9   ar
     9     9    10    1
    10    10    11    1
    11    11    12    1
    12    12    13    1
    13    12    14    1
    14    14    15    2
    15    14    16   am
    16    16    17    1
    17    17    18    1
    18    18    19   ar
    19    19    20   ar
    20    20    21   ar
    21    21    22   ar
    22    22    23   ar
    23    23    24   ar
    24    24    25   ar
    25    25    26   ar
    26    26    27   ar
    27    27    28   ar
    28    28    29   ar
    29    29    30   ar
    30     9     3   ar
    31    16    10    1
    32    30    18   ar
    33    29    21   ar
    34    28    23   ar
    35     1    31    1
    36     1    32    1
    37     1    33    1
    38     4    34    1
    39     5    35    1
    40     6    36    1
    41    10    37    1
    42    11    38    1
    43    11    39    1
    44    12    40    1
    45    17    41    1
    46    17    42    1
    47    19    43    1
    48    20    44    1
    49    24    45    1
    50    25    46    1
    51    26    47    1
    52    27    48    1
    53    30    49    1
