@<TRIPOS>MOLECULE
*****
 65 69 0 0 0
SMALL
GASTEIGER

@<TRIPOS>ATOM
      1 C          11.1024    1.2909   -1.4496 C.3     1  UNL1        0.0788
      2 O           9.8231    1.4677   -1.9996 O.3     1  UNL1       -0.4951
      3 C           8.7282    0.8558   -1.4384 C.ar    1  UNL1        0.1202
      4 C           8.8850    0.0571   -0.3201 C.ar    1  UNL1       -0.0182
      5 C           7.7921   -0.5521    0.2379 C.ar    1  UNL1       -0.0369
      6 C           6.4863   -0.4145   -0.2660 C.ar    1  UNL1        0.0367
      7 N           5.4593   -1.1016    0.4136 N.am    1  UNL1       -0.2508
      8 C           4.1157   -1.0636    0.0331 C.2     1  UNL1        0.4099
      9 O           3.6936   -0.4187   -0.9452 O.2     1  UNL1       -0.2257
     10 O           3.1133   -1.7614    0.7339 O.3     1  UNL1       -0.4113
     11 C           1.7857   -1.7153    0.3454 C.ar    1  UNL1        0.1336
     12 C           1.2080   -2.6090   -0.5320 C.ar    1  UNL1       -0.0174
     13 C          -0.1222   -2.5277   -0.8952 C.ar    1  UNL1       -0.0369
     14 C          -0.9307   -1.5071   -0.3634 C.ar    1  UNL1        0.0347
     15 C          -0.3747   -0.6105    0.5098 C.ar    1  UNL1       -0.0139
     16 C           0.9845   -0.7214    0.8591 C.ar    1  UNL1       -0.0136
     17 C          -1.4275    0.3499    0.9167 C.3     1  UNL1        0.0279
     18 C          -0.8932    1.7611    0.9946 C.3     1  UNL1       -0.0525
     19 C          -2.0186   -0.1105    2.2153 C.3     1  UNL1       -0.0277
     20 C          -3.4300   -0.4732    1.8709 C.3     1  UNL1        0.0015
     21 N          -3.7328    0.2138    0.6461 N.3     1  UNL1       -0.2833
     22 C          -4.2608    1.5371    0.8140 C.3     1  UNL1        0.0046
     23 C          -5.6399    1.5331    1.4094 C.3     1  UNL1       -0.0148
     24 C          -6.5606    0.7764    0.5187 C.ar    1  UNL1       -0.0462
     25 C          -6.7894   -0.5773    0.6306 C.ar    1  UNL1       -0.0585
     26 C          -7.6473   -1.2338   -0.2164 C.ar    1  UNL1       -0.0615
     27 C          -8.3140   -0.5508   -1.2164 C.ar    1  UNL1       -0.0617
     28 C          -8.0819    0.8030   -1.3243 C.ar    1  UNL1       -0.0615
     29 C          -7.2211    1.4632   -0.4749 C.ar    1  UNL1       -0.0585
     30 C          -2.5110    0.1938   -0.1036 C.3     1  UNL1        0.0863
     31 N          -2.3039   -1.1895   -0.5610 N.pl3   1  UNL1       -0.3161
     32 C          -3.3252   -2.0672   -1.1145 C.3     1  UNL1        0.0022
     33 C           6.3463    0.3733   -1.3654 C.ar    1  UNL1       -0.0369
     34 C           7.4550    0.9951   -1.9366 C.ar    1  UNL1       -0.0182
     35 H          11.2955    0.2035   -1.3737 H       1  UNL1        0.0660
     36 H          11.1878    1.7091   -0.4221 H       1  UNL1        0.0660
     37 H          11.8821    1.8031   -2.0564 H       1  UNL1        0.0660
     38 H           9.8713   -0.0858    0.1130 H       1  UNL1        0.0655
     39 H           7.9083   -1.1908    1.1307 H       1  UNL1        0.0637
     40 H           5.7052   -1.6772    1.2535 H       1  UNL1        0.1582
     41 H           1.8667   -3.3850   -0.9221 H       1  UNL1        0.0655
     42 H          -0.5490   -3.2377   -1.5825 H       1  UNL1        0.0637
     43 H           1.3541    0.0197    1.5516 H       1  UNL1        0.0658
     44 H          -1.2016    2.3525    0.1317 H       1  UNL1        0.0239
     45 H           0.2147    1.6734    1.0311 H       1  UNL1        0.0239
     46 H          -1.1851    2.1989    1.9789 H       1  UNL1        0.0239
     47 H          -1.4997   -1.0285    2.5983 H       1  UNL1        0.0287
     48 H          -1.9434    0.6503    3.0082 H       1  UNL1        0.0287
     49 H          -3.4638   -1.5747    1.6304 H       1  UNL1        0.0427
     50 H          -4.1177   -0.2333    2.7050 H       1  UNL1        0.0427
     51 H          -4.3071    2.0795   -0.1435 H       1  UNL1        0.0430
     52 H          -3.6089    2.1371    1.5157 H       1  UNL1        0.0430
     53 H          -5.5954    1.1150    2.4247 H       1  UNL1        0.0326
     54 H          -5.9923    2.6032    1.4632 H       1  UNL1        0.0326
     55 H          -6.2712   -1.1319    1.4149 H       1  UNL1        0.0620
     56 H          -7.7998   -2.2930   -0.0972 H       1  UNL1        0.0618
     57 H          -9.0035   -1.0549   -1.9044 H       1  UNL1        0.0618
     58 H          -8.5808    1.4009   -2.0977 H       1  UNL1        0.0618
     59 H          -7.0482    2.5428   -0.5758 H       1  UNL1        0.0620
     60 H          -2.4645    0.9159   -0.9275 H       1  UNL1        0.0680
     61 H          -3.4738   -2.9122   -0.4420 H       1  UNL1        0.0428
     62 H          -3.0115   -2.4641   -2.1114 H       1  UNL1        0.0428
     63 H          -4.2422   -1.4615   -1.2975 H       1  UNL1        0.0428
     64 H           5.3683    0.5246   -1.8083 H       1  UNL1        0.0637
     65 H           7.3120    1.6190   -2.8156 H       1  UNL1        0.0655
@<TRIPOS>BOND
     1     1     2    1
     2     2     3    1
     3     3     4   ar
     4     4     5   ar
     5     5     6   ar
     6     6     7    1
     7     7     8   am
     8     8     9    2
     9     8    10    1
    10    10    11    1
    11    11    12   ar
    12    12    13   ar
    13    13    14   ar
    14    14    15   ar
    15    15    16   ar
    16    15    17    1
    17    17    18    1
    18    17    19    1
    19    19    20    1
    20    20    21    1
    21    21    22    1
    22    22    23    1
    23    23    24    1
    24    24    25   ar
    25    25    26   ar
    26    26    27   ar
    27    27    28   ar
    28    28    29   ar
    29    21    30    1
    30    30    31    1
    31    31    32    1
    32     6    33   ar
    33    33    34   ar
    34    34     3   ar
    35    16    11   ar
    36    30    17    1
    37    31    14    1
    38    29    24   ar
    39     1    35    1
    40     1    36    1
    41     1    37    1
    42     4    38    1
    43     5    39    1
    44     7    40    1
    45    12    41    1
    46    13    42    1
    47    16    43    1
    48    18    44    1
    49    18    45    1
    50    18    46    1
    51    19    47    1
    52    19    48    1
    53    20    49    1
    54    20    50    1
    55    22    51    1
    56    22    52    1
    57    23    53    1
    58    23    54    1
    59    25    55    1
    60    26    56    1
    61    27    57    1
    62    28    58    1
    63    29    59    1
    64    30    60    1
    65    32    61    1
    66    32    62    1
    67    32    63    1
    68    33    64    1
    69    34    65    1
