
     RDKit          3D

 36 38  0  0  0  0  0  0  0  0999 V2000
   -0.1854    2.7664    0.6561 C   0  0  0  0  0  0  0  0  0  0  0  0
   -0.7917    1.5275    0.3697 N   0  0  0  0  0  0  0  0  0  0  0  0
   -0.3678    0.2260   -0.0153 C   0  0  0  0  0  0  0  0  0  0  0  0
    1.0745    0.1585   -0.1213 C   0  0  0  0  0  0  0  0  0  0  0  0
    1.9964    0.9870    0.0507 O   0  0  0  0  0  0  0  0  0  0  0  0
    1.9031   -0.9370   -0.4729 N   0  0  0  0  0  0  0  0  0  0  0  0
    3.2974   -0.6721   -0.4846 C   0  0  0  0  0  0  0  0  0  0  0  0
    4.0619   -0.2394   -1.4943 N   0  0  0  0  0  0  0  0  0  0  0  0
    5.3741   -0.0352   -1.3481 C   0  0  0  0  0  0  0  0  0  0  0  0
    6.0201   -0.2633   -0.1287 C   0  0  0  0  0  0  0  0  0  0  0  0
    5.2474   -0.7138    0.9380 C   0  0  0  0  0  0  0  0  0  0  0  0
    3.8929   -0.9153    0.7547 C   0  0  0  0  0  0  0  0  0  0  0  0
   -1.1603   -0.7804   -0.2438 C   0  0  0  0  0  0  0  0  0  0  0  0
   -0.6767   -2.0212   -0.6166 O   0  0  0  0  0  0  0  0  0  0  0  0
   -2.5842   -0.7395   -0.1425 C   0  0  0  0  0  0  0  0  0  0  0  0
   -3.3035    0.3548    0.2068 C   0  0  0  0  0  0  0  0  0  0  0  0
   -4.6501    0.4406    0.3097 C   0  0  0  0  0  0  0  0  0  0  0  0
   -5.4350   -0.6833    0.0404 C   0  0  0  0  0  0  0  0  0  0  0  0
   -4.7599   -1.8291   -0.3205 C   0  0  0  0  0  0  0  0  0  0  0  0
   -3.3838   -1.8337   -0.4025 C   0  0  0  0  0  0  0  0  0  0  0  0
   -2.4942    1.8458    0.5868 S   0  0  0  0  0  0  0  0  0  0  0  0
   -2.6800    2.1365    2.0668 O   0  0  0  0  0  0  0  0  0  0  0  0
   -2.9660    2.9804   -0.2721 O   0  0  0  0  0  0  0  0  0  0  0  0
    0.9122    2.7772    0.5687 H   0  0  0  0  0  0  0  0  0  0  0  0
   -0.6273    3.6172    0.0458 H   0  0  0  0  0  0  0  0  0  0  0  0
   -0.4326    3.0484    1.7305 H   0  0  0  0  0  0  0  0  0  0  0  0
    1.4754   -1.8763   -0.7052 H   0  0  0  0  0  0  0  0  0  0  0  0
    5.9421    0.3202   -2.2170 H   0  0  0  0  0  0  0  0  0  0  0  0
    7.0863   -0.0842   -0.0557 H   0  0  0  0  0  0  0  0  0  0  0  0
    5.7995   -0.8714    1.8497 H   0  0  0  0  0  0  0  0  0  0  0  0
    3.4204   -1.2639    1.6622 H   0  0  0  0  0  0  0  0  0  0  0  0
   -0.9935   -2.5053   -1.4552 H   0  0  0  0  0  0  0  0  0  0  0  0
   -5.2348    1.3145    0.5891 H   0  0  0  0  0  0  0  0  0  0  0  0
   -6.5061   -0.7231    0.0920 H   0  0  0  0  0  0  0  0  0  0  0  0
   -5.3279   -2.7172   -0.5362 H   0  0  0  0  0  0  0  0  0  0  0  0
   -2.9430   -2.7962   -0.6982 H   0  0  0  0  0  0  0  0  0  0  0  0
  1  2  1  0
  2  3  1  0
  3  4  1  0
  4  5  2  0
  4  6  1  0
  6  7  1  0
  7  8  2  0
  8  9  1  0
  9 10  2  0
 10 11  1  0
 11 12  2  0
  3 13  2  0
 13 14  1  0
 13 15  1  0
 15 16  2  0
 16 17  1  0
 17 18  2  0
 18 19  1  0
 19 20  2  0
 16 21  1  0
 21 22  2  0
 21 23  2  0
 21  2  1  0
 12  7  1  0
 20 15  1  0
  1 24  1  0
  1 25  1  0
  1 26  1  0
  6 27  1  0
  9 28  1  0
 10 29  1  0
 11 30  1  0
 12 31  1  0
 14 32  1  0
 17 33  1  0
 18 34  1  0
 19 35  1  0
 20 36  1  0
M  END
$$$$
