@<TRIPOS>MOLECULE
*****
 43 44 0 0 0
SMALL
GASTEIGER

@<TRIPOS>ATOM
      1 C           1.0208    0.2574   -1.5515 C.3     1  UNL1        0.0732
      2 C           0.8725   -0.3753   -2.9442 C.3     1  UNL1       -0.0370
      3 O           2.3885    0.3482   -1.2516 O.3     1  UNL1       -0.3900
      4 C           0.2681   -0.5953   -0.5770 C.3     1  UNL1        0.0629
      5 C           0.2997   -0.0809    0.8086 C.3     1  UNL1       -0.0296
      6 C           1.6599    0.0298    1.4004 C.3     1  UNL1       -0.0511
      7 C           1.5671    0.5008    2.8505 C.3     1  UNL1       -0.0530
      8 C           0.9036    1.8479    2.9400 C.3     1  UNL1       -0.0533
      9 C           1.6653    2.8789    2.1386 C.3     1  UNL1       -0.0559
     10 C           3.0778    3.0592    2.6085 C.3     1  UNL1       -0.0653
     11 N          -1.1246   -0.7915   -1.0296 N.ar    1  UNL1       -0.3093
     12 C          -2.0195    0.1833   -0.7788 C.ar    1  UNL1        0.0986
     13 N          -3.1789   -0.2569   -1.2911 N.ar    1  UNL1       -0.2306
     14 C          -3.0350   -1.4530   -1.8425 C.ar    1  UNL1        0.1472
     15 C          -3.7889   -2.4018   -2.5014 C.ar    1  UNL1        0.1472
     16 N          -5.1619   -2.0919   -2.6980 N.pl3   1  UNL1       -0.3413
     17 N          -3.2536   -3.5568   -2.9328 N.ar    1  UNL1       -0.2188
     18 C          -1.9431   -3.8689   -2.7520 C.ar    1  UNL1        0.1205
     19 N          -1.1593   -2.9692   -2.1097 N.ar    1  UNL1       -0.2160
     20 C          -1.6952   -1.8187   -1.6805 C.ar    1  UNL1        0.1656
     21 H           0.6303    1.2880   -1.5982 H       1  UNL1        0.0611
     22 H           1.4520    0.2150   -3.6646 H       1  UNL1        0.0255
     23 H          -0.1896   -0.3299   -3.2576 H       1  UNL1        0.0255
     24 H           1.2806   -1.4071   -2.9011 H       1  UNL1        0.0255
     25 H           2.7664    0.9502   -1.9560 H       1  UNL1        0.2099
     26 H           0.6825   -1.6349   -0.5785 H       1  UNL1        0.0554
     27 H          -0.2934   -0.7567    1.4923 H       1  UNL1        0.0286
     28 H          -0.1812    0.9359    0.8241 H       1  UNL1        0.0286
     29 H           2.1900   -0.9407    1.3451 H       1  UNL1        0.0266
     30 H           2.2806    0.7922    0.8778 H       1  UNL1        0.0266
     31 H           2.5850    0.4650    3.2765 H       1  UNL1        0.0265
     32 H           0.8927   -0.2271    3.4022 H       1  UNL1        0.0265
     33 H          -0.1478    1.8072    2.5955 H       1  UNL1        0.0265
     34 H           0.9294    2.1935    4.0173 H       1  UNL1        0.0265
     35 H           1.5891    2.6796    1.0480 H       1  UNL1        0.0263
     36 H           1.1280    3.8641    2.2714 H       1  UNL1        0.0263
     37 H           3.6332    3.6019    1.8037 H       1  UNL1        0.0230
     38 H           3.6123    2.1257    2.8000 H       1  UNL1        0.0230
     39 H           3.1025    3.7189    3.5211 H       1  UNL1        0.0230
     40 H          -1.9492    1.1445   -0.2882 H       1  UNL1        0.1029
     41 H          -5.6534   -2.3851   -1.8117 H       1  UNL1        0.1438
     42 H          -6.0875   -2.1403   -2.2200 H       1  UNL1        0.1438
     43 H          -1.6154   -4.8058   -3.1290 H       1  UNL1        0.1048
@<TRIPOS>BOND
     1     1     2    1
     2     1     3    1
     3     1     4    1
     4     4     5    1
     5     5     6    1
     6     6     7    1
     7     7     8    1
     8     8     9    1
     9     9    10    1
    10     4    11    1
    11    11    12   ar
    12    12    13   ar
    13    13    14   ar
    14    14    15   ar
    15    15    16    1
    16    15    17   ar
    17    17    18   ar
    18    18    19   ar
    19    19    20   ar
    20    20    11   ar
    21    20    14   ar
    22     1    21    1
    23     2    22    1
    24     2    23    1
    25     2    24    1
    26     3    25    1
    27     4    26    1
    28     5    27    1
    29     5    28    1
    30     6    29    1
    31     6    30    1
    32     7    31    1
    33     7    32    1
    34     8    33    1
    35     8    34    1
    36     9    35    1
    37     9    36    1
    38    10    37    1
    39    10    38    1
    40    10    39    1
    41    12    40    1
    42    16    41    1
    43    16    42    1
    44    18    43    1
