@<TRIPOS>MOLECULE
*****
 31 30 0 0 0
SMALL
GASTEIGER

@<TRIPOS>ATOM
      1 O          -2.7825    2.0451    0.2501 O.3     1  UNL1       -0.3924
      2 C          -3.2112    0.9252   -0.4383 C.3     1  UNL1        0.0727
      3 C          -2.7826   -0.3730    0.1898 C.3     1  UNL1        0.1065
      4 O          -3.2960   -0.4669    1.4840 O.3     1  UNL1       -0.3869
      5 C          -1.2976   -0.5288    0.2596 C.3     1  UNL1        0.1114
      6 O          -1.0402   -1.7877    0.8143 O.3     1  UNL1       -0.3865
      7 C          -0.6831   -0.5282   -1.1336 C.3     1  UNL1        0.1115
      8 O          -1.2737   -1.5375   -1.8899 O.3     1  UNL1       -0.3865
      9 C           0.7860   -0.8321   -1.0900 C.3     1  UNL1        0.1073
     10 O           0.9843   -2.0720   -0.5023 O.3     1  UNL1       -0.3868
     11 C           1.5641    0.2119   -0.3175 C.3     1  UNL1        0.0875
     12 O           2.9134   -0.1066   -0.3427 O.3     1  UNL1       -0.2841
     13 P           3.8210    1.0384    0.5119 P.3     1  UNL1        0.4724
     14 O           3.9001    2.4760   -0.3444 O.3     1  UNL1       -0.3026
     15 O           5.3711    0.4429    0.8280 O.3     1  UNL1       -0.3026
     16 O           3.1630    1.2565    1.8765 O.2     1  UNL1       -0.2275
     17 H          -3.1446    2.8264   -0.2335 H       1  UNL1        0.2095
     18 H          -2.9312    0.9812   -1.4925 H       1  UNL1        0.0584
     19 H          -4.3241    0.9383   -0.3967 H       1  UNL1        0.0584
     20 H          -3.1752   -1.1805   -0.4626 H       1  UNL1        0.0643
     21 H          -2.6852   -0.0318    2.1340 H       1  UNL1        0.2100
     22 H          -0.8189    0.2311    0.8851 H       1  UNL1        0.0647
     23 H          -1.7455   -2.0116    1.4776 H       1  UNL1        0.2100
     24 H          -0.8859    0.4321   -1.6381 H       1  UNL1        0.0647
     25 H          -1.0709   -2.4194   -1.4956 H       1  UNL1        0.2100
     26 H           1.1414   -0.8776   -2.1315 H       1  UNL1        0.0643
     27 H           1.9401   -2.3542   -0.5738 H       1  UNL1        0.2100
     28 H           1.2346    0.1286    0.7588 H       1  UNL1        0.0592
     29 H           1.3267    1.2199   -0.6558 H       1  UNL1        0.0592
     30 H           3.4511    2.3545   -1.2245 H       1  UNL1        0.2220
     31 H           5.5511   -0.4003    0.3311 H       1  UNL1        0.2220
@<TRIPOS>BOND
     1     1     2    1
     2     2     3    1
     3     3     4    1
     4     3     5    1
     5     5     6    1
     6     5     7    1
     7     7     8    1
     8     7     9    1
     9     9    10    1
    10     9    11    1
    11    11    12    1
    12    12    13    1
    13    13    14    1
    14    13    15    1
    15    13    16    2
    16     1    17    1
    17     2    18    1
    18     2    19    1
    19     3    20    1
    20     4    21    1
    21     5    22    1
    22     6    23    1
    23     7    24    1
    24     8    25    1
    25     9    26    1
    26    10    27    1
    27    11    28    1
    28    11    29    1
    29    14    30    1
    30    15    31    1
