
     RDKit          3D

 31 30  0  0  0  0  0  0  0  0999 V2000
   -2.7825    2.0451    0.2501 O   0  0  0  0  0  0  0  0  0  0  0  0
   -3.2112    0.9252   -0.4383 C   0  0  0  0  0  0  0  0  0  0  0  0
   -2.7826   -0.3730    0.1898 C   0  0  2  0  0  0  0  0  0  0  0  0
   -3.2960   -0.4669    1.4840 O   0  0  0  0  0  0  0  0  0  0  0  0
   -1.2976   -0.5288    0.2596 C   0  0  1  0  0  0  0  0  0  0  0  0
   -1.0402   -1.7877    0.8143 O   0  0  0  0  0  0  0  0  0  0  0  0
   -0.6831   -0.5282   -1.1336 C   0  0  2  0  0  0  0  0  0  0  0  0
   -1.2737   -1.5375   -1.8899 O   0  0  0  0  0  0  0  0  0  0  0  0
    0.7860   -0.8321   -1.0900 C   0  0  2  0  0  0  0  0  0  0  0  0
    0.9843   -2.0720   -0.5023 O   0  0  0  0  0  0  0  0  0  0  0  0
    1.5641    0.2119   -0.3175 C   0  0  0  0  0  0  0  0  0  0  0  0
    2.9134   -0.1066   -0.3427 O   0  0  0  0  0  0  0  0  0  0  0  0
    3.8210    1.0384    0.5119 P   0  0  0  0  0  0  0  0  0  0  0  0
    3.9001    2.4760   -0.3444 O   0  0  0  0  0  0  0  0  0  0  0  0
    5.3711    0.4429    0.8280 O   0  0  0  0  0  0  0  0  0  0  0  0
    3.1630    1.2565    1.8765 O   0  0  0  0  0  0  0  0  0  0  0  0
   -3.1446    2.8264   -0.2335 H   0  0  0  0  0  0  0  0  0  0  0  0
   -2.9312    0.9812   -1.4925 H   0  0  0  0  0  0  0  0  0  0  0  0
   -4.3241    0.9383   -0.3967 H   0  0  0  0  0  0  0  0  0  0  0  0
   -3.1752   -1.1805   -0.4626 H   0  0  0  0  0  0  0  0  0  0  0  0
   -2.6852   -0.0318    2.1340 H   0  0  0  0  0  0  0  0  0  0  0  0
   -0.8189    0.2311    0.8851 H   0  0  0  0  0  0  0  0  0  0  0  0
   -1.7455   -2.0116    1.4776 H   0  0  0  0  0  0  0  0  0  0  0  0
   -0.8859    0.4321   -1.6381 H   0  0  0  0  0  0  0  0  0  0  0  0
   -1.0709   -2.4194   -1.4956 H   0  0  0  0  0  0  0  0  0  0  0  0
    1.1414   -0.8776   -2.1315 H   0  0  0  0  0  0  0  0  0  0  0  0
    1.9401   -2.3542   -0.5738 H   0  0  0  0  0  0  0  0  0  0  0  0
    1.2346    0.1286    0.7588 H   0  0  0  0  0  0  0  0  0  0  0  0
    1.3267    1.2199   -0.6558 H   0  0  0  0  0  0  0  0  0  0  0  0
    3.4511    2.3545   -1.2245 H   0  0  0  0  0  0  0  0  0  0  0  0
    5.5511   -0.4003    0.3311 H   0  0  0  0  0  0  0  0  0  0  0  0
  1  2  1  0
  2  3  1  0
  3  4  1  0
  3  5  1  0
  5  6  1  0
  5  7  1  0
  7  8  1  0
  7  9  1  0
  9 10  1  0
  9 11  1  0
 11 12  1  0
 12 13  1  0
 13 14  1  0
 13 15  1  0
 13 16  2  0
  1 17  1  0
  2 18  1  0
  2 19  1  0
  3 20  1  6
  4 21  1  0
  5 22  1  1
  6 23  1  0
  7 24  1  6
  8 25  1  0
  9 26  1  6
 10 27  1  0
 11 28  1  0
 11 29  1  0
 14 30  1  0
 15 31  1  0
M  END
$$$$
