
     RDKit          3D

 40 43  0  0  0  0  0  0  0  0999 V2000
    7.4029    0.3137   -0.0845 C   0  0  0  0  0  0  0  0  0  0  0  0
    5.9683    0.7255    0.2378 C   0  0  0  0  0  0  0  0  0  0  0  0
    5.7833    2.0799    0.5266 N   0  0  0  0  0  0  0  0  0  0  0  0
    3.9641    2.0285    0.8278 S   0  0  0  0  0  0  0  0  0  0  0  0
    3.7591    0.3963    0.5529 C   0  0  0  0  0  0  0  0  0  0  0  0
    2.4748   -0.3727    0.6263 C   0  0  0  0  0  0  0  0  0  0  0  0
    2.0872   -1.3083    1.4749 N   0  0  0  0  0  0  0  0  0  0  0  0
    0.8454   -1.7222    1.1588 N   0  0  0  0  0  0  0  0  0  0  0  0
    0.4516   -1.0394    0.1022 C   0  0  0  0  0  0  0  0  0  0  0  0
    1.4682   -0.1906   -0.2383 N   0  0  0  0  0  0  0  0  0  0  0  0
    1.3100    0.6765   -1.3664 C   0  0  0  0  0  0  0  0  0  0  0  0
   -0.0408    1.3268   -1.4019 C   0  0  0  0  0  0  0  0  0  0  0  0
   -1.0876    0.4560   -0.7984 N   0  0  0  0  0  0  0  0  0  0  0  0
   -2.2286    1.0979   -0.3245 C   0  0  0  0  0  0  0  0  0  0  0  0
   -2.2863    2.3784   -0.4536 O   0  0  0  0  0  0  0  0  0  0  0  0
   -3.3916    0.4909    0.3141 C   0  0  0  0  0  0  0  0  0  0  0  0
   -3.5085    0.3236    1.6614 C   0  0  0  0  0  0  0  0  0  0  0  0
   -4.6394   -0.2402    2.1846 C   0  0  0  0  0  0  0  0  0  0  0  0
   -5.7124   -0.6679    1.4092 C   0  0  0  0  0  0  0  0  0  0  0  0
   -6.8156   -1.2217    1.9639 F   0  0  0  0  0  0  0  0  0  0  0  0
   -5.5669   -0.4866    0.0517 C   0  0  0  0  0  0  0  0  0  0  0  0
   -4.4361    0.0785   -0.4869 C   0  0  0  0  0  0  0  0  0  0  0  0
   -4.3932    0.2122   -1.8386 F   0  0  0  0  0  0  0  0  0  0  0  0
   -0.7470   -0.9258   -0.7991 C   0  0  2  0  0  0  0  0  0  0  0  0
   -1.7907   -1.9209   -0.5184 C   0  0  0  0  0  0  0  0  0  0  0  0
    4.9500   -0.0308    0.2682 N   0  0  0  0  0  0  0  0  0  0  0  0
    7.9482    0.0610    0.8307 H   0  0  0  0  0  0  0  0  0  0  0  0
    7.8840    1.0852   -0.7115 H   0  0  0  0  0  0  0  0  0  0  0  0
    7.3148   -0.6044   -0.6993 H   0  0  0  0  0  0  0  0  0  0  0  0
    2.0626    1.5164   -1.3143 H   0  0  0  0  0  0  0  0  0  0  0  0
    1.5527    0.1623   -2.3365 H   0  0  0  0  0  0  0  0  0  0  0  0
   -0.0180    2.2823   -0.8272 H   0  0  0  0  0  0  0  0  0  0  0  0
   -0.3518    1.5492   -2.4435 H   0  0  0  0  0  0  0  0  0  0  0  0
   -2.7224    0.6290    2.3243 H   0  0  0  0  0  0  0  0  0  0  0  0
   -4.7773   -0.3946    3.2636 H   0  0  0  0  0  0  0  0  0  0  0  0
   -6.4019   -0.8171   -0.5791 H   0  0  0  0  0  0  0  0  0  0  0  0
   -0.3125   -1.1777   -1.8243 H   0  0  0  0  0  0  0  0  0  0  0  0
   -2.1345   -1.8830    0.5100 H   0  0  0  0  0  0  0  0  0  0  0  0
   -2.5658   -1.9230   -1.3032 H   0  0  0  0  0  0  0  0  0  0  0  0
   -1.2984   -2.9429   -0.6420 H   0  0  0  0  0  0  0  0  0  0  0  0
  1  2  1  0
  2  3  2  0
  3  4  1  0
  4  5  1  0
  5  6  1  0
  6  7  2  0
  7  8  1  0
  8  9  2  0
  9 10  1  0
 10 11  1  0
 11 12  1  0
 12 13  1  0
 13 14  1  0
 14 15  2  0
 14 16  1  0
 16 17  2  0
 17 18  1  0
 18 19  2  0
 19 20  1  0
 19 21  1  0
 21 22  2  0
 22 23  1  0
 13 24  1  0
 24 25  1  0
  5 26  2  0
 26  2  1  0
 10  6  1  0
 22 16  1  0
 24  9  1  0
  1 27  1  0
  1 28  1  0
  1 29  1  0
 11 30  1  0
 11 31  1  0
 12 32  1  0
 12 33  1  0
 17 34  1  0
 18 35  1  0
 21 36  1  0
 24 37  1  6
 25 38  1  0
 25 39  1  0
 25 40  1  0
M  END
$$$$
