@<TRIPOS>MOLECULE
*****
 40 43 0 0 0
SMALL
GASTEIGER

@<TRIPOS>ATOM
      1 C           7.4029    0.3137   -0.0845 C.3     1  UNL1       -0.0039
      2 C           5.9683    0.7255    0.2378 C.ar    1  UNL1        0.1359
      3 N           5.7833    2.0799    0.5266 N.ar    1  UNL1       -0.1939
      4 S           3.9641    2.0285    0.8278 S.2     1  UNL1        0.0369
      5 C           3.7591    0.3963    0.5529 C.ar    1  UNL1        0.1652
      6 C           2.4748   -0.3727    0.6263 C.ar    1  UNL1        0.1910
      7 N           2.0872   -1.3083    1.4749 N.ar    1  UNL1       -0.1269
      8 N           0.8454   -1.7222    1.1588 N.ar    1  UNL1       -0.1320
      9 C           0.4516   -1.0394    0.1022 C.ar    1  UNL1        0.1542
     10 N           1.4682   -0.1906   -0.2383 N.ar    1  UNL1       -0.3062
     11 C           1.3100    0.6765   -1.3664 C.3     1  UNL1        0.0423
     12 C          -0.0408    1.3268   -1.4019 C.3     1  UNL1        0.0338
     13 N          -1.0876    0.4560   -0.7984 N.am    1  UNL1       -0.2859
     14 C          -2.2286    1.0979   -0.3245 C.2     1  UNL1        0.2500
     15 O          -2.2863    2.3784   -0.4536 O.2     1  UNL1       -0.2699
     16 C          -3.3916    0.4909    0.3141 C.ar    1  UNL1        0.0722
     17 C          -3.5085    0.3236    1.6614 C.ar    1  UNL1       -0.0441
     18 C          -4.6394   -0.2402    2.1846 C.ar    1  UNL1       -0.0256
     19 C          -5.7124   -0.6679    1.4092 C.ar    1  UNL1        0.1262
     20 F          -6.8156   -1.2217    1.9639 F       1  UNL1       -0.2054
     21 C          -5.5669   -0.4866    0.0517 C.ar    1  UNL1        0.0095
     22 C          -4.4361    0.0785   -0.4869 C.ar    1  UNL1        0.1382
     23 F          -4.3932    0.2122   -1.8386 F       1  UNL1       -0.2046
     24 C          -0.7470   -0.9258   -0.7991 C.3     1  UNL1        0.0834
     25 C          -1.7907   -1.9209   -0.5184 C.3     1  UNL1       -0.0393
     26 N           4.9500   -0.0308    0.2682 N.ar    1  UNL1       -0.2199
     27 H           7.9482    0.0610    0.8307 H       1  UNL1        0.0308
     28 H           7.8840    1.0852   -0.7115 H       1  UNL1        0.0308
     29 H           7.3148   -0.6044   -0.6993 H       1  UNL1        0.0308
     30 H           2.0626    1.5164   -1.3143 H       1  UNL1        0.0508
     31 H           1.5527    0.1623   -2.3365 H       1  UNL1        0.0508
     32 H          -0.0180    2.2823   -0.8272 H       1  UNL1        0.0482
     33 H          -0.3518    1.5492   -2.4435 H       1  UNL1        0.0482
     34 H          -2.7224    0.6290    2.3243 H       1  UNL1        0.0627
     35 H          -4.7773   -0.3946    3.2636 H       1  UNL1        0.0646
     36 H          -6.4019   -0.8171   -0.5791 H       1  UNL1        0.0675
     37 H          -0.3125   -1.1777   -1.8243 H       1  UNL1        0.0579
     38 H          -2.1345   -1.8830    0.5100 H       1  UNL1        0.0252
     39 H          -2.5658   -1.9230   -1.3032 H       1  UNL1        0.0252
     40 H          -1.2984   -2.9429   -0.6420 H       1  UNL1        0.0252
@<TRIPOS>BOND
     1     1     2    1
     2     2     3   ar
     3     3     4   ar
     4     4     5   ar
     5     5     6    1
     6     6     7   ar
     7     7     8   ar
     8     8     9   ar
     9     9    10   ar
    10    10    11    1
    11    11    12    1
    12    12    13    1
    13    13    14   am
    14    14    15    2
    15    14    16    1
    16    16    17   ar
    17    17    18   ar
    18    18    19   ar
    19    19    20    1
    20    19    21   ar
    21    21    22   ar
    22    22    23    1
    23    13    24    1
    24    24    25    1
    25     5    26   ar
    26    26     2   ar
    27    10     6   ar
    28    22    16   ar
    29    24     9    1
    30     1    27    1
    31     1    28    1
    32     1    29    1
    33    11    30    1
    34    11    31    1
    35    12    32    1
    36    12    33    1
    37    17    34    1
    38    18    35    1
    39    21    36    1
    40    24    37    1
    41    25    38    1
    42    25    39    1
    43    25    40    1
