@<TRIPOS>MOLECULE
*****
 55 59 0 0 0
SMALL
GASTEIGER

@<TRIPOS>ATOM
      1 C           8.6792    1.8757   -0.1601 C.ar    1  UNL1        0.0281
      2 C           7.5187    1.1327   -0.0236 C.ar    1  UNL1       -0.0357
      3 C           7.3340   -0.0539   -0.6893 C.ar    1  UNL1       -0.0100
      4 C           6.1088   -0.8097   -0.5281 C.ar    1  UNL1        0.0461
      5 C           5.9983   -2.1658   -0.2999 C.ar    1  UNL1        0.0596
      6 N           4.6998   -2.4438   -0.2119 N.ar    1  UNL1       -0.1727
      7 N           3.9646   -1.3599   -0.3678 N.ar    1  UNL1       -0.2206
      8 C           2.6440   -1.1193   -0.3664 C.ar    1  UNL1        0.0406
      9 C           2.1192    0.1421   -0.5601 C.ar    1  UNL1        0.0184
     10 C           0.6914    0.3950   -0.5587 C.ar    1  UNL1       -0.0148
     11 C           0.1702    1.6199   -0.1202 C.ar    1  UNL1       -0.0505
     12 C          -1.2118    1.7755   -0.1509 C.ar    1  UNL1       -0.0194
     13 C          -2.0537    0.7815   -0.5899 C.ar    1  UNL1        0.1206
     14 O          -3.4097    0.8853   -0.6387 O.3     1  UNL1       -0.4907
     15 C          -4.1820    2.0055   -0.2588 C.3     1  UNL1        0.1022
     16 C          -5.6552    1.7333   -0.4513 C.3     1  UNL1        0.0331
     17 N          -6.1601    0.6349    0.3115 N.3     1  UNL1       -0.2991
     18 C          -6.1885    0.8640    1.7261 C.3     1  UNL1       -0.0010
     19 C          -6.7615   -0.3655    2.3881 C.3     1  UNL1       -0.0402
     20 C          -5.7956   -1.5074    2.2522 C.3     1  UNL1       -0.0507
     21 C          -4.9670   -1.4185    0.9993 C.3     1  UNL1       -0.0402
     22 C          -5.7107   -0.6623   -0.0743 C.3     1  UNL1       -0.0010
     23 C          -1.4826   -0.4095   -1.0122 C.ar    1  UNL1       -0.0194
     24 C          -0.1339   -0.6266   -1.0076 C.ar    1  UNL1       -0.0505
     25 C           3.0051    1.1639   -0.7580 C.ar    1  UNL1        0.0391
     26 N           4.3008    0.8850   -0.7523 N.ar    1  UNL1       -0.2350
     27 C           4.8146   -0.3427   -0.5639 C.ar    1  UNL1        0.1632
     28 C           8.3489   -0.4856   -1.5045 C.ar    1  UNL1       -0.0357
     29 C           9.4872    0.2414   -1.6397 C.ar    1  UNL1        0.0281
     30 N           9.6387    1.4032   -0.9724 N.ar    1  UNL1       -0.2632
     31 H           8.8589    2.7968    0.3380 H       1  UNL1        0.0830
     32 H           6.7647    1.5375    0.6370 H       1  UNL1        0.0639
     33 H           6.8205   -2.8588   -0.2121 H       1  UNL1        0.0855
     34 H           1.9473   -1.9370   -0.2087 H       1  UNL1        0.0837
     35 H           0.8333    2.4016    0.2251 H       1  UNL1        0.0625
     36 H          -1.6074    2.7219    0.1885 H       1  UNL1        0.0654
     37 H          -3.9215    2.8228   -0.9673 H       1  UNL1        0.0709
     38 H          -3.9433    2.3664    0.7510 H       1  UNL1        0.0709
     39 H          -5.8363    1.5800   -1.5185 H       1  UNL1        0.0460
     40 H          -6.1910    2.6439   -0.1330 H       1  UNL1        0.0460
     41 H          -5.2466    1.1613    2.1845 H       1  UNL1        0.0427
     42 H          -6.9242    1.6901    1.9100 H       1  UNL1        0.0427
     43 H          -7.7309   -0.6354    1.9249 H       1  UNL1        0.0278
     44 H          -6.9139   -0.1331    3.4441 H       1  UNL1        0.0278
     45 H          -5.1497   -1.5111    3.1746 H       1  UNL1        0.0266
     46 H          -6.3954   -2.4608    2.3053 H       1  UNL1        0.0266
     47 H          -4.8163   -2.4599    0.5855 H       1  UNL1        0.0278
     48 H          -3.9595   -1.0479    1.2125 H       1  UNL1        0.0278
     49 H          -5.1645   -0.6047   -1.0138 H       1  UNL1        0.0427
     50 H          -6.6298   -1.2836   -0.2941 H       1  UNL1        0.0427
     51 H          -2.1141   -1.2293   -1.3704 H       1  UNL1        0.0654
     52 H           0.2917   -1.5656   -1.3421 H       1  UNL1        0.0625
     53 H           2.6431    2.1547   -0.9113 H       1  UNL1        0.0837
     54 H           8.2463   -1.4212   -2.0523 H       1  UNL1        0.0639
     55 H          10.3271   -0.0521   -2.2741 H       1  UNL1        0.0830
@<TRIPOS>BOND
     1     1     2   ar
     2     2     3   ar
     3     3     4    1
     4     4     5   ar
     5     5     6   ar
     6     6     7   ar
     7     7     8   ar
     8     8     9   ar
     9     9    10    1
    10    10    11   ar
    11    11    12   ar
    12    12    13   ar
    13    13    14    1
    14    14    15    1
    15    15    16    1
    16    16    17    1
    17    17    18    1
    18    18    19    1
    19    19    20    1
    20    20    21    1
    21    21    22    1
    22    13    23   ar
    23    23    24   ar
    24     9    25   ar
    25    25    26   ar
    26    26    27   ar
    27     3    28   ar
    28    28    29   ar
    29    29    30   ar
    30    30     1   ar
    31    27     4   ar
    32    27     7   ar
    33    24    10   ar
    34    22    17    1
    35     1    31    1
    36     2    32    1
    37     5    33    1
    38     8    34    1
    39    11    35    1
    40    12    36    1
    41    15    37    1
    42    15    38    1
    43    16    39    1
    44    16    40    1
    45    18    41    1
    46    18    42    1
    47    19    43    1
    48    19    44    1
    49    20    45    1
    50    20    46    1
    51    21    47    1
    52    21    48    1
    53    22    49    1
    54    22    50    1
    55    23    51    1
    56    24    52    1
    57    25    53    1
    58    28    54    1
    59    29    55    1
