@<TRIPOS>MOLECULE
*****
 27 28 0 0 0
SMALL
GASTEIGER

@<TRIPOS>ATOM
      1 O           1.3536    2.0307   -1.3186 O.3     1  UNL1       -0.5050
      2 C           1.8665    1.0302   -0.5407 C.ar    1  UNL1        0.1400
      3 C           1.3192   -0.2612   -0.4822 C.ar    1  UNL1        0.0196
      4 C           0.1029   -0.5853   -1.2207 C.3     1  UNL1        0.0075
      5 C          -1.1893   -0.4166   -0.5859 C.ar    1  UNL1        0.0196
      6 C          -1.9277    0.6352   -0.1241 C.ar    1  UNL1        0.1400
      7 O          -1.2982    1.8625   -0.2141 O.3     1  UNL1       -0.5050
      8 C          -3.1870    0.6850    0.4154 C.ar    1  UNL1        0.0840
      9 CL         -3.9076    2.1740    0.9342 Cl      1  UNL1       -0.0797
     10 C          -3.8660   -0.5363    0.5268 C.ar    1  UNL1       -0.0200
     11 C          -3.2195   -1.6824    0.0896 C.ar    1  UNL1        0.0611
     12 CL         -4.2124   -3.1098    0.3066 Cl      1  UNL1       -0.0820
     13 C          -1.9531   -1.5985   -0.4340 C.ar    1  UNL1        0.0663
     14 CL         -1.4649   -3.2250   -0.9450 Cl      1  UNL1       -0.0816
     15 C           2.0472   -1.0608    0.3713 C.ar    1  UNL1        0.0663
     16 CL          1.5716   -2.7215    0.6037 Cl      1  UNL1       -0.0816
     17 C           3.1638   -0.6930    1.0946 C.ar    1  UNL1        0.0611
     18 CL          4.0127   -1.7932    2.1543 Cl      1  UNL1       -0.0820
     19 C           3.6427    0.5721    0.9958 C.ar    1  UNL1       -0.0200
     20 C           2.9899    1.4693    0.1619 C.ar    1  UNL1        0.0840
     21 CL          3.6464    3.0879    0.0649 Cl      1  UNL1       -0.0797
     22 H           1.2675    2.9882   -1.0168 H       1  UNL1        0.2922
     23 H           0.1105    0.1061   -2.1343 H       1  UNL1        0.0365
     24 H           0.1624   -1.5967   -1.7209 H       1  UNL1        0.0365
     25 H          -0.6924    2.2277    0.5145 H       1  UNL1        0.2922
     26 H          -4.8531   -0.4767    0.9545 H       1  UNL1        0.0648
     27 H           4.5142    0.8882    1.5493 H       1  UNL1        0.0648
@<TRIPOS>BOND
     1     1     2    1
     2     2     3   ar
     3     3     4    1
     4     4     5    1
     5     5     6   ar
     6     6     7    1
     7     6     8   ar
     8     8     9    1
     9     8    10   ar
    10    10    11   ar
    11    11    12    1
    12    11    13   ar
    13    13    14    1
    14     3    15   ar
    15    15    16    1
    16    15    17   ar
    17    17    18    1
    18    17    19   ar
    19    19    20   ar
    20    20    21    1
    21    20     2   ar
    22    13     5   ar
    23     1    22    1
    24     4    23    1
    25     4    24    1
    26     7    25    1
    27    10    26    1
    28    19    27    1
