
     RDKit          3D

 27 28  0  0  0  0  0  0  0  0999 V2000
    1.3536    2.0307   -1.3186 O   0  0  0  0  0  0  0  0  0  0  0  0
    1.8665    1.0302   -0.5407 C   0  0  0  0  0  0  0  0  0  0  0  0
    1.3192   -0.2612   -0.4822 C   0  0  0  0  0  0  0  0  0  0  0  0
    0.1029   -0.5853   -1.2207 C   0  0  0  0  0  0  0  0  0  0  0  0
   -1.1893   -0.4166   -0.5859 C   0  0  0  0  0  0  0  0  0  0  0  0
   -1.9277    0.6352   -0.1241 C   0  0  0  0  0  0  0  0  0  0  0  0
   -1.2982    1.8625   -0.2141 O   0  0  0  0  0  0  0  0  0  0  0  0
   -3.1870    0.6850    0.4154 C   0  0  0  0  0  0  0  0  0  0  0  0
   -3.9076    2.1740    0.9342 Cl  0  0  0  0  0  0  0  0  0  0  0  0
   -3.8660   -0.5363    0.5268 C   0  0  0  0  0  0  0  0  0  0  0  0
   -3.2195   -1.6824    0.0896 C   0  0  0  0  0  0  0  0  0  0  0  0
   -4.2124   -3.1098    0.3066 Cl  0  0  0  0  0  0  0  0  0  0  0  0
   -1.9531   -1.5985   -0.4340 C   0  0  0  0  0  0  0  0  0  0  0  0
   -1.4649   -3.2250   -0.9450 Cl  0  0  0  0  0  0  0  0  0  0  0  0
    2.0472   -1.0608    0.3713 C   0  0  0  0  0  0  0  0  0  0  0  0
    1.5716   -2.7215    0.6037 Cl  0  0  0  0  0  0  0  0  0  0  0  0
    3.1638   -0.6930    1.0946 C   0  0  0  0  0  0  0  0  0  0  0  0
    4.0127   -1.7932    2.1543 Cl  0  0  0  0  0  0  0  0  0  0  0  0
    3.6427    0.5721    0.9958 C   0  0  0  0  0  0  0  0  0  0  0  0
    2.9899    1.4693    0.1619 C   0  0  0  0  0  0  0  0  0  0  0  0
    3.6464    3.0879    0.0649 Cl  0  0  0  0  0  0  0  0  0  0  0  0
    1.2675    2.9882   -1.0168 H   0  0  0  0  0  0  0  0  0  0  0  0
    0.1105    0.1061   -2.1343 H   0  0  0  0  0  0  0  0  0  0  0  0
    0.1624   -1.5967   -1.7209 H   0  0  0  0  0  0  0  0  0  0  0  0
   -0.6924    2.2277    0.5145 H   0  0  0  0  0  0  0  0  0  0  0  0
   -4.8531   -0.4767    0.9545 H   0  0  0  0  0  0  0  0  0  0  0  0
    4.5142    0.8882    1.5493 H   0  0  0  0  0  0  0  0  0  0  0  0
  1  2  1  0
  2  3  2  0
  3  4  1  0
  4  5  1  0
  5  6  2  0
  6  7  1  0
  6  8  1  0
  8  9  1  0
  8 10  2  0
 10 11  1  0
 11 12  1  0
 11 13  2  0
 13 14  1  0
  3 15  1  0
 15 16  1  0
 15 17  2  0
 17 18  1  0
 17 19  1  0
 19 20  2  0
 20 21  1  0
 20  2  1  0
 13  5  1  0
  1 22  1  0
  4 23  1  0
  4 24  1  0
  7 25  1  0
 10 26  1  0
 19 27  1  0
M  END
$$$$
