@<TRIPOS>MOLECULE
*****
 43 45 0 0 0
SMALL
GASTEIGER

@<TRIPOS>ATOM
      1 C           4.4080   -1.2910   -0.3320 C.3     1  UNL1       -0.0129
      2 N           4.4334   -0.5519    0.8895 N.3     1  UNL1       -0.3051
      3 C           5.6532    0.2274    0.9842 C.3     1  UNL1       -0.0129
      4 C           3.2645    0.2012    1.1173 C.3     1  UNL1        0.0326
      5 C           3.0861    1.3552    0.1761 C.3     1  UNL1        0.1039
      6 O           2.9733    0.9601   -1.1416 O.3     1  UNL1       -0.4731
      7 C           1.9648    0.1833   -1.6680 C.ar    1  UNL1        0.2536
      8 N           0.9911   -0.2263   -0.8256 N.ar    1  UNL1       -0.1938
      9 C          -0.0365   -0.9866   -1.2572 C.ar    1  UNL1        0.1461
     10 N          -1.1031   -1.4446   -0.4348 N.pl3   1  UNL1       -0.2831
     11 C          -2.2253   -0.6384   -0.1340 C.ar    1  UNL1        0.1245
     12 C          -3.2704   -1.1153    0.6161 C.ar    1  UNL1       -0.0138
     13 C          -4.3717   -0.3505    0.9394 C.ar    1  UNL1       -0.0118
     14 C          -5.4362   -0.7862    1.6836 C.ar    1  UNL1       -0.0538
     15 C          -6.5264   -0.0007    1.9921 C.ar    1  UNL1       -0.0598
     16 C          -6.5691    1.3173    1.5306 C.ar    1  UNL1       -0.0427
     17 C          -5.5003    1.7472    0.7863 C.ar    1  UNL1        0.0501
     18 CL         -5.5275    3.4100    0.1922 Cl      1  UNL1       -0.0829
     19 C          -4.4092    0.9628    0.4764 C.ar    1  UNL1        0.0187
     20 C          -3.3622    1.4188   -0.2670 C.ar    1  UNL1        0.0388
     21 N          -2.3188    0.6538   -0.5589 N.ar    1  UNL1       -0.2395
     22 C          -0.0471   -1.3257   -2.5895 C.ar    1  UNL1        0.0693
     23 N           0.9316   -0.9157   -3.4399 N.ar    1  UNL1       -0.2364
     24 C           1.9550   -0.1537   -2.9947 C.ar    1  UNL1        0.2019
     25 C           2.9958    0.2829   -3.9077 C.1     1  UNL1        0.1246
     26 N           3.8239    0.6517   -4.6361 N.1     1  UNL1       -0.1891
     27 H           3.4616   -1.8739   -0.4083 H       1  UNL1        0.0391
     28 H           4.6140   -0.6746   -1.2341 H       1  UNL1        0.0391
     29 H           5.2601   -2.0434   -0.3391 H       1  UNL1        0.0391
     30 H           6.3459   -0.3089    1.6648 H       1  UNL1        0.0391
     31 H           6.1415    0.2697    0.0064 H       1  UNL1        0.0391
     32 H           5.4635    1.2511    1.3686 H       1  UNL1        0.0391
     33 H           3.2599    0.5810    2.1718 H       1  UNL1        0.0460
     34 H           2.3876   -0.4930    1.0889 H       1  UNL1        0.0460
     35 H           3.9052    2.0816    0.3638 H       1  UNL1        0.0710
     36 H           2.0891    1.8128    0.4688 H       1  UNL1        0.0710
     37 H          -1.0377   -2.4087   -0.0488 H       1  UNL1        0.1550
     38 H          -3.2373   -2.1542    0.9815 H       1  UNL1        0.0658
     39 H          -5.4338   -1.8009    2.0560 H       1  UNL1        0.0624
     40 H          -7.3704   -0.3244    2.5738 H       1  UNL1        0.0618
     41 H          -7.3870    1.9631    1.7425 H       1  UNL1        0.0632
     42 H          -3.4261    2.4594   -0.6092 H       1  UNL1        0.0837
     43 H          -0.8129   -1.9219   -3.0172 H       1  UNL1        0.0865
@<TRIPOS>BOND
     1     1     2    1
     2     2     3    1
     3     2     4    1
     4     4     5    1
     5     5     6    1
     6     6     7    1
     7     7     8   ar
     8     8     9   ar
     9     9    10    1
    10    10    11    1
    11    11    12   ar
    12    12    13   ar
    13    13    14   ar
    14    14    15   ar
    15    15    16   ar
    16    16    17   ar
    17    17    18    1
    18    17    19   ar
    19    19    20   ar
    20    20    21   ar
    21     9    22   ar
    22    22    23   ar
    23    23    24   ar
    24    24    25    1
    25    25    26    3
    26    24     7   ar
    27    21    11   ar
    28    19    13   ar
    29     1    27    1
    30     1    28    1
    31     1    29    1
    32     3    30    1
    33     3    31    1
    34     3    32    1
    35     4    33    1
    36     4    34    1
    37     5    35    1
    38     5    36    1
    39    10    37    1
    40    12    38    1
    41    14    39    1
    42    15    40    1
    43    16    41    1
    44    20    42    1
    45    22    43    1
