
     RDKit          3D

 43 45  0  0  0  0  0  0  0  0999 V2000
    4.4080   -1.2910   -0.3320 C   0  0  0  0  0  0  0  0  0  0  0  0
    4.4334   -0.5519    0.8895 N   0  0  0  0  0  0  0  0  0  0  0  0
    5.6532    0.2274    0.9842 C   0  0  0  0  0  0  0  0  0  0  0  0
    3.2645    0.2012    1.1173 C   0  0  0  0  0  0  0  0  0  0  0  0
    3.0861    1.3552    0.1761 C   0  0  0  0  0  0  0  0  0  0  0  0
    2.9733    0.9601   -1.1416 O   0  0  0  0  0  0  0  0  0  0  0  0
    1.9648    0.1833   -1.6680 C   0  0  0  0  0  0  0  0  0  0  0  0
    0.9911   -0.2263   -0.8256 N   0  0  0  0  0  0  0  0  0  0  0  0
   -0.0365   -0.9866   -1.2572 C   0  0  0  0  0  0  0  0  0  0  0  0
   -1.1031   -1.4446   -0.4348 N   0  0  0  0  0  0  0  0  0  0  0  0
   -2.2253   -0.6384   -0.1340 C   0  0  0  0  0  0  0  0  0  0  0  0
   -3.2704   -1.1153    0.6161 C   0  0  0  0  0  0  0  0  0  0  0  0
   -4.3717   -0.3505    0.9394 C   0  0  0  0  0  0  0  0  0  0  0  0
   -5.4362   -0.7862    1.6836 C   0  0  0  0  0  0  0  0  0  0  0  0
   -6.5264   -0.0007    1.9921 C   0  0  0  0  0  0  0  0  0  0  0  0
   -6.5691    1.3173    1.5306 C   0  0  0  0  0  0  0  0  0  0  0  0
   -5.5003    1.7472    0.7863 C   0  0  0  0  0  0  0  0  0  0  0  0
   -5.5275    3.4100    0.1922 Cl  0  0  0  0  0  0  0  0  0  0  0  0
   -4.4092    0.9628    0.4764 C   0  0  0  0  0  0  0  0  0  0  0  0
   -3.3622    1.4188   -0.2670 C   0  0  0  0  0  0  0  0  0  0  0  0
   -2.3188    0.6538   -0.5589 N   0  0  0  0  0  0  0  0  0  0  0  0
   -0.0471   -1.3257   -2.5895 C   0  0  0  0  0  0  0  0  0  0  0  0
    0.9316   -0.9157   -3.4399 N   0  0  0  0  0  0  0  0  0  0  0  0
    1.9550   -0.1537   -2.9947 C   0  0  0  0  0  0  0  0  0  0  0  0
    2.9958    0.2829   -3.9077 C   0  0  0  0  0  0  0  0  0  0  0  0
    3.8239    0.6517   -4.6361 N   0  0  0  0  0  0  0  0  0  0  0  0
    3.4616   -1.8739   -0.4083 H   0  0  0  0  0  0  0  0  0  0  0  0
    4.6140   -0.6746   -1.2341 H   0  0  0  0  0  0  0  0  0  0  0  0
    5.2601   -2.0434   -0.3391 H   0  0  0  0  0  0  0  0  0  0  0  0
    6.3459   -0.3089    1.6648 H   0  0  0  0  0  0  0  0  0  0  0  0
    6.1415    0.2697    0.0064 H   0  0  0  0  0  0  0  0  0  0  0  0
    5.4635    1.2511    1.3686 H   0  0  0  0  0  0  0  0  0  0  0  0
    3.2599    0.5810    2.1718 H   0  0  0  0  0  0  0  0  0  0  0  0
    2.3876   -0.4930    1.0889 H   0  0  0  0  0  0  0  0  0  0  0  0
    3.9052    2.0816    0.3638 H   0  0  0  0  0  0  0  0  0  0  0  0
    2.0891    1.8128    0.4688 H   0  0  0  0  0  0  0  0  0  0  0  0
   -1.0377   -2.4087   -0.0488 H   0  0  0  0  0  0  0  0  0  0  0  0
   -3.2373   -2.1542    0.9815 H   0  0  0  0  0  0  0  0  0  0  0  0
   -5.4338   -1.8009    2.0560 H   0  0  0  0  0  0  0  0  0  0  0  0
   -7.3704   -0.3244    2.5738 H   0  0  0  0  0  0  0  0  0  0  0  0
   -7.3870    1.9631    1.7425 H   0  0  0  0  0  0  0  0  0  0  0  0
   -3.4261    2.4594   -0.6092 H   0  0  0  0  0  0  0  0  0  0  0  0
   -0.8129   -1.9219   -3.0172 H   0  0  0  0  0  0  0  0  0  0  0  0
  1  2  1  0
  2  3  1  0
  2  4  1  0
  4  5  1  0
  5  6  1  0
  6  7  1  0
  7  8  2  0
  8  9  1  0
  9 10  1  0
 10 11  1  0
 11 12  2  0
 12 13  1  0
 13 14  2  0
 14 15  1  0
 15 16  2  0
 16 17  1  0
 17 18  1  0
 17 19  2  0
 19 20  1  0
 20 21  2  0
  9 22  2  0
 22 23  1  0
 23 24  2  0
 24 25  1  0
 25 26  3  0
 24  7  1  0
 21 11  1  0
 19 13  1  0
  1 27  1  0
  1 28  1  0
  1 29  1  0
  3 30  1  0
  3 31  1  0
  3 32  1  0
  4 33  1  0
  4 34  1  0
  5 35  1  0
  5 36  1  0
 10 37  1  0
 12 38  1  0
 14 39  1  0
 15 40  1  0
 16 41  1  0
 20 42  1  0
 22 43  1  0
M  END
$$$$
