@<TRIPOS>MOLECULE
*****
 51 56 0 0 0
SMALL
GASTEIGER

@<TRIPOS>ATOM
      1 C          -3.9166    0.4666   -2.5554 C.3     1  UNL1       -0.0203
      2 C          -3.4143   -0.3970   -1.4259 C.ar    1  UNL1        0.0660
      3 N          -4.0948   -1.2684   -0.6942 N.ar    1  UNL1       -0.1752
      4 N          -3.3714   -1.8905    0.2141 N.ar    1  UNL1       -0.2556
      5 C          -3.8515   -2.8856    1.1458 C.3     1  UNL1        0.0537
      6 C          -3.3115   -3.0420    2.4955 C.3     1  UNL1       -0.0285
      7 C          -3.0106   -4.0708    1.5161 C.3     1  UNL1       -0.0285
      8 C          -2.1343   -1.3950    0.0685 C.ar    1  UNL1        0.1297
      9 C          -2.1017   -0.4563   -0.9399 C.ar    1  UNL1        0.0305
     10 C          -0.7591    0.1199   -1.1090 C.3     1  UNL1        0.0867
     11 C          -0.6781    1.5816   -0.9548 C.ar    1  UNL1       -0.0220
     12 C           0.4698    2.3067   -1.1449 C.ar    1  UNL1       -0.0551
     13 C           0.5189    3.6734   -0.9652 C.ar    1  UNL1       -0.0431
     14 C          -0.5982    4.3700   -0.5832 C.ar    1  UNL1        0.0410
     15 CL         -0.5588    6.1233   -0.3469 Cl      1  UNL1       -0.0835
     16 C          -1.7647    3.6665   -0.3853 C.ar    1  UNL1       -0.0431
     17 C          -1.7944    2.2862   -0.5715 C.ar    1  UNL1       -0.0551
     18 N           0.0711   -0.5942   -0.1936 N.am    1  UNL1       -0.2389
     19 C           1.4961   -0.4602   -0.0312 C.ar    1  UNL1        0.1313
     20 C           2.3443   -1.2287   -0.8000 C.ar    1  UNL1       -0.0161
     21 C           3.7135   -1.1597   -0.6947 C.ar    1  UNL1       -0.0164
     22 C           4.6487   -1.9672   -1.5014 C.3     1  UNL1       -0.0374
     23 C           4.2237   -0.2702    0.2326 C.ar    1  UNL1        0.1345
     24 N           5.4703    0.0527    0.5957 N.ar    1  UNL1       -0.1276
     25 N           5.3909    0.9760    1.5430 N.ar    1  UNL1       -0.0635
     26 N           4.1470    1.2685    1.8124 N.ar    1  UNL1       -0.2297
     27 C           3.6565    2.2266    2.7851 C.3     1  UNL1        0.0341
     28 C           3.3803    0.5095    1.0129 C.ar    1  UNL1        0.1803
     29 N           2.0404    0.3900    0.8565 N.ar    1  UNL1       -0.2108
     30 C          -0.7621   -1.4867    0.5486 C.2     1  UNL1        0.2711
     31 O          -0.3070   -2.2137    1.4673 O.2     1  UNL1       -0.2679
     32 H          -3.1478    0.4791   -3.3378 H       1  UNL1        0.0293
     33 H          -4.2524    1.4447   -2.2097 H       1  UNL1        0.0293
     34 H          -4.8186   -0.0703   -2.9435 H       1  UNL1        0.0293
     35 H          -4.9301   -3.1473    1.0336 H       1  UNL1        0.0545
     36 H          -2.6498   -2.2527    2.8599 H       1  UNL1        0.0286
     37 H          -4.0178   -3.3477    3.3291 H       1  UNL1        0.0286
     38 H          -3.5059   -5.0815    1.6445 H       1  UNL1        0.0286
     39 H          -2.1090   -4.1814    0.9092 H       1  UNL1        0.0286
     40 H          -0.4136   -0.0742   -2.1777 H       1  UNL1        0.0606
     41 H           1.3596    1.7682   -1.4523 H       1  UNL1        0.0621
     42 H           1.4301    4.2040   -1.1222 H       1  UNL1        0.0632
     43 H          -2.6373    4.2321   -0.0840 H       1  UNL1        0.0632
     44 H          -2.7447    1.8285   -0.3809 H       1  UNL1        0.0621
     45 H           1.9416   -1.9259   -1.5268 H       1  UNL1        0.0655
     46 H           5.2337   -2.6881   -0.9042 H       1  UNL1        0.0278
     47 H           5.3821   -1.2919   -1.9853 H       1  UNL1        0.0278
     48 H           4.0961   -2.5310   -2.2920 H       1  UNL1        0.0278
     49 H           4.0519    3.2456    2.5773 H       1  UNL1        0.0474
     50 H           4.0304    1.9628    3.8135 H       1  UNL1        0.0474
     51 H           2.5589    2.1957    2.8523 H       1  UNL1        0.0474
@<TRIPOS>BOND
     1     1     2    1
     2     2     3   ar
     3     3     4   ar
     4     4     5    1
     5     5     6    1
     6     6     7    1
     7     4     8   ar
     8     8     9   ar
     9     9    10    1
    10    10    11    1
    11    11    12   ar
    12    12    13   ar
    13    13    14   ar
    14    14    15    1
    15    14    16   ar
    16    16    17   ar
    17    10    18    1
    18    18    19    1
    19    19    20   ar
    20    20    21   ar
    21    21    22    1
    22    21    23   ar
    23    23    24   ar
    24    24    25   ar
    25    25    26   ar
    26    26    27    1
    27    26    28   ar
    28    28    29   ar
    29    18    30   am
    30    30    31    2
    31     9     2   ar
    32    17    11   ar
    33    29    19   ar
    34     7     5    1
    35    30     8    1
    36    28    23   ar
    37     1    32    1
    38     1    33    1
    39     1    34    1
    40     5    35    1
    41     6    36    1
    42     6    37    1
    43     7    38    1
    44     7    39    1
    45    10    40    1
    46    12    41    1
    47    13    42    1
    48    16    43    1
    49    17    44    1
    50    20    45    1
    51    22    46    1
    52    22    47    1
    53    22    48    1
    54    27    49    1
    55    27    50    1
    56    27    51    1
