
     RDKit          3D

 51 56  0  0  0  0  0  0  0  0999 V2000
   -3.9166    0.4666   -2.5554 C   0  0  0  0  0  0  0  0  0  0  0  0
   -3.4143   -0.3970   -1.4259 C   0  0  0  0  0  0  0  0  0  0  0  0
   -4.0948   -1.2684   -0.6942 N   0  0  0  0  0  0  0  0  0  0  0  0
   -3.3714   -1.8905    0.2141 N   0  0  0  0  0  0  0  0  0  0  0  0
   -3.8515   -2.8856    1.1458 C   0  0  0  0  0  0  0  0  0  0  0  0
   -3.3115   -3.0420    2.4955 C   0  0  0  0  0  0  0  0  0  0  0  0
   -3.0106   -4.0708    1.5161 C   0  0  0  0  0  0  0  0  0  0  0  0
   -2.1343   -1.3950    0.0685 C   0  0  0  0  0  0  0  0  0  0  0  0
   -2.1017   -0.4563   -0.9399 C   0  0  0  0  0  0  0  0  0  0  0  0
   -0.7591    0.1199   -1.1090 C   0  0  0  0  0  0  0  0  0  0  0  0
   -0.6781    1.5816   -0.9548 C   0  0  0  0  0  0  0  0  0  0  0  0
    0.4698    2.3067   -1.1449 C   0  0  0  0  0  0  0  0  0  0  0  0
    0.5189    3.6734   -0.9652 C   0  0  0  0  0  0  0  0  0  0  0  0
   -0.5982    4.3700   -0.5832 C   0  0  0  0  0  0  0  0  0  0  0  0
   -0.5588    6.1233   -0.3469 Cl  0  0  0  0  0  0  0  0  0  0  0  0
   -1.7647    3.6665   -0.3853 C   0  0  0  0  0  0  0  0  0  0  0  0
   -1.7944    2.2862   -0.5715 C   0  0  0  0  0  0  0  0  0  0  0  0
    0.0711   -0.5942   -0.1936 N   0  0  0  0  0  0  0  0  0  0  0  0
    1.4961   -0.4602   -0.0312 C   0  0  0  0  0  0  0  0  0  0  0  0
    2.3443   -1.2287   -0.8000 C   0  0  0  0  0  0  0  0  0  0  0  0
    3.7135   -1.1597   -0.6947 C   0  0  0  0  0  0  0  0  0  0  0  0
    4.6487   -1.9672   -1.5014 C   0  0  0  0  0  0  0  0  0  0  0  0
    4.2237   -0.2702    0.2326 C   0  0  0  0  0  0  0  0  0  0  0  0
    5.4703    0.0527    0.5957 N   0  0  0  0  0  0  0  0  0  0  0  0
    5.3909    0.9760    1.5430 N   0  0  0  0  0  0  0  0  0  0  0  0
    4.1470    1.2685    1.8124 N   0  0  0  0  0  0  0  0  0  0  0  0
    3.6565    2.2266    2.7851 C   0  0  0  0  0  0  0  0  0  0  0  0
    3.3803    0.5095    1.0129 C   0  0  0  0  0  0  0  0  0  0  0  0
    2.0404    0.3900    0.8565 N   0  0  0  0  0  0  0  0  0  0  0  0
   -0.7621   -1.4867    0.5486 C   0  0  0  0  0  0  0  0  0  0  0  0
   -0.3070   -2.2137    1.4673 O   0  0  0  0  0  0  0  0  0  0  0  0
   -3.1478    0.4791   -3.3378 H   0  0  0  0  0  0  0  0  0  0  0  0
   -4.2524    1.4447   -2.2097 H   0  0  0  0  0  0  0  0  0  0  0  0
   -4.8186   -0.0703   -2.9435 H   0  0  0  0  0  0  0  0  0  0  0  0
   -4.9301   -3.1473    1.0336 H   0  0  0  0  0  0  0  0  0  0  0  0
   -2.6498   -2.2527    2.8599 H   0  0  0  0  0  0  0  0  0  0  0  0
   -4.0178   -3.3477    3.3291 H   0  0  0  0  0  0  0  0  0  0  0  0
   -3.5059   -5.0815    1.6445 H   0  0  0  0  0  0  0  0  0  0  0  0
   -2.1090   -4.1814    0.9092 H   0  0  0  0  0  0  0  0  0  0  0  0
   -0.4136   -0.0742   -2.1777 H   0  0  0  0  0  0  0  0  0  0  0  0
    1.3596    1.7682   -1.4523 H   0  0  0  0  0  0  0  0  0  0  0  0
    1.4301    4.2040   -1.1222 H   0  0  0  0  0  0  0  0  0  0  0  0
   -2.6373    4.2321   -0.0840 H   0  0  0  0  0  0  0  0  0  0  0  0
   -2.7447    1.8285   -0.3809 H   0  0  0  0  0  0  0  0  0  0  0  0
    1.9416   -1.9259   -1.5268 H   0  0  0  0  0  0  0  0  0  0  0  0
    5.2337   -2.6881   -0.9042 H   0  0  0  0  0  0  0  0  0  0  0  0
    5.3821   -1.2919   -1.9853 H   0  0  0  0  0  0  0  0  0  0  0  0
    4.0961   -2.5310   -2.2920 H   0  0  0  0  0  0  0  0  0  0  0  0
    4.0519    3.2456    2.5773 H   0  0  0  0  0  0  0  0  0  0  0  0
    4.0304    1.9628    3.8135 H   0  0  0  0  0  0  0  0  0  0  0  0
    2.5589    2.1957    2.8523 H   0  0  0  0  0  0  0  0  0  0  0  0
  1  2  1  0
  2  3  2  0
  3  4  1  0
  4  5  1  0
  5  6  1  0
  6  7  1  0
  4  8  1  0
  8  9  2  0
  9 10  1  0
 10 11  1  0
 11 12  2  0
 12 13  1  0
 13 14  2  0
 14 15  1  0
 14 16  1  0
 16 17  2  0
 10 18  1  0
 18 19  1  0
 19 20  2  0
 20 21  1  0
 21 22  1  0
 21 23  2  0
 23 24  1  0
 24 25  2  0
 25 26  1  0
 26 27  1  0
 26 28  1  0
 28 29  2  0
 18 30  1  0
 30 31  2  0
  9  2  1  0
 17 11  1  0
 29 19  1  0
  7  5  1  0
 30  8  1  0
 28 23  1  0
  1 32  1  0
  1 33  1  0
  1 34  1  0
  5 35  1  0
  6 36  1  0
  6 37  1  0
  7 38  1  0
  7 39  1  0
 10 40  1  0
 12 41  1  0
 13 42  1  0
 16 43  1  0
 17 44  1  0
 20 45  1  0
 22 46  1  0
 22 47  1  0
 22 48  1  0
 27 49  1  0
 27 50  1  0
 27 51  1  0
M  END
$$$$
