@<TRIPOS>MOLECULE
*****
 109 112 0 0 0
SMALL
GASTEIGER

@<TRIPOS>ATOM
      1 C          -0.1048   -1.0855   -3.4208 C.3     1  UNL1       -0.0626
      2 C          -0.6655   -1.7660   -2.1891 C.3     1  UNL1       -0.0446
      3 C          -0.8046   -3.2570   -2.6050 C.3     1  UNL1       -0.0626
      4 C           0.3867   -1.6597   -1.1243 C.3     1  UNL1       -0.0236
      5 C           0.6824   -0.1918   -0.8197 C.3     1  UNL1        0.0996
      6 N           1.7501   -0.2020    0.2209 N.am    1  UNL1       -0.3025
      7 C           3.0740   -0.4951   -0.1842 C.2     1  UNL1        0.2340
      8 O           3.2624   -0.7448   -1.3979 O.2     1  UNL1       -0.2738
      9 C           4.1708   -0.5034    0.8213 C.3     1  UNL1        0.0997
     10 C           4.6194    0.9302    1.0431 C.3     1  UNL1       -0.0220
     11 C           3.5060    1.8080    1.5094 C.3     1  UNL1       -0.0255
     12 C           3.9576    3.2113    1.7465 C.ar    1  UNL1       -0.0473
     13 C           4.3837    3.5982    3.0099 C.ar    1  UNL1       -0.0586
     14 C           4.8181    4.8678    3.2609 C.ar    1  UNL1       -0.0615
     15 C           4.8379    5.7875    2.2500 C.ar    1  UNL1       -0.0617
     16 C           4.4240    5.4418    0.9874 C.ar    1  UNL1       -0.0615
     17 C           3.9830    4.1625    0.7256 C.ar    1  UNL1       -0.0586
     18 N           5.2713   -1.2417    0.1803 N.am    1  UNL1       -0.3029
     19 C           6.0396   -2.1652    0.9201 C.2     1  UNL1        0.2277
     20 O           5.7354   -2.2891    2.1619 O.2     1  UNL1       -0.2744
     21 C           7.1411   -2.9735    0.3751 C.3     1  UNL1        0.0758
     22 N           7.2828   -2.7879   -1.0550 N.3     1  UNL1       -0.2897
     23 C           8.5361   -3.4179   -1.4787 C.3     1  UNL1        0.0229
     24 C           8.6288   -4.7670   -0.8233 C.3     1  UNL1        0.0604
     25 O           7.5650   -5.5653   -1.0982 O.3     1  UNL1       -0.3772
     26 C           6.3337   -5.0277   -1.2408 C.3     1  UNL1        0.0604
     27 C           6.2589   -3.6098   -1.7447 C.3     1  UNL1        0.0229
     28 C          -0.4461    0.5835   -0.3584 C.2     1  UNL1        0.2340
     29 O          -0.4033    0.9059    0.9012 O.2     1  UNL1       -0.2738
     30 N          -1.5886    1.0446   -1.0363 N.am    1  UNL1       -0.3022
     31 C          -2.6471    1.7926   -0.3085 C.3     1  UNL1        0.1034
     32 C          -3.0321    2.9957   -1.0371 C.3     1  UNL1       -0.0007
     33 C          -3.5255    2.8427   -2.4245 C.ar    1  UNL1       -0.0451
     34 C          -2.5213    2.9446   -3.4092 C.ar    1  UNL1       -0.0585
     35 C          -2.8442    2.8417   -4.7349 C.ar    1  UNL1       -0.0615
     36 C          -4.1674    2.6383   -5.1010 C.ar    1  UNL1       -0.0617
     37 C          -5.1578    2.5389   -4.1346 C.ar    1  UNL1       -0.0615
     38 C          -4.8326    2.6419   -2.7777 C.ar    1  UNL1       -0.0585
     39 C          -3.6785    0.8161    0.1177 C.2     1  UNL1        0.2342
     40 O          -3.8243   -0.2724   -0.5551 O.2     1  UNL1       -0.2738
     41 N          -4.4735    1.0160    1.2243 N.am    1  UNL1       -0.3040
     42 C          -5.4703   -0.0473    1.6728 C.3     1  UNL1        0.0847
     43 C          -4.6440   -0.9751    2.5093 C.3     1  UNL1       -0.0251
     44 C          -5.1509   -2.1797    3.1102 C.3     1  UNL1       -0.0446
     45 C          -6.2149   -2.2354    4.1205 C.3     1  UNL1       -0.0626
     46 C          -5.4764   -3.2292    2.0024 C.3     1  UNL1       -0.0626
     47 C          -6.6140    0.5982    2.2042 C.2     1  UNL1        0.1868
     48 O          -7.3724   -0.0636    2.9548 O.2     1  UNL1       -0.2923
     49 C          -7.0873    1.9839    2.0158 C.3     1  UNL1        0.1492
     50 C          -6.6318    2.8569    0.8859 C.3     1  UNL1       -0.0266
     51 C          -8.2924    2.4390    2.7655 C.3     1  UNL1        0.0847
     52 O          -7.0705    2.7511    3.3041 O.3     1  UNL1       -0.3605
     53 H           0.8785   -1.5684   -3.7036 H       1  UNL1        0.0232
     54 H          -0.7555   -1.2697   -4.3226 H       1  UNL1        0.0232
     55 H           0.0369   -0.0156   -3.3494 H       1  UNL1        0.0232
     56 H          -1.6266   -1.3911   -1.8586 H       1  UNL1        0.0296
     57 H          -1.4733   -3.7850   -1.8888 H       1  UNL1        0.0232
     58 H          -1.1461   -3.2551   -3.6428 H       1  UNL1        0.0232
     59 H           0.2322   -3.6234   -2.5980 H       1  UNL1        0.0232
     60 H           0.1748   -2.2647   -0.2437 H       1  UNL1        0.0290
     61 H           1.3388   -2.0227   -1.6423 H       1  UNL1        0.0290
     62 H           1.1469    0.1963   -1.7135 H       1  UNL1        0.0594
     63 H           1.4579    0.0096    1.1876 H       1  UNL1        0.1495
     64 H           3.9185   -1.0336    1.7366 H       1  UNL1        0.0595
     65 H           5.4008    0.9646    1.8400 H       1  UNL1        0.0291
     66 H           5.1061    1.2795    0.1310 H       1  UNL1        0.0291
     67 H           2.9909    1.4910    2.4137 H       1  UNL1        0.0314
     68 H           2.7836    1.8943    0.6387 H       1  UNL1        0.0314
     69 H           4.3810    2.8838    3.8297 H       1  UNL1        0.0620
     70 H           5.1500    5.1644    4.2559 H       1  UNL1        0.0618
     71 H           5.1873    6.7878    2.4928 H       1  UNL1        0.0618
     72 H           4.4603    6.2057    0.2117 H       1  UNL1        0.0618
     73 H           3.6589    3.8825   -0.2618 H       1  UNL1        0.0620
     74 H           5.4836   -1.0659   -0.8225 H       1  UNL1        0.1495
     75 H           8.0956   -2.5710    0.8222 H       1  UNL1        0.0522
     76 H           7.0161   -4.0593    0.6508 H       1  UNL1        0.0522
     77 H           9.3841   -2.7742   -1.1285 H       1  UNL1        0.0449
     78 H           8.5149   -3.4853   -2.5911 H       1  UNL1        0.0449
     79 H           8.8607   -4.6066    0.2538 H       1  UNL1        0.0572
     80 H           9.5309   -5.2699   -1.2741 H       1  UNL1        0.0572
     81 H           5.6909   -5.1662   -0.3220 H       1  UNL1        0.0572
     82 H           5.7890   -5.6372   -2.0270 H       1  UNL1        0.0572
     83 H           6.5008   -3.5538   -2.8151 H       1  UNL1        0.0449
     84 H           5.2416   -3.2519   -1.5452 H       1  UNL1        0.0449
     85 H          -1.6688    0.8709   -2.0451 H       1  UNL1        0.1495
     86 H          -2.1428    2.1167    0.6514 H       1  UNL1        0.0598
     87 H          -3.8014    3.5840   -0.4464 H       1  UNL1        0.0336
     88 H          -2.1347    3.6947   -1.0384 H       1  UNL1        0.0336
     89 H          -1.4733    3.1075   -3.1295 H       1  UNL1        0.0620
     90 H          -2.0598    2.9155   -5.5169 H       1  UNL1        0.0618
     91 H          -4.4473    2.5577   -6.1587 H       1  UNL1        0.0618
     92 H          -6.2023    2.3820   -4.3961 H       1  UNL1        0.0618
     93 H          -5.5934    2.5532   -2.0214 H       1  UNL1        0.0620
     94 H          -4.4536    1.8306    1.8556 H       1  UNL1        0.1494
     95 H          -5.6729   -0.6175    0.7189 H       1  UNL1        0.0578
     96 H          -4.1522   -0.3578    3.3587 H       1  UNL1        0.0290
     97 H          -3.7729   -1.2691    1.8262 H       1  UNL1        0.0290
     98 H          -4.2168   -2.6937    3.5982 H       1  UNL1        0.0296
     99 H          -5.9145   -3.1065    4.8365 H       1  UNL1        0.0232
    100 H          -6.2364   -1.3930    4.8103 H       1  UNL1        0.0232
    101 H          -7.1843   -2.5182    3.6796 H       1  UNL1        0.0232
    102 H          -5.6312   -4.1820    2.5384 H       1  UNL1        0.0232
    103 H          -4.5561   -3.2405    1.3811 H       1  UNL1        0.0232
    104 H          -6.3588   -2.8631    1.4804 H       1  UNL1        0.0232
    105 H          -5.6976    3.3793    0.9723 H       1  UNL1        0.0262
    106 H          -7.4174    3.6677    0.7756 H       1  UNL1        0.0262
    107 H          -6.7243    2.2860   -0.0720 H       1  UNL1        0.0262
    108 H          -8.9233    3.2215    2.3196 H       1  UNL1        0.0593
    109 H          -8.8810    1.6994    3.3656 H       1  UNL1        0.0593
@<TRIPOS>BOND
     1     1     2    1
     2     2     3    1
     3     2     4    1
     4     4     5    1
     5     5     6    1
     6     6     7   am
     7     7     8    2
     8     7     9    1
     9     9    10    1
    10    10    11    1
    11    11    12    1
    12    12    13   ar
    13    13    14   ar
    14    14    15   ar
    15    15    16   ar
    16    16    17   ar
    17     9    18    1
    18    18    19   am
    19    19    20    2
    20    19    21    1
    21    21    22    1
    22    22    23    1
    23    23    24    1
    24    24    25    1
    25    25    26    1
    26    26    27    1
    27     5    28    1
    28    28    29    2
    29    28    30   am
    30    30    31    1
    31    31    32    1
    32    32    33    1
    33    33    34   ar
    34    34    35   ar
    35    35    36   ar
    36    36    37   ar
    37    37    38   ar
    38    31    39    1
    39    39    40    2
    40    39    41   am
    41    41    42    1
    42    42    43    1
    43    43    44    1
    44    44    45    1
    45    44    46    1
    46    42    47    1
    47    47    48    2
    48    47    49    1
    49    49    50    1
    50    49    51    1
    51    51    52    1
    52    17    12   ar
    53    27    22    1
    54    38    33   ar
    55    52    49    1
    56     1    53    1
    57     1    54    1
    58     1    55    1
    59     2    56    1
    60     3    57    1
    61     3    58    1
    62     3    59    1
    63     4    60    1
    64     4    61    1
    65     5    62    1
    66     6    63    1
    67     9    64    1
    68    10    65    1
    69    10    66    1
    70    11    67    1
    71    11    68    1
    72    13    69    1
    73    14    70    1
    74    15    71    1
    75    16    72    1
    76    17    73    1
    77    18    74    1
    78    21    75    1
    79    21    76    1
    80    23    77    1
    81    23    78    1
    82    24    79    1
    83    24    80    1
    84    26    81    1
    85    26    82    1
    86    27    83    1
    87    27    84    1
    88    30    85    1
    89    31    86    1
    90    32    87    1
    91    32    88    1
    92    34    89    1
    93    35    90    1
    94    36    91    1
    95    37    92    1
    96    38    93    1
    97    41    94    1
    98    42    95    1
    99    43    96    1
   100    43    97    1
   101    44    98    1
   102    45    99    1
   103    45   100    1
   104    45   101    1
   105    46   102    1
   106    46   103    1
   107    46   104    1
   108    50   105    1
   109    50   106    1
   110    50   107    1
   111    51   108    1
   112    51   109    1
