@<TRIPOS>MOLECULE
*****
 40 42 0 0 0
SMALL
GASTEIGER

@<TRIPOS>ATOM
      1 C          -3.9227   -3.4560   -0.5937 C.3     1  UNL1       -0.0397
      2 C          -3.2145   -2.1915   -0.3291 C.ar    1  UNL1       -0.0504
      3 C          -2.0521   -2.1769    0.4165 C.ar    1  UNL1       -0.0582
      4 C          -1.3683   -1.0063    0.6797 C.ar    1  UNL1       -0.0523
      5 C          -1.8437    0.1732    0.1956 C.ar    1  UNL1        0.0005
      6 C          -3.0203    0.1750   -0.5617 C.ar    1  UNL1       -0.0523
      7 C          -3.7065   -1.0016   -0.8255 C.ar    1  UNL1       -0.0582
      8 C          -1.3227    1.5312    0.3256 C.ar    1  UNL1        0.0752
      9 C          -1.8967    2.7553    0.6153 C.ar    1  UNL1       -0.0039
     10 C          -0.8404    3.6605    0.5847 C.ar    1  UNL1        0.1662
     11 N           0.2723    2.9770    0.2921 N.ar    1  UNL1       -0.1618
     12 N          -0.0094    1.6834    0.1328 N.ar    1  UNL1       -0.2316
     13 C           1.1424    0.9055   -0.1814 C.ar    1  UNL1        0.0661
     14 C           2.0024    0.6742    0.8917 C.ar    1  UNL1       -0.0344
     15 C           3.1630   -0.0592    0.7638 C.ar    1  UNL1       -0.0334
     16 C           3.4925   -0.5869   -0.4677 C.ar    1  UNL1        0.1051
     17 C           2.6555   -0.3658   -1.5275 C.ar    1  UNL1       -0.0334
     18 C           1.5037    0.3595   -1.4100 C.ar    1  UNL1       -0.0344
     19 S           4.9753   -1.5087   -0.5741 S.O2    1  UNL1        0.0559
     20 N           4.7154   -3.1651   -0.2592 N.3     1  UNL1       -0.2035
     21 O           5.5981   -1.3556   -1.9203 O.2     1  UNL1       -0.1533
     22 O           5.9914   -1.0078    0.4213 O.2     1  UNL1       -0.1533
     23 C          -1.0765    5.1085    0.8542 C.3     1  UNL1        0.4360
     24 F          -1.9905    5.2285    1.8743 F       1  UNL1       -0.1644
     25 F           0.1028    5.7818    1.0770 F       1  UNL1       -0.1644
     26 F          -1.6734    5.7059   -0.2639 F       1  UNL1       -0.1644
     27 H          -3.2470   -4.3275   -0.7574 H       1  UNL1        0.0278
     28 H          -4.6033   -3.6515    0.2630 H       1  UNL1        0.0278
     29 H          -4.5708   -3.3059   -1.4948 H       1  UNL1        0.0278
     30 H          -1.6093   -3.0913    0.8396 H       1  UNL1        0.0620
     31 H          -0.4608   -0.8891    1.2458 H       1  UNL1        0.0624
     32 H          -3.5121    1.0510   -1.0106 H       1  UNL1        0.0624
     33 H          -4.6192   -1.0427   -1.4065 H       1  UNL1        0.0620
     34 H          -2.9575    2.8342    0.8031 H       1  UNL1        0.0660
     35 H           1.7904    1.0681    1.8876 H       1  UNL1        0.0639
     36 H           3.8078   -0.2200    1.6160 H       1  UNL1        0.0638
     37 H           2.9124   -0.7771   -2.4875 H       1  UNL1        0.0638
     38 H           0.8072    0.5696   -2.1939 H       1  UNL1        0.0639
     39 H           4.5349   -3.7414   -1.0965 H       1  UNL1        0.1442
     40 H           4.0505   -3.3149    0.5186 H       1  UNL1        0.1442
@<TRIPOS>BOND
     1     1     2    1
     2     2     3   ar
     3     3     4   ar
     4     4     5   ar
     5     5     6   ar
     6     6     7   ar
     7     5     8    1
     8     8     9   ar
     9     9    10   ar
    10    10    11   ar
    11    11    12   ar
    12    12    13    1
    13    13    14   ar
    14    14    15   ar
    15    15    16   ar
    16    16    17   ar
    17    17    18   ar
    18    16    19    1
    19    19    20    1
    20    19    21    2
    21    19    22    2
    22    10    23    1
    23    23    24    1
    24    23    25    1
    25    23    26    1
    26     7     2   ar
    27    12     8   ar
    28    18    13   ar
    29     1    27    1
    30     1    28    1
    31     1    29    1
    32     3    30    1
    33     4    31    1
    34     6    32    1
    35     7    33    1
    36     9    34    1
    37    14    35    1
    38    15    36    1
    39    17    37    1
    40    18    38    1
    41    20    39    1
    42    20    40    1
