@<TRIPOS>MOLECULE
*****
 92 98 0 0 0
SMALL
GASTEIGER

@<TRIPOS>ATOM
      1 C          -5.2036    4.2769    1.1018 C.3     1  UNL1       -0.0377
      2 C          -3.7491    4.5792    1.1744 C.ar    1  UNL1       -0.0248
      3 C          -2.8097    3.5662    1.3707 C.ar    1  UNL1       -0.0536
      4 C          -1.4664    3.8585    1.4242 C.ar    1  UNL1       -0.0442
      5 C          -0.4839    2.7857    1.6454 C.3     1  UNL1       -0.0006
      6 C          -0.0415    2.1331    0.3013 C.3     1  UNL1        0.1049
      7 N           0.9002    1.1006    0.5682 N.am    1  UNL1       -0.2876
      8 C           2.3036    1.4239    0.7048 C.2     1  UNL1        0.3028
      9 O           2.6475    2.6596    0.5823 O.2     1  UNL1       -0.2526
     10 N           3.2518    0.4280    0.9630 N.am    1  UNL1       -0.2855
     11 C           4.6370    0.8116    1.1639 C.3     1  UNL1        0.0178
     12 C           5.5221    0.0826    0.1910 C.3     1  UNL1       -0.0183
     13 C           5.1805   -1.3725    0.1576 C.3     1  UNL1        0.0307
     14 N           6.0667   -2.1161   -0.7357 N.am    1  UNL1       -0.2778
     15 C           6.8588   -3.1396   -0.1539 C.3     1  UNL1        0.0433
     16 C           7.8391   -3.7375   -1.0581 C.ar    1  UNL1       -0.0060
     17 C           8.7167   -4.6785   -0.5213 C.ar    1  UNL1       -0.0551
     18 C           9.6336   -5.2693   -1.3466 C.ar    1  UNL1       -0.0586
     19 C           9.7309   -4.9772   -2.6857 C.ar    1  UNL1       -0.0246
     20 C           8.8604   -4.0513   -3.1906 C.ar    1  UNL1        0.1448
     21 F           8.9018   -3.7067   -4.5137 F       1  UNL1       -0.2035
     22 C           7.9045   -3.4216   -2.3800 C.ar    1  UNL1        0.0749
     23 N           7.0461   -2.4362   -2.9684 N.am    1  UNL1       -0.2665
     24 C           6.1280   -1.7974   -2.1143 C.2     1  UNL1        0.3071
     25 O           5.3223   -0.9125   -2.5479 O.2     1  UNL1       -0.2523
     26 C           3.7146   -1.5765   -0.1863 C.3     1  UNL1       -0.0183
     27 C           2.9675   -0.9734    1.0255 C.3     1  UNL1        0.0178
     28 C          -1.2731    1.7675   -0.3646 C.2     1  UNL1        0.2363
     29 O          -1.8073    2.7559   -1.0688 O.2     1  UNL1       -0.2736
     30 N          -2.0126    0.5743   -0.4050 N.am    1  UNL1       -0.2998
     31 C          -3.1676    0.5416   -1.3284 C.3     1  UNL1        0.0161
     32 C          -4.3751   -0.0988   -0.7335 C.3     1  UNL1       -0.0214
     33 C          -3.9945   -1.4681   -0.2093 C.3     1  UNL1        0.0133
     34 N          -5.1302   -2.1712    0.3157 N.3     1  UNL1       -0.2993
     35 C          -5.8018   -1.5442    1.4064 C.3     1  UNL1       -0.0008
     36 C          -7.0076   -2.4169    1.7758 C.3     1  UNL1       -0.0402
     37 C          -8.0619   -2.3548    0.6903 C.3     1  UNL1       -0.0507
     38 C          -7.3952   -1.9189   -0.6168 C.3     1  UNL1       -0.0402
     39 C          -6.0349   -2.6203   -0.7247 C.3     1  UNL1       -0.0008
     40 C          -2.9950   -1.2763    0.8666 C.3     1  UNL1       -0.0214
     41 C          -1.7361   -0.5311    0.4494 C.3     1  UNL1        0.0161
     42 C          -1.0955    5.1728    1.2779 C.ar    1  UNL1       -0.0478
     43 C          -2.0197    6.1855    1.0832 C.ar    1  UNL1        0.0200
     44 C          -1.8778    7.5422    0.9202 C.ar    1  UNL1        0.0569
     45 N          -3.1105    8.0407    0.7735 N.ar    1  UNL1       -0.1812
     46 N          -3.9944    7.0613    0.8384 N.ar    1  UNL1       -0.2767
     47 C          -3.3475    5.8756    1.0331 C.ar    1  UNL1        0.0686
     48 H          -5.7591    5.1520    1.4807 H       1  UNL1        0.0278
     49 H          -5.5264    4.1147    0.0436 H       1  UNL1        0.0278
     50 H          -5.4812    3.3971    1.7179 H       1  UNL1        0.0278
     51 H          -3.1916    2.5567    1.4757 H       1  UNL1        0.0624
     52 H           0.4027    3.2036    2.1625 H       1  UNL1        0.0336
     53 H          -0.9202    2.0244    2.3131 H       1  UNL1        0.0336
     54 H           0.5100    2.9242   -0.2667 H       1  UNL1        0.0598
     55 H           0.6457    0.1271    0.6570 H       1  UNL1        0.1510
     56 H           4.9438    0.5284    2.2089 H       1  UNL1        0.0465
     57 H           4.7635    1.9235    1.0742 H       1  UNL1        0.0465
     58 H           6.5608    0.1589    0.6018 H       1  UNL1        0.0298
     59 H           5.4194    0.6008   -0.7829 H       1  UNL1        0.0298
     60 H           5.3031   -1.7886    1.1720 H       1  UNL1        0.0502
     61 H           6.1816   -3.9955    0.1745 H       1  UNL1        0.0515
     62 H           7.3467   -2.7903    0.8076 H       1  UNL1        0.0515
     63 H           8.6796   -4.9502    0.5466 H       1  UNL1        0.0621
     64 H          10.3199   -6.0129   -0.8985 H       1  UNL1        0.0619
     65 H          10.4857   -5.4742   -3.3173 H       1  UNL1        0.0647
     66 H           7.1187   -2.2259   -3.9825 H       1  UNL1        0.1565
     67 H           3.4523   -2.6160   -0.3613 H       1  UNL1        0.0298
     68 H           3.4749   -0.9057   -1.0372 H       1  UNL1        0.0298
     69 H           1.9338   -1.2811    1.0468 H       1  UNL1        0.0465
     70 H           3.5137   -1.4327    1.9034 H       1  UNL1        0.0465
     71 H          -3.3918    1.5554   -1.7238 H       1  UNL1        0.0465
     72 H          -2.8341   -0.0733   -2.1901 H       1  UNL1        0.0465
     73 H          -4.7959    0.5139    0.0921 H       1  UNL1        0.0295
     74 H          -5.1173   -0.2107   -1.5581 H       1  UNL1        0.0295
     75 H          -3.6247   -2.0644   -1.0693 H       1  UNL1        0.0463
     76 H          -5.1365   -1.6317    2.3203 H       1  UNL1        0.0427
     77 H          -6.0989   -0.5163    1.2105 H       1  UNL1        0.0427
     78 H          -6.6418   -3.4559    1.8727 H       1  UNL1        0.0278
     79 H          -7.4154   -2.1163    2.7625 H       1  UNL1        0.0278
     80 H          -8.8059   -1.5778    1.0009 H       1  UNL1        0.0266
     81 H          -8.5868   -3.3251    0.5745 H       1  UNL1        0.0266
     82 H          -8.0114   -2.3095   -1.4506 H       1  UNL1        0.0278
     83 H          -7.2557   -0.8253   -0.6223 H       1  UNL1        0.0278
     84 H          -5.6432   -2.5082   -1.7394 H       1  UNL1        0.0427
     85 H          -6.2393   -3.6933   -0.5475 H       1  UNL1        0.0427
     86 H          -2.7462   -2.2462    1.3249 H       1  UNL1        0.0295
     87 H          -3.5067   -0.6731    1.6762 H       1  UNL1        0.0295
     88 H          -1.3539   -0.1293    1.4317 H       1  UNL1        0.0465
     89 H          -1.0915   -1.2612   -0.0395 H       1  UNL1        0.0465
     90 H          -0.0615    5.4212    1.3168 H       1  UNL1        0.0627
     91 H          -0.9467    8.0765    0.9160 H       1  UNL1        0.0854
     92 H          -5.0128    7.1558    0.7573 H       1  UNL1        0.1889
@<TRIPOS>BOND
     1     1     2    1
     2     2     3   ar
     3     3     4   ar
     4     4     5    1
     5     5     6    1
     6     6     7    1
     7     7     8   am
     8     8     9    2
     9     8    10   am
    10    10    11    1
    11    11    12    1
    12    12    13    1
    13    13    14    1
    14    14    15    1
    15    15    16    1
    16    16    17   ar
    17    17    18   ar
    18    18    19   ar
    19    19    20   ar
    20    20    21    1
    21    20    22   ar
    22    22    23    1
    23    23    24   am
    24    24    25    2
    25    13    26    1
    26    26    27    1
    27     6    28    1
    28    28    29    2
    29    28    30   am
    30    30    31    1
    31    31    32    1
    32    32    33    1
    33    33    34    1
    34    34    35    1
    35    35    36    1
    36    36    37    1
    37    37    38    1
    38    38    39    1
    39    33    40    1
    40    40    41    1
    41     4    42   ar
    42    42    43   ar
    43    43    44   ar
    44    44    45   ar
    45    45    46   ar
    46    46    47   ar
    47    47     2   ar
    48    27    10    1
    49    41    30    1
    50    47    43   ar
    51    24    14   am
    52    39    34    1
    53    22    16   ar
    54     1    48    1
    55     1    49    1
    56     1    50    1
    57     3    51    1
    58     5    52    1
    59     5    53    1
    60     6    54    1
    61     7    55    1
    62    11    56    1
    63    11    57    1
    64    12    58    1
    65    12    59    1
    66    13    60    1
    67    15    61    1
    68    15    62    1
    69    17    63    1
    70    18    64    1
    71    19    65    1
    72    23    66    1
    73    26    67    1
    74    26    68    1
    75    27    69    1
    76    27    70    1
    77    31    71    1
    78    31    72    1
    79    32    73    1
    80    32    74    1
    81    33    75    1
    82    35    76    1
    83    35    77    1
    84    36    78    1
    85    36    79    1
    86    37    80    1
    87    37    81    1
    88    38    82    1
    89    38    83    1
    90    39    84    1
    91    39    85    1
    92    40    86    1
    93    40    87    1
    94    41    88    1
    95    41    89    1
    96    42    90    1
    97    44    91    1
    98    46    92    1
