
     RDKit          3D

 42 45  0  0  0  0  0  0  0  0999 V2000
    1.5894    1.0389    0.1141 C   0  0  0  0  0  0  0  0  0  0  0  0
    0.7709   -0.1534    0.0867 N   0  0  0  0  0  0  0  0  0  0  0  0
   -0.6290   -0.2152    0.3591 C   0  0  0  0  0  0  0  0  0  0  0  0
   -1.0086   -0.4343    1.6672 C   0  0  0  0  0  0  0  0  0  0  0  0
   -0.0747   -0.5904    2.6884 C   0  0  0  0  0  0  0  0  0  0  0  0
   -0.4314   -0.8092    3.9965 C   0  0  0  0  0  0  0  0  0  0  0  0
   -1.7643   -0.8843    4.3552 C   0  0  0  0  0  0  0  0  0  0  0  0
   -2.6870   -0.7294    3.3420 C   0  0  0  0  0  0  0  0  0  0  0  0
   -2.3307   -0.5112    2.0380 C   0  0  0  0  0  0  0  0  0  0  0  0
   -3.2570   -0.3661    1.0842 N   0  0  0  0  0  0  0  0  0  0  0  0
   -2.9387   -0.1525   -0.1949 C   0  0  0  0  0  0  0  0  0  0  0  0
   -1.6197   -0.0714   -0.5910 C   0  0  0  0  0  0  0  0  0  0  0  0
   -1.2271    0.1616   -1.9830 C   0  0  0  0  0  0  0  0  0  0  0  0
   -2.3623    0.6152   -2.8591 C   0  0  0  0  0  0  0  0  0  0  0  0
   -3.6731   -0.0343   -2.5738 C   0  0  0  0  0  0  0  0  0  0  0  0
   -4.0645   -0.0133   -1.1274 C   0  0  0  0  0  0  0  0  0  0  0  0
    3.0063    0.7034   -0.2259 C   0  0  0  0  0  0  0  0  0  0  0  0
    3.9803    0.3467    0.7027 C   0  0  0  0  0  0  0  0  0  0  0  0
    5.2631    0.0578    0.2586 C   0  0  0  0  0  0  0  0  0  0  0  0
    5.6189    0.1093   -1.0772 C   0  0  0  0  0  0  0  0  0  0  0  0
    4.6623    0.4630   -2.0207 C   0  0  0  0  0  0  0  0  0  0  0  0
    3.3853    0.7475   -1.5499 C   0  0  0  0  0  0  0  0  0  0  0  0
    1.5860    1.4984    1.1433 H   0  0  0  0  0  0  0  0  0  0  0  0
    1.2451    1.8357   -0.5666 H   0  0  0  0  0  0  0  0  0  0  0  0
    1.1361   -1.1213   -0.1433 H   0  0  0  0  0  0  0  0  0  0  0  0
    0.9769   -0.5437    2.4821 H   0  0  0  0  0  0  0  0  0  0  0  0
    0.2736   -0.9334    4.8063 H   0  0  0  0  0  0  0  0  0  0  0  0
   -2.1806   -1.0513    5.3427 H   0  0  0  0  0  0  0  0  0  0  0  0
   -3.7620   -0.7770    3.5527 H   0  0  0  0  0  0  0  0  0  0  0  0
   -0.7196   -0.7438   -2.4099 H   0  0  0  0  0  0  0  0  0  0  0  0
   -0.4721    0.9744   -2.0052 H   0  0  0  0  0  0  0  0  0  0  0  0
   -2.0976    0.3713   -3.9189 H   0  0  0  0  0  0  0  0  0  0  0  0
   -2.4831    1.7348   -2.8382 H   0  0  0  0  0  0  0  0  0  0  0  0
   -4.4507    0.5944   -3.0996 H   0  0  0  0  0  0  0  0  0  0  0  0
   -3.7719   -1.0477   -3.0403 H   0  0  0  0  0  0  0  0  0  0  0  0
   -4.6534    0.8772   -0.8261 H   0  0  0  0  0  0  0  0  0  0  0  0
   -4.7413   -0.8963   -0.9544 H   0  0  0  0  0  0  0  0  0  0  0  0
    3.6755    0.3153    1.7305 H   0  0  0  0  0  0  0  0  0  0  0  0
    6.0079   -0.2188    1.0047 H   0  0  0  0  0  0  0  0  0  0  0  0
    6.6471   -0.1277   -1.3832 H   0  0  0  0  0  0  0  0  0  0  0  0
    4.9165    0.5097   -3.0667 H   0  0  0  0  0  0  0  0  0  0  0  0
    2.6591    1.0196   -2.2996 H   0  0  0  0  0  0  0  0  0  0  0  0
  1  2  1  0
  2  3  1  0
  3  4  1  0
  4  5  2  0
  5  6  1  0
  6  7  2  0
  7  8  1  0
  8  9  2  0
  9 10  1  0
 10 11  2  0
 11 12  1  0
 12 13  1  0
 13 14  1  0
 14 15  1  0
 15 16  1  0
  1 17  1  0
 17 18  2  0
 18 19  1  0
 19 20  2  0
 20 21  1  0
 21 22  2  0
 12  3  2  0
 22 17  1  0
  9  4  1  0
 16 11  1  0
  1 23  1  0
  1 24  1  0
  2 25  1  0
  5 26  1  0
  6 27  1  0
  7 28  1  0
  8 29  1  0
 13 30  1  0
 13 31  1  0
 14 32  1  0
 14 33  1  0
 15 34  1  0
 15 35  1  0
 16 36  1  0
 16 37  1  0
 18 38  1  0
 19 39  1  0
 20 40  1  0
 21 41  1  0
 22 42  1  0
M  END
$$$$
