
     RDKit          3D

133132  0  0  0  0  0  0  0  0999 V2000
  -16.0715    0.9805   -3.1194 C   0  0  0  0  0  0  0  0  0  0  0  0
  -16.1751    0.5851   -1.6799 C   0  0  0  0  0  0  0  0  0  0  0  0
  -14.7466    0.1956   -1.1678 C   0  0  0  0  0  0  0  0  0  0  0  0
  -14.9210   -0.1839    0.2526 C   0  0  0  0  0  0  0  0  0  0  0  0
  -13.7816   -0.6696    1.0374 C   0  0  0  0  0  0  0  0  0  0  0  0
  -12.6234    0.1744    1.2795 C   0  0  0  0  0  0  0  0  0  0  0  0
  -11.7512    0.6169    0.1641 C   0  0  0  0  0  0  0  0  0  0  0  0
  -11.1820   -0.5751   -0.5872 C   0  0  0  0  0  0  0  0  0  0  0  0
  -10.3908   -1.4336    0.3303 C   0  0  0  0  0  0  0  0  0  0  0  0
   -9.2091   -0.7546    0.9919 C   0  0  0  0  0  0  0  0  0  0  0  0
   -8.1782   -0.2487    0.0612 C   0  0  0  0  0  0  0  0  0  0  0  0
   -7.0156    0.4180    0.8157 C   0  0  0  0  0  0  0  0  0  0  0  0
   -7.5059    1.6123    1.5592 C   0  0  0  0  0  0  0  0  0  0  0  0
   -6.4754    2.3124    2.3312 C   0  0  0  0  0  0  0  0  0  0  0  0
   -5.3057    2.9535    1.7294 C   0  0  0  0  0  0  0  0  0  0  0  0
   -4.3177    2.1836    0.9537 C   0  0  0  0  0  0  0  0  0  0  0  0
   -3.7145    1.0264    1.7208 C   0  0  0  0  0  0  0  0  0  0  0  0
   -2.7206    0.3079    0.8946 C   0  0  0  0  0  0  0  0  0  0  0  0
   -2.4155   -0.7267    1.5253 O   0  0  0  0  0  0  0  0  0  0  0  0
   -2.2149    0.6643   -0.3050 O   0  0  0  0  0  0  0  0  0  0  0  0
   -1.2739    0.0650   -1.1256 C   0  0  0  0  0  0  0  0  0  0  0  0
    0.0973    0.0840   -0.6295 C   0  0  1  0  0  0  0  0  0  0  0  0
    0.4449   -0.3755    0.7350 C   0  0  0  0  0  0  0  0  0  0  0  0
    0.3495   -1.7319    0.9698 O   0  0  0  0  0  0  0  0  0  0  0  0
    1.1481   -2.2556    2.3401 P   0  0  2  0  0  5  0  0  0  0  0  0
    0.1195   -2.7668    3.5731 O   0  0  0  0  0  0  0  0  0  0  0  0
    1.9063   -1.0370    2.8834 O   0  0  0  0  0  0  0  0  0  0  0  0
    2.3470   -3.3947    1.9885 O   0  0  0  0  0  0  0  0  0  0  0  0
    2.1585   -4.5550    2.7650 C   0  0  0  0  0  0  0  0  0  0  0  0
    3.3560   -5.4388    2.4303 C   0  0  0  0  0  0  0  0  0  0  0  0
    4.5225   -4.6648    2.8141 N   0  0  0  0  0  0  0  0  0  0  0  0
    1.0255   -0.5725   -1.5255 O   0  0  0  0  0  0  0  0  0  0  0  0
    2.0522    0.1117   -2.1043 C   0  0  0  0  0  0  0  0  0  0  0  0
    2.2168    1.3498   -1.8783 O   0  0  0  0  0  0  0  0  0  0  0  0
    2.9345   -0.7015   -2.9887 C   0  0  0  0  0  0  0  0  0  0  0  0
    3.6858   -1.7357   -2.2422 C   0  0  0  0  0  0  0  0  0  0  0  0
    4.5624   -1.3838   -1.1337 C   0  0  0  0  0  0  0  0  0  0  0  0
    5.7594   -0.5392   -1.2755 C   0  0  0  0  0  0  0  0  0  0  0  0
    5.6364    0.8560   -1.7466 C   0  0  0  0  0  0  0  0  0  0  0  0
    7.0162    1.5265   -1.8020 C   0  0  0  0  0  0  0  0  0  0  0  0
    7.6014    1.5421   -0.4250 C   0  0  0  0  0  0  0  0  0  0  0  0
    8.9774    2.2482   -0.5206 C   0  0  0  0  0  0  0  0  0  0  0  0
    9.5464    2.2864    0.8780 C   0  0  0  0  0  0  0  0  0  0  0  0
    9.7111    0.9342    1.4670 C   0  0  0  0  0  0  0  0  0  0  0  0
   10.6371    0.0509    0.7081 C   0  0  0  0  0  0  0  0  0  0  0  0
   12.0362    0.6636    0.6816 C   0  0  0  0  0  0  0  0  0  0  0  0
   12.9256   -0.2788   -0.0861 C   0  0  0  0  0  0  0  0  0  0  0  0
   14.3429    0.1903   -0.1690 C   0  0  0  0  0  0  0  0  0  0  0  0
   14.5216    1.5237   -0.8393 C   0  0  0  0  0  0  0  0  0  0  0  0
   16.0020    1.8603   -0.8498 C   0  0  0  0  0  0  0  0  0  0  0  0
   16.7603    0.7980   -1.6090 C   0  0  0  0  0  0  0  0  0  0  0  0
  -15.0733    1.3442   -3.3622 H   0  0  0  0  0  0  0  0  0  0  0  0
  -16.8450    1.7744   -3.3435 H   0  0  0  0  0  0  0  0  0  0  0  0
  -16.3337    0.1017   -3.7492 H   0  0  0  0  0  0  0  0  0  0  0  0
  -16.5630    1.4196   -1.0665 H   0  0  0  0  0  0  0  0  0  0  0  0
  -16.8113   -0.3116   -1.5127 H   0  0  0  0  0  0  0  0  0  0  0  0
  -14.4798   -0.6590   -1.8000 H   0  0  0  0  0  0  0  0  0  0  0  0
  -14.1302    1.0857   -1.3036 H   0  0  0  0  0  0  0  0  0  0  0  0
  -15.7590   -0.9661    0.3261 H   0  0  0  0  0  0  0  0  0  0  0  0
  -15.4144    0.6798    0.8170 H   0  0  0  0  0  0  0  0  0  0  0  0
  -13.3859   -1.6214    0.5294 H   0  0  0  0  0  0  0  0  0  0  0  0
  -14.1352   -1.0432    2.0680 H   0  0  0  0  0  0  0  0  0  0  0  0
  -12.9222    1.1372    1.8265 H   0  0  0  0  0  0  0  0  0  0  0  0
  -11.9206   -0.3157    2.0528 H   0  0  0  0  0  0  0  0  0  0  0  0
  -10.8589    1.1368    0.7086 H   0  0  0  0  0  0  0  0  0  0  0  0
  -12.1785    1.3193   -0.5297 H   0  0  0  0  0  0  0  0  0  0  0  0
  -10.6295   -0.2569   -1.4955 H   0  0  0  0  0  0  0  0  0  0  0  0
  -12.0448   -1.1756   -0.9416 H   0  0  0  0  0  0  0  0  0  0  0  0
  -10.0026   -2.3300   -0.2485 H   0  0  0  0  0  0  0  0  0  0  0  0
  -11.0451   -1.8647    1.1067 H   0  0  0  0  0  0  0  0  0  0  0  0
   -8.7213   -1.5556    1.6303 H   0  0  0  0  0  0  0  0  0  0  0  0
   -9.5759   -0.0215    1.7273 H   0  0  0  0  0  0  0  0  0  0  0  0
   -8.5301    0.5103   -0.6557 H   0  0  0  0  0  0  0  0  0  0  0  0
   -7.7094   -1.1025   -0.4796 H   0  0  0  0  0  0  0  0  0  0  0  0
   -6.7175   -0.3427    1.6115 H   0  0  0  0  0  0  0  0  0  0  0  0
   -6.1942    0.5667    0.1280 H   0  0  0  0  0  0  0  0  0  0  0  0
   -8.2380    1.2050    2.3336 H   0  0  0  0  0  0  0  0  0  0  0  0
   -8.1078    2.2964    0.8935 H   0  0  0  0  0  0  0  0  0  0  0  0
   -7.0257    3.1342    2.9164 H   0  0  0  0  0  0  0  0  0  0  0  0
   -6.1954    1.6160    3.1881 H   0  0  0  0  0  0  0  0  0  0  0  0
   -4.7393    3.5719    2.4845 H   0  0  0  0  0  0  0  0  0  0  0  0
   -5.7133    3.7494    1.0092 H   0  0  0  0  0  0  0  0  0  0  0  0
   -4.5054    1.9487   -0.0831 H   0  0  0  0  0  0  0  0  0  0  0  0
   -3.4051    2.9063    0.8629 H   0  0  0  0  0  0  0  0  0  0  0  0
   -4.4673    0.3627    2.1449 H   0  0  0  0  0  0  0  0  0  0  0  0
   -3.1287    1.4053    2.6125 H   0  0  0  0  0  0  0  0  0  0  0  0
   -1.3121    0.6716   -2.0922 H   0  0  0  0  0  0  0  0  0  0  0  0
   -1.6142   -0.9642   -1.4622 H   0  0  0  0  0  0  0  0  0  0  0  0
    0.4506    1.1741   -0.6596 H   0  0  0  0  0  0  0  0  0  0  0  0
    1.5690   -0.1337    0.8314 H   0  0  0  0  0  0  0  0  0  0  0  0
   -0.0099    0.2027    1.5221 H   0  0  0  0  0  0  0  0  0  0  0  0
   -0.8224   -2.8089    3.2770 H   0  0  0  0  0  0  0  0  0  0  0  0
    1.1925   -5.0417    2.4925 H   0  0  0  0  0  0  0  0  0  0  0  0
    2.2275   -4.3221    3.8439 H   0  0  0  0  0  0  0  0  0  0  0  0
    3.2669   -6.3748    3.0003 H   0  0  0  0  0  0  0  0  0  0  0  0
    3.3337   -5.6013    1.3226 H   0  0  0  0  0  0  0  0  0  0  0  0
    5.2786   -4.6863    2.0654 H   0  0  0  0  0  0  0  0  0  0  0  0
    4.9682   -5.0716    3.6856 H   0  0  0  0  0  0  0  0  0  0  0  0
    3.5363   -0.1139   -3.6751 H   0  0  0  0  0  0  0  0  0  0  0  0
    2.2046   -1.2654   -3.6483 H   0  0  0  0  0  0  0  0  0  0  0  0
    4.2313   -2.3486   -3.0157 H   0  0  0  0  0  0  0  0  0  0  0  0
    2.9193   -2.4639   -1.8489 H   0  0  0  0  0  0  0  0  0  0  0  0
    4.8181   -2.3564   -0.5927 H   0  0  0  0  0  0  0  0  0  0  0  0
    3.8989   -0.8875   -0.3278 H   0  0  0  0  0  0  0  0  0  0  0  0
    6.1714   -0.4626   -0.2025 H   0  0  0  0  0  0  0  0  0  0  0  0
    6.6017   -1.0400   -1.8170 H   0  0  0  0  0  0  0  0  0  0  0  0
    5.0157    1.4944   -1.0536 H   0  0  0  0  0  0  0  0  0  0  0  0
    5.2192    1.0255   -2.7391 H   0  0  0  0  0  0  0  0  0  0  0  0
    7.6302    0.8449   -2.4448 H   0  0  0  0  0  0  0  0  0  0  0  0
    6.9246    2.5447   -2.2366 H   0  0  0  0  0  0  0  0  0  0  0  0
    7.7993    0.4775   -0.1359 H   0  0  0  0  0  0  0  0  0  0  0  0
    6.9598    2.0921    0.2626 H   0  0  0  0  0  0  0  0  0  0  0  0
    9.6114    1.7178   -1.2420 H   0  0  0  0  0  0  0  0  0  0  0  0
    8.7534    3.2773   -0.8501 H   0  0  0  0  0  0  0  0  0  0  0  0
    8.8244    2.8466    1.5152 H   0  0  0  0  0  0  0  0  0  0  0  0
   10.5191    2.8334    0.8184 H   0  0  0  0  0  0  0  0  0  0  0  0
    8.7166    0.4803    1.6578 H   0  0  0  0  0  0  0  0  0  0  0  0
   10.1390    1.0731    2.5018 H   0  0  0  0  0  0  0  0  0  0  0  0
   10.3630   -0.0645   -0.3643 H   0  0  0  0  0  0  0  0  0  0  0  0
   10.6725   -0.9431    1.2190 H   0  0  0  0  0  0  0  0  0  0  0  0
   11.9540    1.5985    0.0804 H   0  0  0  0  0  0  0  0  0  0  0  0
   12.4531    0.8114    1.6860 H   0  0  0  0  0  0  0  0  0  0  0  0
   12.5155   -0.5322   -1.0844 H   0  0  0  0  0  0  0  0  0  0  0  0
   12.9401   -1.2445    0.4864 H   0  0  0  0  0  0  0  0  0  0  0  0
   14.8951   -0.5567   -0.8038 H   0  0  0  0  0  0  0  0  0  0  0  0
   14.8229    0.1800    0.8370 H   0  0  0  0  0  0  0  0  0  0  0  0
   14.1329    1.4321   -1.8822 H   0  0  0  0  0  0  0  0  0  0  0  0
   14.0124    2.3466   -0.3042 H   0  0  0  0  0  0  0  0  0  0  0  0
   16.3148    1.9002    0.2131 H   0  0  0  0  0  0  0  0  0  0  0  0
   16.1885    2.8505   -1.2950 H   0  0  0  0  0  0  0  0  0  0  0  0
   17.7202    1.2076   -1.9372 H   0  0  0  0  0  0  0  0  0  0  0  0
   16.9110   -0.0904   -0.9489 H   0  0  0  0  0  0  0  0  0  0  0  0
   16.1780    0.4876   -2.5018 H   0  0  0  0  0  0  0  0  0  0  0  0
  1  2  1  0
  2  3  1  0
  3  4  1  0
  4  5  1  0
  5  6  1  0
  6  7  1  0
  7  8  1  0
  8  9  1  0
  9 10  1  0
 10 11  1  0
 11 12  1  0
 12 13  1  0
 13 14  1  0
 14 15  1  0
 15 16  1  0
 16 17  1  0
 17 18  1  0
 18 19  2  0
 18 20  1  0
 20 21  1  0
 21 22  1  0
 22 23  1  0
 23 24  1  0
 25 24  1  6
 25 26  1  0
 25 27  2  0
 25 28  1  0
 28 29  1  0
 29 30  1  0
 30 31  1  0
 22 32  1  0
 32 33  1  0
 33 34  2  0
 33 35  1  0
 35 36  1  0
 36 37  1  0
 37 38  1  0
 38 39  1  0
 39 40  1  0
 40 41  1  0
 41 42  1  0
 42 43  1  0
 43 44  1  0
 44 45  1  0
 45 46  1  0
 46 47  1  0
 47 48  1  0
 48 49  1  0
 49 50  1  0
 50 51  1  0
  1 52  1  0
  1 53  1  0
  1 54  1  0
  2 55  1  0
  2 56  1  0
  3 57  1  0
  3 58  1  0
  4 59  1  0
  4 60  1  0
  5 61  1  0
  5 62  1  0
  6 63  1  0
  6 64  1  0
  7 65  1  0
  7 66  1  0
  8 67  1  0
  8 68  1  0
  9 69  1  0
  9 70  1  0
 10 71  1  0
 10 72  1  0
 11 73  1  0
 11 74  1  0
 12 75  1  0
 12 76  1  0
 13 77  1  0
 13 78  1  0
 14 79  1  0
 14 80  1  0
 15 81  1  0
 15 82  1  0
 16 83  1  0
 16 84  1  0
 17 85  1  0
 17 86  1  0
 21 87  1  0
 21 88  1  0
 22 89  1  1
 23 90  1  0
 23 91  1  0
 26 92  1  0
 29 93  1  0
 29 94  1  0
 30 95  1  0
 30 96  1  0
 31 97  1  0
 31 98  1  0
 35 99  1  0
 35100  1  0
 36101  1  0
 36102  1  0
 37103  1  0
 37104  1  0
 38105  1  0
 38106  1  0
 39107  1  0
 39108  1  0
 40109  1  0
 40110  1  0
 41111  1  0
 41112  1  0
 42113  1  0
 42114  1  0
 43115  1  0
 43116  1  0
 44117  1  0
 44118  1  0
 45119  1  0
 45120  1  0
 46121  1  0
 46122  1  0
 47123  1  0
 47124  1  0
 48125  1  0
 48126  1  0
 49127  1  0
 49128  1  0
 50129  1  0
 50130  1  0
 51131  1  0
 51132  1  0
 51133  1  0
M  END
$$$$
