@<TRIPOS>MOLECULE
*****
 75 80 0 0 0
SMALL
GASTEIGER

@<TRIPOS>ATOM
      1 C          -5.1382   -2.7899   -2.2114 C.3     1  UNL1       -0.0391
      2 C          -5.8845   -2.5913   -0.9462 C.ar    1  UNL1       -0.0420
      3 C          -7.0823   -3.2697   -0.7665 C.ar    1  UNL1       -0.0443
      4 C          -7.8478   -3.1386    0.3902 C.ar    1  UNL1        0.0591
      5 C          -9.1003   -3.8569    0.5606 C.2     1  UNL1        0.3368
      6 O          -9.7772   -3.7267    1.6100 O.2     1  UNL1       -0.2451
      7 O          -9.6071   -4.7094   -0.4075 O.3     1  UNL1       -0.4771
      8 C          -7.4159   -2.3099    1.4028 C.ar    1  UNL1       -0.0472
      9 C          -6.2262   -1.6404    1.2163 C.ar    1  UNL1       -0.0530
     10 C          -5.4730   -1.7740    0.0701 C.ar    1  UNL1       -0.0149
     11 C          -4.2229   -1.0403   -0.0626 C.ar    1  UNL1       -0.0175
     12 C          -4.1954    0.2892    0.2667 C.ar    1  UNL1       -0.0523
     13 C          -3.0041    1.0004    0.1477 C.ar    1  UNL1       -0.0392
     14 C          -1.8309    0.4306   -0.2905 C.ar    1  UNL1        0.0455
     15 N          -0.6101    1.1683   -0.4022 N.am    1  UNL1       -0.1920
     16 C          -0.4439    2.5379   -0.0552 C.2     1  UNL1        0.3219
     17 O          -1.2823    3.3648    0.4004 O.2     1  UNL1       -0.2512
     18 N           0.9375    2.9035   -0.3131 N.am    1  UNL1       -0.2240
     19 C           1.3610    4.2342   -0.4813 C.ar    1  UNL1        0.1333
     20 C           1.7724    5.0074    0.5814 C.ar    1  UNL1        0.0088
     21 C           2.1816    6.3129    0.3804 C.ar    1  UNL1        0.1485
     22 C           2.6327    7.1794    1.5003 C.3     1  UNL1        0.4344
     23 F           3.7480    7.9025    1.1186 F       1  UNL1       -0.1644
     24 F           1.6321    8.1104    1.7785 F       1  UNL1       -0.1644
     25 F           2.9758    6.4493    2.6115 F       1  UNL1       -0.1644
     26 N           2.1595    6.7862   -0.8832 N.ar    1  UNL1       -0.2313
     27 C           1.7631    6.0521   -1.9325 C.ar    1  UNL1        0.1187
     28 N           1.3719    4.7889   -1.7051 N.ar    1  UNL1       -0.2203
     29 C           1.6654    1.6491   -0.3440 C.3     1  UNL1        0.1240
     30 C           2.0956    1.1954    1.0244 C.3     1  UNL1       -0.0095
     31 C           2.7479   -0.1368    0.8889 C.3     1  UNL1        0.0017
     32 N           3.7008   -0.2597   -0.1296 N.3     1  UNL1       -0.2965
     33 C           3.9530   -1.5697   -0.6209 C.3     1  UNL1        0.0415
     34 C           4.4484   -2.5146    0.4118 C.ar    1  UNL1        0.0581
     35 N           3.6379   -3.4450    0.9374 N.ar    1  UNL1       -0.2583
     36 C           4.0724   -4.3207    1.8849 C.ar    1  UNL1        0.0279
     37 C           5.3670   -4.3057    2.3612 C.ar    1  UNL1       -0.0433
     38 C           6.2152   -3.3554    1.8323 C.ar    1  UNL1       -0.0557
     39 C           5.7483   -2.4665    0.8605 C.ar    1  UNL1       -0.0279
     40 C           6.6400   -1.4452    0.2846 C.3     1  UNL1       -0.0380
     41 C           3.9472    0.8124   -0.9909 C.3     1  UNL1        0.0017
     42 C           2.8640    1.8016   -1.2034 C.3     1  UNL1       -0.0095
     43 C           0.6492    0.6897   -0.8706 C.2     1  UNL1        0.2516
     44 O           0.8192   -0.3213   -1.5709 O.2     1  UNL1       -0.2724
     45 C          -1.9102   -0.9170   -0.6113 C.ar    1  UNL1       -0.0392
     46 C          -3.0739   -1.6453   -0.5037 C.ar    1  UNL1       -0.0523
     47 H          -4.5263   -1.9232   -2.4956 H       1  UNL1        0.0278
     48 H          -5.9302   -2.8576   -3.0160 H       1  UNL1        0.0278
     49 H          -4.6163   -3.7602   -2.2508 H       1  UNL1        0.0278
     50 H          -7.4337   -3.9290   -1.5632 H       1  UNL1        0.0628
     51 H         -10.6108   -4.9399   -0.3797 H       1  UNL1        0.2954
     52 H          -8.0041   -2.2021    2.3042 H       1  UNL1        0.0626
     53 H          -5.9046   -0.9853    2.0408 H       1  UNL1        0.0624
     54 H          -5.0685    0.8289    0.6221 H       1  UNL1        0.0624
     55 H          -3.0544    2.0448    0.4235 H       1  UNL1        0.0636
     56 H           1.7892    4.6200    1.6055 H       1  UNL1        0.0673
     57 H           1.7359    6.4059   -2.9510 H       1  UNL1        0.1047
     58 H           1.1800    1.0873    1.6528 H       1  UNL1        0.0303
     59 H           2.7183    1.9595    1.5300 H       1  UNL1        0.0303
     60 H           1.9232   -0.8852    0.6956 H       1  UNL1        0.0427
     61 H           3.1769   -0.4683    1.8748 H       1  UNL1        0.0427
     62 H           4.6890   -1.4735   -1.4644 H       1  UNL1        0.0491
     63 H           3.0216   -1.9426   -1.1038 H       1  UNL1        0.0491
     64 H           3.4152   -5.0686    2.3053 H       1  UNL1        0.0829
     65 H           5.6821   -5.0189    3.1183 H       1  UNL1        0.0633
     66 H           7.2281   -3.3213    2.1849 H       1  UNL1        0.0621
     67 H           6.4410   -0.4154    0.6992 H       1  UNL1        0.0278
     68 H           7.6961   -1.6743    0.5945 H       1  UNL1        0.0278
     69 H           6.6382   -1.4452   -0.8232 H       1  UNL1        0.0278
     70 H           4.9081    1.3146   -0.6702 H       1  UNL1        0.0427
     71 H           4.2151    0.3956   -2.0085 H       1  UNL1        0.0427
     72 H           3.2823    2.8334   -1.0091 H       1  UNL1        0.0303
     73 H           2.5208    1.8589   -2.2747 H       1  UNL1        0.0303
     74 H          -1.0408   -1.4466   -0.9597 H       1  UNL1        0.0636
     75 H          -3.0524   -2.7082   -0.7764 H       1  UNL1        0.0624
@<TRIPOS>BOND
     1     1     2    1
     2     2     3   ar
     3     3     4   ar
     4     4     5    1
     5     5     6    2
     6     5     7    1
     7     4     8   ar
     8     8     9   ar
     9     9    10   ar
    10    10    11    1
    11    11    12   ar
    12    12    13   ar
    13    13    14   ar
    14    14    15    1
    15    15    16   am
    16    16    17    2
    17    16    18   am
    18    18    19    1
    19    19    20   ar
    20    20    21   ar
    21    21    22    1
    22    22    23    1
    23    22    24    1
    24    22    25    1
    25    21    26   ar
    26    26    27   ar
    27    27    28   ar
    28    18    29    1
    29    29    30    1
    30    30    31    1
    31    31    32    1
    32    32    33    1
    33    33    34    1
    34    34    35   ar
    35    35    36   ar
    36    36    37   ar
    37    37    38   ar
    38    38    39   ar
    39    39    40    1
    40    32    41    1
    41    41    42    1
    42    29    43    1
    43    43    44    2
    44    14    45   ar
    45    45    46   ar
    46    10     2   ar
    47    46    11   ar
    48    43    15   am
    49    28    19   ar
    50    42    29    1
    51    39    34   ar
    52     1    47    1
    53     1    48    1
    54     1    49    1
    55     3    50    1
    56     7    51    1
    57     8    52    1
    58     9    53    1
    59    12    54    1
    60    13    55    1
    61    20    56    1
    62    27    57    1
    63    30    58    1
    64    30    59    1
    65    31    60    1
    66    31    61    1
    67    33    62    1
    68    33    63    1
    69    36    64    1
    70    37    65    1
    71    38    66    1
    72    40    67    1
    73    40    68    1
    74    40    69    1
    75    41    70    1
    76    41    71    1
    77    42    72    1
    78    42    73    1
    79    45    74    1
    80    46    75    1
