
     RDKit          3D

 75 80  0  0  0  0  0  0  0  0999 V2000
   -5.1382   -2.7899   -2.2114 C   0  0  0  0  0  0  0  0  0  0  0  0
   -5.8845   -2.5913   -0.9462 C   0  0  0  0  0  0  0  0  0  0  0  0
   -7.0823   -3.2697   -0.7665 C   0  0  0  0  0  0  0  0  0  0  0  0
   -7.8478   -3.1386    0.3902 C   0  0  0  0  0  0  0  0  0  0  0  0
   -9.1003   -3.8569    0.5606 C   0  0  0  0  0  0  0  0  0  0  0  0
   -9.7772   -3.7267    1.6100 O   0  0  0  0  0  0  0  0  0  0  0  0
   -9.6071   -4.7094   -0.4075 O   0  0  0  0  0  0  0  0  0  0  0  0
   -7.4159   -2.3099    1.4028 C   0  0  0  0  0  0  0  0  0  0  0  0
   -6.2262   -1.6404    1.2163 C   0  0  0  0  0  0  0  0  0  0  0  0
   -5.4730   -1.7740    0.0701 C   0  0  0  0  0  0  0  0  0  0  0  0
   -4.2229   -1.0403   -0.0626 C   0  0  0  0  0  0  0  0  0  0  0  0
   -4.1954    0.2892    0.2667 C   0  0  0  0  0  0  0  0  0  0  0  0
   -3.0041    1.0004    0.1477 C   0  0  0  0  0  0  0  0  0  0  0  0
   -1.8309    0.4306   -0.2905 C   0  0  0  0  0  0  0  0  0  0  0  0
   -0.6101    1.1683   -0.4022 N   0  0  0  0  0  0  0  0  0  0  0  0
   -0.4439    2.5379   -0.0552 C   0  0  0  0  0  0  0  0  0  0  0  0
   -1.2823    3.3648    0.4004 O   0  0  0  0  0  0  0  0  0  0  0  0
    0.9375    2.9035   -0.3131 N   0  0  0  0  0  0  0  0  0  0  0  0
    1.3610    4.2342   -0.4813 C   0  0  0  0  0  0  0  0  0  0  0  0
    1.7724    5.0074    0.5814 C   0  0  0  0  0  0  0  0  0  0  0  0
    2.1816    6.3129    0.3804 C   0  0  0  0  0  0  0  0  0  0  0  0
    2.6327    7.1794    1.5003 C   0  0  0  0  0  0  0  0  0  0  0  0
    3.7480    7.9025    1.1186 F   0  0  0  0  0  0  0  0  0  0  0  0
    1.6321    8.1104    1.7785 F   0  0  0  0  0  0  0  0  0  0  0  0
    2.9758    6.4493    2.6115 F   0  0  0  0  0  0  0  0  0  0  0  0
    2.1595    6.7862   -0.8832 N   0  0  0  0  0  0  0  0  0  0  0  0
    1.7631    6.0521   -1.9325 C   0  0  0  0  0  0  0  0  0  0  0  0
    1.3719    4.7889   -1.7051 N   0  0  0  0  0  0  0  0  0  0  0  0
    1.6654    1.6491   -0.3440 C   0  0  0  0  0  0  0  0  0  0  0  0
    2.0956    1.1954    1.0244 C   0  0  0  0  0  0  0  0  0  0  0  0
    2.7479   -0.1368    0.8889 C   0  0  0  0  0  0  0  0  0  0  0  0
    3.7008   -0.2597   -0.1296 N   0  0  0  0  0  0  0  0  0  0  0  0
    3.9530   -1.5697   -0.6209 C   0  0  0  0  0  0  0  0  0  0  0  0
    4.4484   -2.5146    0.4118 C   0  0  0  0  0  0  0  0  0  0  0  0
    3.6379   -3.4450    0.9374 N   0  0  0  0  0  0  0  0  0  0  0  0
    4.0724   -4.3207    1.8849 C   0  0  0  0  0  0  0  0  0  0  0  0
    5.3670   -4.3057    2.3612 C   0  0  0  0  0  0  0  0  0  0  0  0
    6.2152   -3.3554    1.8323 C   0  0  0  0  0  0  0  0  0  0  0  0
    5.7483   -2.4665    0.8605 C   0  0  0  0  0  0  0  0  0  0  0  0
    6.6400   -1.4452    0.2846 C   0  0  0  0  0  0  0  0  0  0  0  0
    3.9472    0.8124   -0.9909 C   0  0  0  0  0  0  0  0  0  0  0  0
    2.8640    1.8016   -1.2034 C   0  0  0  0  0  0  0  0  0  0  0  0
    0.6492    0.6897   -0.8706 C   0  0  0  0  0  0  0  0  0  0  0  0
    0.8192   -0.3213   -1.5709 O   0  0  0  0  0  0  0  0  0  0  0  0
   -1.9102   -0.9170   -0.6113 C   0  0  0  0  0  0  0  0  0  0  0  0
   -3.0739   -1.6453   -0.5037 C   0  0  0  0  0  0  0  0  0  0  0  0
   -4.5263   -1.9232   -2.4956 H   0  0  0  0  0  0  0  0  0  0  0  0
   -5.9302   -2.8576   -3.0160 H   0  0  0  0  0  0  0  0  0  0  0  0
   -4.6163   -3.7602   -2.2508 H   0  0  0  0  0  0  0  0  0  0  0  0
   -7.4337   -3.9290   -1.5632 H   0  0  0  0  0  0  0  0  0  0  0  0
  -10.6108   -4.9399   -0.3797 H   0  0  0  0  0  0  0  0  0  0  0  0
   -8.0041   -2.2021    2.3042 H   0  0  0  0  0  0  0  0  0  0  0  0
   -5.9046   -0.9853    2.0408 H   0  0  0  0  0  0  0  0  0  0  0  0
   -5.0685    0.8289    0.6221 H   0  0  0  0  0  0  0  0  0  0  0  0
   -3.0544    2.0448    0.4235 H   0  0  0  0  0  0  0  0  0  0  0  0
    1.7892    4.6200    1.6055 H   0  0  0  0  0  0  0  0  0  0  0  0
    1.7359    6.4059   -2.9510 H   0  0  0  0  0  0  0  0  0  0  0  0
    1.1800    1.0873    1.6528 H   0  0  0  0  0  0  0  0  0  0  0  0
    2.7183    1.9595    1.5300 H   0  0  0  0  0  0  0  0  0  0  0  0
    1.9232   -0.8852    0.6956 H   0  0  0  0  0  0  0  0  0  0  0  0
    3.1769   -0.4683    1.8748 H   0  0  0  0  0  0  0  0  0  0  0  0
    4.6890   -1.4735   -1.4644 H   0  0  0  0  0  0  0  0  0  0  0  0
    3.0216   -1.9426   -1.1038 H   0  0  0  0  0  0  0  0  0  0  0  0
    3.4152   -5.0686    2.3053 H   0  0  0  0  0  0  0  0  0  0  0  0
    5.6821   -5.0189    3.1183 H   0  0  0  0  0  0  0  0  0  0  0  0
    7.2281   -3.3213    2.1849 H   0  0  0  0  0  0  0  0  0  0  0  0
    6.4410   -0.4154    0.6992 H   0  0  0  0  0  0  0  0  0  0  0  0
    7.6961   -1.6743    0.5945 H   0  0  0  0  0  0  0  0  0  0  0  0
    6.6382   -1.4452   -0.8232 H   0  0  0  0  0  0  0  0  0  0  0  0
    4.9081    1.3146   -0.6702 H   0  0  0  0  0  0  0  0  0  0  0  0
    4.2151    0.3956   -2.0085 H   0  0  0  0  0  0  0  0  0  0  0  0
    3.2823    2.8334   -1.0091 H   0  0  0  0  0  0  0  0  0  0  0  0
    2.5208    1.8589   -2.2747 H   0  0  0  0  0  0  0  0  0  0  0  0
   -1.0408   -1.4466   -0.9597 H   0  0  0  0  0  0  0  0  0  0  0  0
   -3.0524   -2.7082   -0.7764 H   0  0  0  0  0  0  0  0  0  0  0  0
  1  2  1  0
  2  3  2  0
  3  4  1  0
  4  5  1  0
  5  6  2  0
  5  7  1  0
  4  8  2  0
  8  9  1  0
  9 10  2  0
 10 11  1  0
 11 12  2  0
 12 13  1  0
 13 14  2  0
 14 15  1  0
 15 16  1  0
 16 17  2  0
 16 18  1  0
 18 19  1  0
 19 20  2  0
 20 21  1  0
 21 22  1  0
 22 23  1  0
 22 24  1  0
 22 25  1  0
 21 26  2  0
 26 27  1  0
 27 28  2  0
 18 29  1  0
 29 30  1  0
 30 31  1  0
 31 32  1  0
 32 33  1  0
 33 34  1  0
 34 35  2  0
 35 36  1  0
 36 37  2  0
 37 38  1  0
 38 39  2  0
 39 40  1  0
 32 41  1  0
 41 42  1  0
 29 43  1  0
 43 44  2  0
 14 45  1  0
 45 46  2  0
 10  2  1  0
 46 11  1  0
 43 15  1  0
 28 19  1  0
 42 29  1  0
 39 34  1  0
  1 47  1  0
  1 48  1  0
  1 49  1  0
  3 50  1  0
  7 51  1  0
  8 52  1  0
  9 53  1  0
 12 54  1  0
 13 55  1  0
 20 56  1  0
 27 57  1  0
 30 58  1  0
 30 59  1  0
 31 60  1  0
 31 61  1  0
 33 62  1  0
 33 63  1  0
 36 64  1  0
 37 65  1  0
 38 66  1  0
 40 67  1  0
 40 68  1  0
 40 69  1  0
 41 70  1  0
 41 71  1  0
 42 72  1  0
 42 73  1  0
 45 74  1  0
 46 75  1  0
M  END
$$$$
