@<TRIPOS>MOLECULE
*****
 48 52 0 0 0
SMALL
GASTEIGER

@<TRIPOS>ATOM
      1 C          -8.2809    0.9225   -0.8846 C.3     1  UNL1        0.0121
      2 C          -7.1302    0.0106   -0.5445 C.ar    1  UNL1        0.1929
      3 N          -5.9909    0.3335    0.0874 N.ar    1  UNL1       -0.2104
      4 C          -5.1997   -0.7462    0.2117 C.ar    1  UNL1        0.1461
      5 C          -3.8801   -0.8841    0.8228 C.ar    1  UNL1        0.1858
      6 N          -3.5204   -1.7616    1.7866 N.ar    1  UNL1       -0.1274
      7 N          -2.2431   -1.5804    2.0783 N.ar    1  UNL1       -0.1320
      8 C          -1.7501   -0.5907    1.3174 C.ar    1  UNL1        0.1542
      9 N          -2.7727   -0.1756    0.5519 N.ar    1  UNL1       -0.3066
     10 C          -2.5916    0.9089   -0.4109 C.3     1  UNL1        0.0423
     11 C          -1.6185    1.8657    0.2458 C.3     1  UNL1        0.0338
     12 N          -0.3483    1.1196    0.3588 N.am    1  UNL1       -0.2860
     13 C           0.7271    1.5765   -0.4024 C.2     1  UNL1        0.2472
     14 O           0.5797    2.6001   -1.1563 O.2     1  UNL1       -0.2700
     15 C           2.0689    0.9996   -0.4459 C.ar    1  UNL1        0.0370
     16 C           2.9645    1.4359    0.4932 C.ar    1  UNL1       -0.0490
     17 C           4.2469    0.9383    0.5061 C.ar    1  UNL1       -0.0528
     18 C           4.6431    0.0029   -0.4174 C.ar    1  UNL1       -0.0113
     19 C           5.9994   -0.5271   -0.4094 C.ar    1  UNL1        0.0193
     20 C           7.0732   -0.2658    0.4020 C.ar    1  UNL1       -0.0469
     21 C           8.2244   -0.8884    0.2031 C.ar    1  UNL1       -0.0541
     22 C           8.3448   -1.8047   -0.8250 C.ar    1  UNL1       -0.0237
     23 S           6.6555   -1.7455   -1.5445 S.2     1  UNL1       -0.0967
     24 C           3.7311   -0.4229   -1.3520 C.ar    1  UNL1       -0.0528
     25 C           2.4556    0.0713   -1.3658 C.ar    1  UNL1       -0.0490
     26 C          -0.3715    0.0072    1.2466 C.3     1  UNL1        0.0834
     27 C           0.5491   -1.1209    0.9301 C.3     1  UNL1       -0.0393
     28 C          -5.9077   -1.7766   -0.3814 C.ar    1  UNL1        0.1230
     29 O          -7.0404   -1.2720   -0.8102 O.2     1  UNL1       -0.4474
     30 H          -8.1425    1.3748   -1.8754 H       1  UNL1        0.0324
     31 H          -9.2026    0.3385   -0.7588 H       1  UNL1        0.0324
     32 H          -8.2886    1.7157   -0.1057 H       1  UNL1        0.0324
     33 H          -2.0795    0.4856   -1.3034 H       1  UNL1        0.0508
     34 H          -3.5506    1.4061   -0.6541 H       1  UNL1        0.0508
     35 H          -1.9978    2.1462    1.2481 H       1  UNL1        0.0482
     36 H          -1.4932    2.7915   -0.3490 H       1  UNL1        0.0482
     37 H           2.6881    2.1748    1.2408 H       1  UNL1        0.0625
     38 H           4.9817    1.2787    1.2556 H       1  UNL1        0.0624
     39 H           6.9151    0.4936    1.2260 H       1  UNL1        0.0629
     40 H           9.1322   -0.6839    0.8703 H       1  UNL1        0.0623
     41 H           9.1422   -2.4265   -1.1891 H       1  UNL1        0.0693
     42 H           4.0299   -1.1712   -2.1022 H       1  UNL1        0.0624
     43 H           1.7601   -0.2726   -2.1026 H       1  UNL1        0.0625
     44 H          -0.1164    0.3558    2.2891 H       1  UNL1        0.0579
     45 H           0.1895   -1.9965    1.5560 H       1  UNL1        0.0252
     46 H           0.3603   -1.4570   -0.1103 H       1  UNL1        0.0252
     47 H           1.5925   -0.9945    1.2068 H       1  UNL1        0.0252
     48 H          -5.5377   -2.7892   -0.4462 H       1  UNL1        0.1053
@<TRIPOS>BOND
     1     1     2    1
     2     2     3   ar
     3     3     4   ar
     4     4     5    1
     5     5     6   ar
     6     6     7   ar
     7     7     8   ar
     8     8     9   ar
     9     9    10    1
    10    10    11    1
    11    11    12    1
    12    12    13   am
    13    13    14    2
    14    13    15    1
    15    15    16   ar
    16    16    17   ar
    17    17    18   ar
    18    18    19    1
    19    19    20   ar
    20    20    21   ar
    21    21    22   ar
    22    22    23   ar
    23    18    24   ar
    24    24    25   ar
    25    12    26    1
    26    26    27    1
    27     4    28   ar
    28    28    29   ar
    29    29     2   ar
    30     9     5   ar
    31    25    15   ar
    32    26     8    1
    33    23    19   ar
    34     1    30    1
    35     1    31    1
    36     1    32    1
    37    10    33    1
    38    10    34    1
    39    11    35    1
    40    11    36    1
    41    16    37    1
    42    17    38    1
    43    20    39    1
    44    21    40    1
    45    22    41    1
    46    24    42    1
    47    25    43    1
    48    26    44    1
    49    27    45    1
    50    27    46    1
    51    27    47    1
    52    28    48    1
