@<TRIPOS>MOLECULE
*****
 63 65 0 0 0
SMALL
GASTEIGER

@<TRIPOS>ATOM
      1 C          -8.2528    0.3843    1.8668 C.3     1  UNL1       -0.0397
      2 C          -6.8432    0.5465    1.4510 C.ar    1  UNL1       -0.0490
      3 C          -6.5133    0.6825    0.1232 C.ar    1  UNL1       -0.0553
      4 C          -5.2072    0.8350   -0.2876 C.ar    1  UNL1       -0.0184
      5 C          -4.2066    0.8486    0.6937 C.ar    1  UNL1        0.1388
      6 O          -2.9069    0.9996    0.2912 O.3     1  UNL1       -0.4799
      7 C          -2.1199   -0.0920   -0.0444 C.3     1  UNL1        0.1555
      8 C          -1.9121   -1.0939    1.0564 C.3     1  UNL1       -0.0203
      9 C          -2.7871   -0.8409   -1.1861 C.3     1  UNL1       -0.0203
     10 C          -0.7464    0.3217   -0.5777 C.3     1  UNL1        0.1991
     11 O          -0.0611    1.0552    0.4040 O.3     1  UNL1       -0.3473
     12 C           0.9793    1.6728   -0.3309 C.3     1  UNL1        0.0566
     13 C           1.9435    0.5779   -0.7076 C.3     1  UNL1        0.0165
     14 C           2.8922    0.4479    0.4936 C.3     1  UNL1       -0.0271
     15 C           3.9231   -0.5597    0.3318 C.2     1  UNL1       -0.0875
     16 C           5.1976   -0.2691    0.3476 C.2     1  UNL1       -0.0874
     17 C           5.7177    1.0706    0.5290 C.3     1  UNL1       -0.0247
     18 C           6.6156    1.1146    1.7433 C.3     1  UNL1        0.0482
     19 C           6.0109    0.7566    3.0090 C.2     1  UNL1        0.3050
     20 O           6.7161    0.7917    4.0563 O.2     1  UNL1       -0.2510
     21 O           4.6942    0.3786    3.1101 O.3     1  UNL1       -0.4806
     22 C           1.2999   -0.7007   -1.0879 C.3     1  UNL1        0.0933
     23 C           1.6047   -1.1397   -2.4783 C.ar    1  UNL1       -0.0003
     24 C           2.6203   -2.0147   -2.8146 C.ar    1  UNL1       -0.0532
     25 C           2.8638   -2.3882   -4.1178 C.ar    1  UNL1       -0.0433
     26 C           2.0866   -1.8890   -5.1336 C.ar    1  UNL1        0.0276
     27 N           1.1005   -1.0387   -4.8030 N.ar    1  UNL1       -0.2629
     28 C           0.8550   -0.6682   -3.5353 C.ar    1  UNL1        0.0332
     29 O          -0.0562   -0.8116   -0.8405 O.3     1  UNL1       -0.3393
     30 C          -4.5615    0.7109    2.0261 C.ar    1  UNL1        0.0936
     31 C          -3.5846    0.7349    3.0478 C.1     1  UNL1        0.1028
     32 N          -2.7602    0.7368    3.9240 N.1     1  UNL1       -0.1907
     33 C          -5.8850    0.5571    2.4273 C.ar    1  UNL1       -0.0379
     34 H          -8.3206   -0.2278    2.7930 H       1  UNL1        0.0278
     35 H          -8.7319    1.3635    2.0837 H       1  UNL1        0.0278
     36 H          -8.8833   -0.1117    1.0984 H       1  UNL1        0.0278
     37 H          -7.2847    0.6745   -0.6572 H       1  UNL1        0.0621
     38 H          -4.9135    0.9459   -1.3238 H       1  UNL1        0.0654
     39 H          -1.2348   -1.9073    0.6689 H       1  UNL1        0.0270
     40 H          -1.3297   -0.6058    1.8740 H       1  UNL1        0.0270
     41 H          -2.8437   -1.5263    1.4369 H       1  UNL1        0.0270
     42 H          -3.8093   -1.1470   -0.9446 H       1  UNL1        0.0270
     43 H          -2.1899   -1.7587   -1.3394 H       1  UNL1        0.0270
     44 H          -2.7389   -0.2447   -2.1246 H       1  UNL1        0.0270
     45 H          -0.8776    1.0178   -1.4315 H       1  UNL1        0.0951
     46 H           0.4900    2.1557   -1.1923 H       1  UNL1        0.0564
     47 H           1.4442    2.3936    0.3813 H       1  UNL1        0.0564
     48 H           2.5461    0.9431   -1.5640 H       1  UNL1        0.0354
     49 H           3.1677    1.4147    0.8978 H       1  UNL1        0.0312
     50 H           2.1829    0.0259    1.2918 H       1  UNL1        0.0312
     51 H           3.6553   -1.6254    0.1959 H       1  UNL1        0.0569
     52 H           5.9731   -1.0636    0.2177 H       1  UNL1        0.0569
     53 H           5.0206    1.9105    0.4848 H       1  UNL1        0.0312
     54 H           6.4325    1.2820   -0.3424 H       1  UNL1        0.0312
     55 H           7.5032    0.4263    1.6034 H       1  UNL1        0.0380
     56 H           7.0908    2.1226    1.8472 H       1  UNL1        0.0380
     57 H           4.1422    0.5058    3.9480 H       1  UNL1        0.2951
     58 H           1.7541   -1.5112   -0.4398 H       1  UNL1        0.0651
     59 H           3.2215   -2.4003   -1.9939 H       1  UNL1        0.0622
     60 H           3.6530   -3.0682   -4.3669 H       1  UNL1        0.0633
     61 H           2.2599   -2.1728   -6.1852 H       1  UNL1        0.0829
     62 H           0.0380    0.0206   -3.3781 H       1  UNL1        0.0833
     63 H          -6.1342    0.4511    3.4738 H       1  UNL1        0.0634
@<TRIPOS>BOND
     1     1     2    1
     2     2     3   ar
     3     3     4   ar
     4     4     5   ar
     5     5     6    1
     6     6     7    1
     7     7     8    1
     8     7     9    1
     9     7    10    1
    10    10    11    1
    11    11    12    1
    12    12    13    1
    13    13    14    1
    14    14    15    1
    15    15    16    2
    16    16    17    1
    17    17    18    1
    18    18    19    1
    19    19    20    2
    20    19    21    1
    21    13    22    1
    22    22    23    1
    23    23    24   ar
    24    24    25   ar
    25    25    26   ar
    26    26    27   ar
    27    27    28   ar
    28    22    29    1
    29     5    30   ar
    30    30    31    1
    31    31    32    3
    32    30    33   ar
    33    33     2   ar
    34    29    10    1
    35    28    23   ar
    36     1    34    1
    37     1    35    1
    38     1    36    1
    39     3    37    1
    40     4    38    1
    41     8    39    1
    42     8    40    1
    43     8    41    1
    44     9    42    1
    45     9    43    1
    46     9    44    1
    47    10    45    1
    48    12    46    1
    49    12    47    1
    50    13    48    1
    51    14    49    1
    52    14    50    1
    53    15    51    1
    54    16    52    1
    55    17    53    1
    56    17    54    1
    57    18    55    1
    58    18    56    1
    59    21    57    1
    60    22    58    1
    61    24    59    1
    62    25    60    1
    63    26    61    1
    64    28    62    1
    65    33    63    1
