
     RDKit          3D

 51 54  0  0  0  0  0  0  0  0999 V2000
    7.7135   -0.4516   -2.4498 N   0  0  0  0  0  0  0  0  0  0  0  0
    6.4440   -0.1448   -1.8930 C   0  0  0  0  0  0  0  0  0  0  0  0
    5.6548    0.5126   -2.6108 O   0  0  0  0  0  0  0  0  0  0  0  0
    6.0493   -0.5598   -0.5561 C   0  0  0  0  0  0  0  0  0  0  0  0
    6.8923   -1.2840    0.2609 C   0  0  0  0  0  0  0  0  0  0  0  0
    6.5277   -1.6824    1.5298 C   0  0  0  0  0  0  0  0  0  0  0  0
    5.2687   -1.3278    1.9673 C   0  0  0  0  0  0  0  0  0  0  0  0
    4.3856   -0.6053    1.1937 C   0  0  0  0  0  0  0  0  0  0  0  0
    4.8002   -0.2286   -0.0752 C   0  0  0  0  0  0  0  0  0  0  0  0
    3.9109    0.5010   -0.8588 O   0  0  0  0  0  0  0  0  0  0  0  0
    2.5166    0.5505   -0.5498 C   0  0  0  0  0  0  0  0  0  0  0  0
    2.4182    0.8125    0.9332 C   0  0  0  0  0  0  0  0  0  0  0  0
    1.0208    0.8732    1.4114 C   0  0  0  0  0  0  0  0  0  0  0  0
    0.8175    0.7856    2.7782 C   0  0  0  0  0  0  0  0  0  0  0  0
   -0.4189    0.8319    3.3010 N   0  0  0  0  0  0  0  0  0  0  0  0
   -1.5008    0.9645    2.5187 C   0  0  0  0  0  0  0  0  0  0  0  0
   -1.3633    1.0558    1.1623 C   0  0  0  0  0  0  0  0  0  0  0  0
   -2.5637    1.2009    0.3211 C   0  0  0  0  0  0  0  0  0  0  0  0
   -3.1233   -0.0862   -0.1056 C   0  0  0  0  0  0  0  0  0  0  0  0
   -2.5450   -1.1459    0.2746 O   0  0  0  0  0  0  0  0  0  0  0  0
   -4.2805   -0.1577   -0.9221 N   0  0  0  0  0  0  0  0  0  0  0  0
   -4.9155    1.0743   -1.3380 C   0  0  0  0  0  0  0  0  0  0  0  0
   -6.4230    0.8550   -1.3253 C   0  0  0  0  0  0  0  0  0  0  0  0
   -6.7032   -0.2307   -0.2917 C   0  0  0  0  0  0  0  0  0  0  0  0
   -7.9898   -0.2171    0.1494 F   0  0  0  0  0  0  0  0  0  0  0  0
   -5.8704    0.0225    0.7875 F   0  0  0  0  0  0  0  0  0  0  0  0
   -6.3122   -1.5462   -0.9479 C   0  0  0  0  0  0  0  0  0  0  0  0
   -4.8599   -1.4057   -1.3617 C   0  0  0  0  0  0  0  0  0  0  0  0
   -0.0760    1.0079    0.6145 C   0  0  0  0  0  0  0  0  0  0  0  0
    3.1159   -0.2288    1.5916 O   0  0  0  0  0  0  0  0  0  0  0  0
    8.2264    0.2225   -3.0589 H   0  0  0  0  0  0  0  0  0  0  0  0
    8.1526   -1.3750   -2.2491 H   0  0  0  0  0  0  0  0  0  0  0  0
    7.8698   -1.5222   -0.1635 H   0  0  0  0  0  0  0  0  0  0  0  0
    7.1957   -2.2438    2.1488 H   0  0  0  0  0  0  0  0  0  0  0  0
    4.9175   -1.6106    2.9596 H   0  0  0  0  0  0  0  0  0  0  0  0
    2.0381    1.3810   -1.0681 H   0  0  0  0  0  0  0  0  0  0  0  0
    2.0079   -0.3981   -0.7991 H   0  0  0  0  0  0  0  0  0  0  0  0
    2.9021    1.7821    1.1673 H   0  0  0  0  0  0  0  0  0  0  0  0
    1.6668    0.6768    3.4568 H   0  0  0  0  0  0  0  0  0  0  0  0
   -2.4598    0.9932    3.0206 H   0  0  0  0  0  0  0  0  0  0  0  0
   -3.3392    1.7360    0.9288 H   0  0  0  0  0  0  0  0  0  0  0  0
   -2.2939    1.8640   -0.5262 H   0  0  0  0  0  0  0  0  0  0  0  0
   -4.5806    1.3666   -2.3545 H   0  0  0  0  0  0  0  0  0  0  0  0
   -4.7080    1.8429   -0.5797 H   0  0  0  0  0  0  0  0  0  0  0  0
   -6.9608    1.7891   -1.0512 H   0  0  0  0  0  0  0  0  0  0  0  0
   -6.7327    0.4907   -2.3096 H   0  0  0  0  0  0  0  0  0  0  0  0
   -6.4836   -2.3988   -0.2894 H   0  0  0  0  0  0  0  0  0  0  0  0
   -6.9854   -1.6449   -1.8390 H   0  0  0  0  0  0  0  0  0  0  0  0
   -4.2812   -2.2276   -0.8931 H   0  0  0  0  0  0  0  0  0  0  0  0
   -4.7991   -1.5467   -2.4565 H   0  0  0  0  0  0  0  0  0  0  0  0
    0.0567    1.0773   -0.4423 H   0  0  0  0  0  0  0  0  0  0  0  0
  1  2  1  0
  2  3  2  0
  2  4  1  0
  4  5  2  0
  5  6  1  0
  6  7  2  0
  7  8  1  0
  8  9  2  0
  9 10  1  0
 10 11  1  0
 11 12  1  0
 12 13  1  0
 13 14  2  0
 14 15  1  0
 15 16  2  0
 16 17  1  0
 17 18  1  0
 18 19  1  0
 19 20  2  0
 19 21  1  0
 21 22  1  0
 22 23  1  0
 23 24  1  0
 24 25  1  0
 24 26  1  0
 24 27  1  0
 27 28  1  0
 17 29  2  0
 12 30  1  0
  9  4  1  0
 29 13  1  0
 30  8  1  0
 28 21  1  0
  1 31  1  0
  1 32  1  0
  5 33  1  0
  6 34  1  0
  7 35  1  0
 11 36  1  0
 11 37  1  0
 12 38  1  0
 14 39  1  0
 16 40  1  0
 18 41  1  0
 18 42  1  0
 22 43  1  0
 22 44  1  0
 23 45  1  0
 23 46  1  0
 27 47  1  0
 27 48  1  0
 28 49  1  0
 28 50  1  0
 29 51  1  0
M  END
$$$$
