@<TRIPOS>MOLECULE
*****
 51 54 0 0 0
SMALL
GASTEIGER

@<TRIPOS>ATOM
      1 N           7.7135   -0.4516   -2.4498 N.am    1  UNL1       -0.3252
      2 C           6.4440   -0.1448   -1.8930 C.2     1  UNL1        0.2452
      3 O           5.6548    0.5126   -2.6108 O.2     1  UNL1       -0.2703
      4 C           6.0493   -0.5598   -0.5561 C.ar    1  UNL1        0.0817
      5 C           6.8923   -1.2840    0.2609 C.ar    1  UNL1       -0.0459
      6 C           6.5277   -1.6824    1.5298 C.ar    1  UNL1       -0.0574
      7 C           5.2687   -1.3278    1.9673 C.ar    1  UNL1       -0.0162
      8 C           4.3856   -0.6053    1.1937 C.ar    1  UNL1        0.1637
      9 C           4.8002   -0.2286   -0.0752 C.ar    1  UNL1        0.1742
     10 O           3.9109    0.5010   -0.8588 O.3     1  UNL1       -0.4835
     11 C           2.5166    0.5505   -0.5498 C.3     1  UNL1        0.1308
     12 C           2.4182    0.8125    0.9332 C.3     1  UNL1        0.1605
     13 C           1.0208    0.8732    1.4114 C.ar    1  UNL1        0.0143
     14 C           0.8175    0.7856    2.7782 C.ar    1  UNL1        0.0343
     15 N          -0.4189    0.8319    3.3010 N.ar    1  UNL1       -0.2626
     16 C          -1.5008    0.9645    2.5187 C.ar    1  UNL1        0.0312
     17 C          -1.3633    1.0558    1.1623 C.ar    1  UNL1       -0.0202
     18 C          -2.5637    1.2009    0.3211 C.3     1  UNL1        0.0507
     19 C          -3.1233   -0.0862   -0.1056 C.2     1  UNL1        0.2199
     20 O          -2.5450   -1.1459    0.2746 O.2     1  UNL1       -0.2752
     21 N          -4.2805   -0.1577   -0.9221 N.am    1  UNL1       -0.3008
     22 C          -4.9155    1.0743   -1.3380 C.3     1  UNL1        0.0201
     23 C          -6.4230    0.8550   -1.3253 C.3     1  UNL1        0.0266
     24 C          -6.7032   -0.2307   -0.2917 C.3     1  UNL1        0.2518
     25 F          -7.9898   -0.2171    0.1494 F       1  UNL1       -0.2056
     26 F          -5.8704    0.0225    0.7875 F       1  UNL1       -0.2056
     27 C          -6.3122   -1.5462   -0.9479 C.3     1  UNL1        0.0266
     28 C          -4.8599   -1.4057   -1.3617 C.3     1  UNL1        0.0201
     29 C          -0.0760    1.0079    0.6145 C.ar    1  UNL1       -0.0484
     30 O           3.1159   -0.2288    1.5916 O.3     1  UNL1       -0.4771
     31 H           8.2264    0.2225   -3.0589 H       1  UNL1        0.1453
     32 H           8.1526   -1.3750   -2.2491 H       1  UNL1        0.1453
     33 H           7.8698   -1.5222   -0.1635 H       1  UNL1        0.0626
     34 H           7.1957   -2.2438    2.1488 H       1  UNL1        0.0619
     35 H           4.9175   -1.6106    2.9596 H       1  UNL1        0.0655
     36 H           2.0381    1.3810   -1.0681 H       1  UNL1        0.0738
     37 H           2.0079   -0.3981   -0.7991 H       1  UNL1        0.0738
     38 H           2.9021    1.7821    1.1673 H       1  UNL1        0.0820
     39 H           1.6668    0.6768    3.4568 H       1  UNL1        0.0833
     40 H          -2.4598    0.9932    3.0206 H       1  UNL1        0.0832
     41 H          -3.3392    1.7360    0.9288 H       1  UNL1        0.0407
     42 H          -2.2939    1.8640   -0.5262 H       1  UNL1        0.0407
     43 H          -4.5806    1.3666   -2.3545 H       1  UNL1        0.0466
     44 H          -4.7080    1.8429   -0.5797 H       1  UNL1        0.0466
     45 H          -6.9608    1.7891   -1.0512 H       1  UNL1        0.0338
     46 H          -6.7327    0.4907   -2.3096 H       1  UNL1        0.0338
     47 H          -6.4836   -2.3988   -0.2894 H       1  UNL1        0.0338
     48 H          -6.9854   -1.6449   -1.8390 H       1  UNL1        0.0338
     49 H          -4.2812   -2.2276   -0.8931 H       1  UNL1        0.0466
     50 H          -4.7991   -1.5467   -2.4565 H       1  UNL1        0.0466
     51 H           0.0567    1.0773   -0.4423 H       1  UNL1        0.0625
@<TRIPOS>BOND
     1     1     2   am
     2     2     3    2
     3     2     4    1
     4     4     5   ar
     5     5     6   ar
     6     6     7   ar
     7     7     8   ar
     8     8     9   ar
     9     9    10    1
    10    10    11    1
    11    11    12    1
    12    12    13    1
    13    13    14   ar
    14    14    15   ar
    15    15    16   ar
    16    16    17   ar
    17    17    18    1
    18    18    19    1
    19    19    20    2
    20    19    21   am
    21    21    22    1
    22    22    23    1
    23    23    24    1
    24    24    25    1
    25    24    26    1
    26    24    27    1
    27    27    28    1
    28    17    29   ar
    29    12    30    1
    30     9     4   ar
    31    29    13   ar
    32    30     8    1
    33    28    21    1
    34     1    31    1
    35     1    32    1
    36     5    33    1
    37     6    34    1
    38     7    35    1
    39    11    36    1
    40    11    37    1
    41    12    38    1
    42    14    39    1
    43    16    40    1
    44    18    41    1
    45    18    42    1
    46    22    43    1
    47    22    44    1
    48    23    45    1
    49    23    46    1
    50    27    47    1
    51    27    48    1
    52    28    49    1
    53    28    50    1
    54    29    51    1
