@<TRIPOS>MOLECULE
*****
 56 60 0 0 0
SMALL
GASTEIGER

@<TRIPOS>ATOM
      1 C           2.5722   -3.0078    1.5165 C.3     1  UNL1        0.0789
      2 O           1.5576   -2.6093    0.6013 O.3     1  UNL1       -0.4930
      3 C           1.6768   -1.4354   -0.1272 C.ar    1  UNL1        0.1446
      4 C           2.7731   -0.6214    0.0093 C.ar    1  UNL1       -0.0074
      5 C           2.8464    0.5299   -0.7327 C.ar    1  UNL1        0.0209
      6 C           4.0085    1.4134   -0.6021 C.ar    1  UNL1       -0.0146
      7 C           4.6610    1.9655   -1.6708 C.ar    1  UNL1       -0.0512
      8 C           5.7479    2.7900   -1.5102 C.ar    1  UNL1       -0.0256
      9 C           6.2145    3.0851   -0.2457 C.ar    1  UNL1        0.1263
     10 F           7.2779    3.8904   -0.0629 F       1  UNL1       -0.2052
     11 C           5.5691    2.5373    0.8467 C.ar    1  UNL1       -0.0147
     12 C           6.0958    2.8744    2.1935 C.3     1  UNL1       -0.0370
     13 C           4.4810    1.7134    0.6562 C.ar    1  UNL1       -0.0483
     14 C           1.8533    0.9006   -1.6152 C.ar    1  UNL1        0.1333
     15 F           1.9166    2.0356   -2.3524 F       1  UNL1       -0.2048
     16 C           0.7888    0.0666   -1.7179 C.ar    1  UNL1        0.0017
     17 C           0.6574   -1.1166   -0.9908 C.ar    1  UNL1        0.0943
     18 N          -0.4946   -1.9475   -1.1511 N.ar    1  UNL1       -0.2733
     19 C          -0.4861   -3.0096   -1.9709 C.ar    1  UNL1        0.2563
     20 O           0.5884   -3.2674   -2.6151 O.2     1  UNL1       -0.2673
     21 C          -1.5663   -3.8186   -2.1441 C.ar    1  UNL1        0.0039
     22 C          -2.7342   -3.5670   -1.4659 C.ar    1  UNL1       -0.0474
     23 C          -2.7662   -2.4826   -0.6192 C.ar    1  UNL1        0.0009
     24 C          -3.9066   -2.1713    0.0933 C.ar    1  UNL1       -0.0259
     25 C          -3.9403   -1.0801    0.9459 C.ar    1  UNL1        0.1092
     26 S          -5.4126   -0.7707    1.8196 S.O2    1  UNL1        0.0736
     27 O          -5.9884   -2.1310    2.1777 O.2     1  UNL1       -0.1499
     28 O          -5.1511   -0.0433    3.1104 O.2     1  UNL1       -0.1499
     29 N          -6.5109    0.0541    0.8288 N.pl3   1  UNL1       -0.1968
     30 C          -6.3582    1.3199    0.2440 C.ar    1  UNL1        0.1805
     31 C          -5.3022    2.1753    0.3596 C.ar    1  UNL1        0.0203
     32 C          -5.6071    3.3149   -0.3899 C.ar    1  UNL1        0.1261
     33 O          -6.7876    3.1142   -0.9089 O.2     1  UNL1       -0.3611
     34 N          -7.2553    1.9662   -0.5628 N.ar    1  UNL1       -0.0620
     35 C          -2.8112   -0.3277    1.0558 C.ar    1  UNL1       -0.0331
     36 C          -1.6494   -0.6148    0.3528 C.ar    1  UNL1       -0.0353
     37 C          -1.6274   -1.6925   -0.4848 C.ar    1  UNL1        0.0574
     38 H           3.5072   -3.2550    0.9626 H       1  UNL1        0.0660
     39 H           2.8378   -2.1580    2.2058 H       1  UNL1        0.0660
     40 H           2.2025   -3.8463    2.1319 H       1  UNL1        0.0660
     41 H           3.5765   -0.8960    0.7060 H       1  UNL1        0.0662
     42 H           4.3241    1.7569   -2.6741 H       1  UNL1        0.0624
     43 H           6.2196    3.1942   -2.3867 H       1  UNL1        0.0646
     44 H           5.7385    2.1616    2.9605 H       1  UNL1        0.0278
     45 H           5.8507    3.9227    2.4584 H       1  UNL1        0.0278
     46 H           7.2121    2.7471    2.1637 H       1  UNL1        0.0278
     47 H           4.0020    1.3038    1.5263 H       1  UNL1        0.0627
     48 H          -0.0530    0.2756   -2.3939 H       1  UNL1        0.0668
     49 H          -1.5413   -4.6661   -2.8058 H       1  UNL1        0.0672
     50 H          -3.6303   -4.1622   -1.5513 H       1  UNL1        0.0626
     51 H          -4.7828   -2.7930   -0.0208 H       1  UNL1        0.0644
     52 H          -7.4374   -0.4322    0.6122 H       1  UNL1        0.1753
     53 H          -4.3788    2.0763    0.9026 H       1  UNL1        0.0685
     54 H          -5.0254    4.1994   -0.5398 H       1  UNL1        0.1058
     55 H          -2.7930    0.5205    1.7089 H       1  UNL1        0.0638
     56 H          -0.7594    0.0183    0.4698 H       1  UNL1        0.0639
@<TRIPOS>BOND
     1     1     2    1
     2     2     3    1
     3     3     4   ar
     4     4     5   ar
     5     5     6    1
     6     6     7   ar
     7     7     8   ar
     8     8     9   ar
     9     9    10    1
    10     9    11   ar
    11    11    12    1
    12    11    13   ar
    13     5    14   ar
    14    14    15    1
    15    14    16   ar
    16    16    17   ar
    17    17    18    1
    18    18    19   ar
    19    19    20    2
    20    19    21   ar
    21    21    22   ar
    22    22    23   ar
    23    23    24   ar
    24    24    25   ar
    25    25    26    1
    26    26    27    2
    27    26    28    2
    28    26    29    1
    29    29    30    1
    30    30    31   ar
    31    31    32   ar
    32    32    33   ar
    33    33    34   ar
    34    25    35   ar
    35    35    36   ar
    36    36    37   ar
    37    17     3   ar
    38    37    18   ar
    39    13     6   ar
    40    37    23   ar
    41    34    30   ar
    42     1    38    1
    43     1    39    1
    44     1    40    1
    45     4    41    1
    46     7    42    1
    47     8    43    1
    48    12    44    1
    49    12    45    1
    50    12    46    1
    51    13    47    1
    52    16    48    1
    53    21    49    1
    54    22    50    1
    55    24    51    1
    56    29    52    1
    57    31    53    1
    58    32    54    1
    59    35    55    1
    60    36    56    1
