@<TRIPOS>MOLECULE
*****
 59 62 0 0 0
SMALL
GASTEIGER

@<TRIPOS>ATOM
      1 O           4.2518    0.9153    0.0511 O.2     1  UNL1       -0.2509
      2 C           4.1293    0.3110   -1.0470 C.2     1  UNL1        0.3231
      3 N           5.0198   -0.7444   -1.3141 N.am    1  UNL1       -0.2677
      4 C           6.0450   -1.1681   -0.4203 C.ar    1  UNL1        0.0425
      5 C           5.6766   -2.1661    0.4851 C.ar    1  UNL1       -0.0398
      6 C           6.6003   -2.6280    1.3780 C.ar    1  UNL1       -0.0594
      7 C           7.8615   -2.1083    1.3698 C.ar    1  UNL1       -0.0539
      8 C           8.2257   -1.1276    0.4811 C.ar    1  UNL1       -0.0161
      9 C           9.5108   -0.5859    0.4606 C.ar    1  UNL1       -0.0540
     10 C           9.8143    0.4012   -0.4603 C.ar    1  UNL1       -0.0612
     11 C           8.8806    0.8747   -1.3700 C.ar    1  UNL1       -0.0611
     12 C           7.6157    0.3313   -1.3390 C.ar    1  UNL1       -0.0523
     13 C           7.3129   -0.6452   -0.4290 C.ar    1  UNL1        0.0034
     14 N           3.1107    0.6954   -1.9879 N.am    1  UNL1       -0.1691
     15 S           2.0391    1.9782   -1.6555 S.O2    1  UNL1        0.0756
     16 O           1.6193    2.6632   -2.9289 O.2     1  UNL1       -0.1499
     17 O           2.7542    2.9442   -0.7398 O.2     1  UNL1       -0.1499
     18 C           0.5879    1.4753   -0.8276 C.ar    1  UNL1        0.1088
     19 C          -0.4939    1.1032   -1.5895 C.ar    1  UNL1       -0.0316
     20 C          -1.6917    0.6906   -0.9874 C.ar    1  UNL1       -0.0181
     21 C          -1.8279    0.6441    0.3740 C.ar    1  UNL1        0.1206
     22 O          -2.9409    0.2642    1.0073 O.3     1  UNL1       -0.4919
     23 C          -4.1912   -0.1411    0.6614 C.3     1  UNL1        0.0907
     24 C          -4.9794    0.9008   -0.0555 C.3     1  UNL1       -0.0058
     25 C          -6.3717    0.4723   -0.4611 C.3     1  UNL1        0.0020
     26 N          -7.2552    0.0905    0.5163 N.3     1  UNL1       -0.3022
     27 C          -7.1633   -1.0580    1.2843 C.3     1  UNL1       -0.0011
     28 C          -8.6121   -1.5910    1.2434 C.3     1  UNL1       -0.0390
     29 C          -9.3716   -0.2627    1.3570 C.3     1  UNL1       -0.0390
     30 C          -8.3981    0.8058    0.8642 C.3     1  UNL1       -0.0011
     31 C          -0.6992    1.0318    1.1109 C.ar    1  UNL1       -0.0181
     32 C           0.4740    1.4356    0.5335 C.ar    1  UNL1       -0.0316
     33 H           4.9408   -1.2572   -2.2116 H       1  UNL1        0.1564
     34 H           4.6603   -2.5777    0.4837 H       1  UNL1        0.0636
     35 H           6.3053   -3.4097    2.0852 H       1  UNL1        0.0618
     36 H           8.6092   -2.4686    2.0783 H       1  UNL1        0.0624
     37 H          10.2239   -0.9633    1.1719 H       1  UNL1        0.0624
     38 H          10.8210    0.8166   -0.4662 H       1  UNL1        0.0618
     39 H           9.1228    1.6455   -2.0868 H       1  UNL1        0.0618
     40 H           6.8507    0.6639   -2.0248 H       1  UNL1        0.0624
     41 H           3.0225    0.1733   -2.9059 H       1  UNL1        0.1781
     42 H          -0.4364    1.1230   -2.6844 H       1  UNL1        0.0638
     43 H          -2.4608    0.4083   -1.6687 H       1  UNL1        0.0655
     44 H          -4.1155   -1.0962    0.0655 H       1  UNL1        0.0697
     45 H          -4.7920   -0.4546    1.5558 H       1  UNL1        0.0697
     46 H          -4.4718    1.1883   -0.9858 H       1  UNL1        0.0310
     47 H          -5.0574    1.8269    0.5629 H       1  UNL1        0.0310
     48 H          -6.2214   -0.3714   -1.1921 H       1  UNL1        0.0428
     49 H          -6.8126    1.2935   -1.0780 H       1  UNL1        0.0428
     50 H          -6.5560   -1.8765    0.8411 H       1  UNL1        0.0426
     51 H          -6.9745   -0.9148    2.3711 H       1  UNL1        0.0426
     52 H          -8.7589   -2.0525    0.2470 H       1  UNL1        0.0278
     53 H          -8.8173   -2.2659    2.0734 H       1  UNL1        0.0278
     54 H         -10.2705   -0.3258    0.7117 H       1  UNL1        0.0278
     55 H          -9.6789   -0.1057    2.4080 H       1  UNL1        0.0278
     56 H          -8.2866    1.5143    1.7170 H       1  UNL1        0.0426
     57 H          -8.9141    1.3318    0.0301 H       1  UNL1        0.0426
     58 H          -0.7856    1.0012    2.1972 H       1  UNL1        0.0655
     59 H           1.3207    1.7265    1.1393 H       1  UNL1        0.0638
@<TRIPOS>BOND
     1     1     2    2
     2     2     3   am
     3     3     4    1
     4     4     5   ar
     5     5     6   ar
     6     6     7   ar
     7     7     8   ar
     8     8     9   ar
     9     9    10   ar
    10    10    11   ar
    11    11    12   ar
    12    12    13   ar
    13     2    14   am
    14    14    15    1
    15    15    16    2
    16    15    17    2
    17    15    18    1
    18    18    19   ar
    19    19    20   ar
    20    20    21   ar
    21    21    22    1
    22    22    23    1
    23    23    24    1
    24    24    25    1
    25    25    26    1
    26    26    27    1
    27    27    28    1
    28    28    29    1
    29    29    30    1
    30    21    31   ar
    31    31    32   ar
    32    13     4   ar
    33    32    18   ar
    34    13     8   ar
    35    30    26    1
    36     3    33    1
    37     5    34    1
    38     6    35    1
    39     7    36    1
    40     9    37    1
    41    10    38    1
    42    11    39    1
    43    12    40    1
    44    14    41    1
    45    19    42    1
    46    20    43    1
    47    23    44    1
    48    23    45    1
    49    24    46    1
    50    24    47    1
    51    25    48    1
    52    25    49    1
    53    27    50    1
    54    27    51    1
    55    28    52    1
    56    28    53    1
    57    29    54    1
    58    29    55    1
    59    30    56    1
    60    30    57    1
    61    31    58    1
    62    32    59    1
