
     RDKit          3D

 59 62  0  0  0  0  0  0  0  0999 V2000
    4.2518    0.9153    0.0511 O   0  0  0  0  0  0  0  0  0  0  0  0
    4.1293    0.3110   -1.0470 C   0  0  0  0  0  0  0  0  0  0  0  0
    5.0198   -0.7444   -1.3141 N   0  0  0  0  0  0  0  0  0  0  0  0
    6.0450   -1.1681   -0.4203 C   0  0  0  0  0  0  0  0  0  0  0  0
    5.6766   -2.1661    0.4851 C   0  0  0  0  0  0  0  0  0  0  0  0
    6.6003   -2.6280    1.3780 C   0  0  0  0  0  0  0  0  0  0  0  0
    7.8615   -2.1083    1.3698 C   0  0  0  0  0  0  0  0  0  0  0  0
    8.2257   -1.1276    0.4811 C   0  0  0  0  0  0  0  0  0  0  0  0
    9.5108   -0.5859    0.4606 C   0  0  0  0  0  0  0  0  0  0  0  0
    9.8143    0.4012   -0.4603 C   0  0  0  0  0  0  0  0  0  0  0  0
    8.8806    0.8747   -1.3700 C   0  0  0  0  0  0  0  0  0  0  0  0
    7.6157    0.3313   -1.3390 C   0  0  0  0  0  0  0  0  0  0  0  0
    7.3129   -0.6452   -0.4290 C   0  0  0  0  0  0  0  0  0  0  0  0
    3.1107    0.6954   -1.9879 N   0  0  0  0  0  0  0  0  0  0  0  0
    2.0391    1.9782   -1.6555 S   0  0  0  0  0  6  0  0  0  0  0  0
    1.6193    2.6632   -2.9289 O   0  0  0  0  0  0  0  0  0  0  0  0
    2.7542    2.9442   -0.7398 O   0  0  0  0  0  0  0  0  0  0  0  0
    0.5879    1.4753   -0.8276 C   0  0  0  0  0  0  0  0  0  0  0  0
   -0.4939    1.1032   -1.5895 C   0  0  0  0  0  0  0  0  0  0  0  0
   -1.6917    0.6906   -0.9874 C   0  0  0  0  0  0  0  0  0  0  0  0
   -1.8279    0.6441    0.3740 C   0  0  0  0  0  0  0  0  0  0  0  0
   -2.9409    0.2642    1.0073 O   0  0  0  0  0  0  0  0  0  0  0  0
   -4.1912   -0.1411    0.6614 C   0  0  0  0  0  0  0  0  0  0  0  0
   -4.9794    0.9008   -0.0555 C   0  0  0  0  0  0  0  0  0  0  0  0
   -6.3717    0.4723   -0.4611 C   0  0  0  0  0  0  0  0  0  0  0  0
   -7.2552    0.0905    0.5163 N   0  0  0  0  0  0  0  0  0  0  0  0
   -7.1633   -1.0580    1.2843 C   0  0  0  0  0  0  0  0  0  0  0  0
   -8.6121   -1.5910    1.2434 C   0  0  0  0  0  0  0  0  0  0  0  0
   -9.3716   -0.2627    1.3570 C   0  0  0  0  0  0  0  0  0  0  0  0
   -8.3981    0.8058    0.8642 C   0  0  0  0  0  0  0  0  0  0  0  0
   -0.6992    1.0318    1.1109 C   0  0  0  0  0  0  0  0  0  0  0  0
    0.4740    1.4356    0.5335 C   0  0  0  0  0  0  0  0  0  0  0  0
    4.9408   -1.2572   -2.2116 H   0  0  0  0  0  0  0  0  0  0  0  0
    4.6603   -2.5777    0.4837 H   0  0  0  0  0  0  0  0  0  0  0  0
    6.3053   -3.4097    2.0852 H   0  0  0  0  0  0  0  0  0  0  0  0
    8.6092   -2.4686    2.0783 H   0  0  0  0  0  0  0  0  0  0  0  0
   10.2239   -0.9633    1.1719 H   0  0  0  0  0  0  0  0  0  0  0  0
   10.8210    0.8166   -0.4662 H   0  0  0  0  0  0  0  0  0  0  0  0
    9.1228    1.6455   -2.0868 H   0  0  0  0  0  0  0  0  0  0  0  0
    6.8507    0.6639   -2.0248 H   0  0  0  0  0  0  0  0  0  0  0  0
    3.0225    0.1733   -2.9059 H   0  0  0  0  0  0  0  0  0  0  0  0
   -0.4364    1.1230   -2.6844 H   0  0  0  0  0  0  0  0  0  0  0  0
   -2.4608    0.4083   -1.6687 H   0  0  0  0  0  0  0  0  0  0  0  0
   -4.1155   -1.0962    0.0655 H   0  0  0  0  0  0  0  0  0  0  0  0
   -4.7920   -0.4546    1.5558 H   0  0  0  0  0  0  0  0  0  0  0  0
   -4.4718    1.1883   -0.9858 H   0  0  0  0  0  0  0  0  0  0  0  0
   -5.0574    1.8269    0.5629 H   0  0  0  0  0  0  0  0  0  0  0  0
   -6.2214   -0.3714   -1.1921 H   0  0  0  0  0  0  0  0  0  0  0  0
   -6.8126    1.2935   -1.0780 H   0  0  0  0  0  0  0  0  0  0  0  0
   -6.5560   -1.8765    0.8411 H   0  0  0  0  0  0  0  0  0  0  0  0
   -6.9745   -0.9148    2.3711 H   0  0  0  0  0  0  0  0  0  0  0  0
   -8.7589   -2.0525    0.2470 H   0  0  0  0  0  0  0  0  0  0  0  0
   -8.8173   -2.2659    2.0734 H   0  0  0  0  0  0  0  0  0  0  0  0
  -10.2705   -0.3258    0.7117 H   0  0  0  0  0  0  0  0  0  0  0  0
   -9.6789   -0.1057    2.4080 H   0  0  0  0  0  0  0  0  0  0  0  0
   -8.2866    1.5143    1.7170 H   0  0  0  0  0  0  0  0  0  0  0  0
   -8.9141    1.3318    0.0301 H   0  0  0  0  0  0  0  0  0  0  0  0
   -0.7856    1.0012    2.1972 H   0  0  0  0  0  0  0  0  0  0  0  0
    1.3207    1.7265    1.1393 H   0  0  0  0  0  0  0  0  0  0  0  0
  1  2  2  0
  2  3  1  0
  3  4  1  0
  4  5  2  0
  5  6  1  0
  6  7  2  0
  7  8  1  0
  8  9  2  0
  9 10  1  0
 10 11  2  0
 11 12  1  0
 12 13  2  0
  2 14  1  0
 14 15  1  0
 15 16  2  0
 15 17  2  0
 15 18  1  0
 18 19  2  0
 19 20  1  0
 20 21  2  0
 21 22  1  0
 22 23  1  0
 23 24  1  0
 24 25  1  0
 25 26  1  0
 26 27  1  0
 27 28  1  0
 28 29  1  0
 29 30  1  0
 21 31  1  0
 31 32  2  0
 13  4  1  0
 32 18  1  0
 13  8  1  0
 30 26  1  0
  3 33  1  0
  5 34  1  0
  6 35  1  0
  7 36  1  0
  9 37  1  0
 10 38  1  0
 11 39  1  0
 12 40  1  0
 14 41  1  0
 19 42  1  0
 20 43  1  0
 23 44  1  0
 23 45  1  0
 24 46  1  0
 24 47  1  0
 25 48  1  0
 25 49  1  0
 27 50  1  0
 27 51  1  0
 28 52  1  0
 28 53  1  0
 29 54  1  0
 29 55  1  0
 30 56  1  0
 30 57  1  0
 31 58  1  0
 32 59  1  0
M  END
$$$$
