@<TRIPOS>MOLECULE
*****
 34 37 0 0 0
SMALL
GASTEIGER

@<TRIPOS>ATOM
      1 CL         -3.8440    1.6000    3.3871 Cl      1  UNL1       -0.0835
      2 C          -3.9859    1.0177    1.7343 C.ar    1  UNL1        0.0418
      3 C          -5.2024    0.9754    1.0894 C.ar    1  UNL1       -0.0413
      4 C          -5.2846    0.5141   -0.2066 C.ar    1  UNL1       -0.0342
      5 C          -4.1433    0.0864   -0.8784 C.ar    1  UNL1        0.0761
      6 N          -4.2254   -0.3687   -2.1575 N.ar    1  UNL1       -0.2353
      7 C          -3.1503   -0.7921   -2.8463 C.ar    1  UNL1        0.1187
      8 N          -1.9667   -0.7483   -2.2116 N.ar    1  UNL1       -0.2203
      9 C          -1.8090   -0.3091   -0.9429 C.ar    1  UNL1        0.1300
     10 N          -0.5182   -0.2967   -0.3474 N.pl3   1  UNL1       -0.3244
     11 C           0.6096   -0.7668   -1.1409 C.3     1  UNL1        0.0358
     12 C           1.8891   -0.6973   -0.3940 C.ar    1  UNL1       -0.0267
     13 C           2.3942   -1.6996    0.3775 C.ar    1  UNL1       -0.0534
     14 C           3.5987   -1.5433    1.0387 C.ar    1  UNL1       -0.0158
     15 C           4.3128   -0.3746    0.9327 C.ar    1  UNL1        0.1662
     16 C           3.8170    0.6493    0.1569 C.ar    1  UNL1        0.1665
     17 C           2.6175    0.4712   -0.4911 C.ar    1  UNL1       -0.0115
     18 O           4.6957    1.7156    0.1986 O.3     1  UNL1       -0.4526
     19 C           5.9140    1.2436    0.7418 C.3     1  UNL1        0.2332
     20 O           5.5297    0.0838    1.4616 O.3     1  UNL1       -0.4526
     21 C          -2.9194    0.1238   -0.2437 C.ar    1  UNL1        0.0415
     22 C          -2.8543    0.5832    1.0398 C.ar    1  UNL1       -0.0309
     23 H          -6.1112    1.3107    1.6100 H       1  UNL1        0.0633
     24 H          -6.2102    0.4674   -0.7369 H       1  UNL1        0.0639
     25 H          -3.2313   -1.1543   -3.8713 H       1  UNL1        0.1048
     26 H          -0.2982    0.0156    0.6016 H       1  UNL1        0.1478
     27 H           0.4774   -1.8492   -1.4316 H       1  UNL1        0.0511
     28 H           0.7224   -0.1728   -2.0708 H       1  UNL1        0.0511
     29 H           1.8403   -2.6216    0.4669 H       1  UNL1        0.0622
     30 H           4.0278   -2.3333    1.6656 H       1  UNL1        0.0655
     31 H           2.2580    1.3055   -1.0962 H       1  UNL1        0.0658
     32 H           6.6212    0.9365   -0.0657 H       1  UNL1        0.1166
     33 H           6.3450    2.0082    1.4139 H       1  UNL1        0.1166
     34 H          -1.9156    0.6198    1.5483 H       1  UNL1        0.0640
@<TRIPOS>BOND
     1     1     2    1
     2     2     3   ar
     3     3     4   ar
     4     4     5   ar
     5     5     6   ar
     6     6     7   ar
     7     7     8   ar
     8     8     9   ar
     9     9    10    1
    10    10    11    1
    11    11    12    1
    12    12    13   ar
    13    13    14   ar
    14    14    15   ar
    15    15    16   ar
    16    16    17   ar
    17    16    18    1
    18    18    19    1
    19    19    20    1
    20     9    21   ar
    21    21    22   ar
    22    22     2   ar
    23    21     5   ar
    24    17    12   ar
    25    20    15    1
    26     3    23    1
    27     4    24    1
    28     7    25    1
    29    10    26    1
    30    11    27    1
    31    11    28    1
    32    13    29    1
    33    14    30    1
    34    17    31    1
    35    19    32    1
    36    19    33    1
    37    22    34    1
