
     RDKit          3D

 34 37  0  0  0  0  0  0  0  0999 V2000
   -3.8440    1.6000    3.3871 Cl  0  0  0  0  0  0  0  0  0  0  0  0
   -3.9859    1.0177    1.7343 C   0  0  0  0  0  0  0  0  0  0  0  0
   -5.2024    0.9754    1.0894 C   0  0  0  0  0  0  0  0  0  0  0  0
   -5.2846    0.5141   -0.2066 C   0  0  0  0  0  0  0  0  0  0  0  0
   -4.1433    0.0864   -0.8784 C   0  0  0  0  0  0  0  0  0  0  0  0
   -4.2254   -0.3687   -2.1575 N   0  0  0  0  0  0  0  0  0  0  0  0
   -3.1503   -0.7921   -2.8463 C   0  0  0  0  0  0  0  0  0  0  0  0
   -1.9667   -0.7483   -2.2116 N   0  0  0  0  0  0  0  0  0  0  0  0
   -1.8090   -0.3091   -0.9429 C   0  0  0  0  0  0  0  0  0  0  0  0
   -0.5182   -0.2967   -0.3474 N   0  0  0  0  0  0  0  0  0  0  0  0
    0.6096   -0.7668   -1.1409 C   0  0  0  0  0  0  0  0  0  0  0  0
    1.8891   -0.6973   -0.3940 C   0  0  0  0  0  0  0  0  0  0  0  0
    2.3942   -1.6996    0.3775 C   0  0  0  0  0  0  0  0  0  0  0  0
    3.5987   -1.5433    1.0387 C   0  0  0  0  0  0  0  0  0  0  0  0
    4.3128   -0.3746    0.9327 C   0  0  0  0  0  0  0  0  0  0  0  0
    3.8170    0.6493    0.1569 C   0  0  0  0  0  0  0  0  0  0  0  0
    2.6175    0.4712   -0.4911 C   0  0  0  0  0  0  0  0  0  0  0  0
    4.6957    1.7156    0.1986 O   0  0  0  0  0  0  0  0  0  0  0  0
    5.9140    1.2436    0.7418 C   0  0  0  0  0  0  0  0  0  0  0  0
    5.5297    0.0838    1.4616 O   0  0  0  0  0  0  0  0  0  0  0  0
   -2.9194    0.1238   -0.2437 C   0  0  0  0  0  0  0  0  0  0  0  0
   -2.8543    0.5832    1.0398 C   0  0  0  0  0  0  0  0  0  0  0  0
   -6.1112    1.3107    1.6100 H   0  0  0  0  0  0  0  0  0  0  0  0
   -6.2102    0.4674   -0.7369 H   0  0  0  0  0  0  0  0  0  0  0  0
   -3.2313   -1.1543   -3.8713 H   0  0  0  0  0  0  0  0  0  0  0  0
   -0.2982    0.0156    0.6016 H   0  0  0  0  0  0  0  0  0  0  0  0
    0.4774   -1.8492   -1.4316 H   0  0  0  0  0  0  0  0  0  0  0  0
    0.7224   -0.1728   -2.0708 H   0  0  0  0  0  0  0  0  0  0  0  0
    1.8403   -2.6216    0.4669 H   0  0  0  0  0  0  0  0  0  0  0  0
    4.0278   -2.3333    1.6656 H   0  0  0  0  0  0  0  0  0  0  0  0
    2.2580    1.3055   -1.0962 H   0  0  0  0  0  0  0  0  0  0  0  0
    6.6212    0.9365   -0.0657 H   0  0  0  0  0  0  0  0  0  0  0  0
    6.3450    2.0082    1.4139 H   0  0  0  0  0  0  0  0  0  0  0  0
   -1.9156    0.6198    1.5483 H   0  0  0  0  0  0  0  0  0  0  0  0
  1  2  1  0
  2  3  2  0
  3  4  1  0
  4  5  2  0
  5  6  1  0
  6  7  2  0
  7  8  1  0
  8  9  2  0
  9 10  1  0
 10 11  1  0
 11 12  1  0
 12 13  2  0
 13 14  1  0
 14 15  2  0
 15 16  1  0
 16 17  2  0
 16 18  1  0
 18 19  1  0
 19 20  1  0
  9 21  1  0
 21 22  2  0
 22  2  1  0
 21  5  1  0
 17 12  1  0
 20 15  1  0
  3 23  1  0
  4 24  1  0
  7 25  1  0
 10 26  1  0
 11 27  1  0
 11 28  1  0
 13 29  1  0
 14 30  1  0
 17 31  1  0
 19 32  1  0
 19 33  1  0
 22 34  1  0
M  END
$$$$
