
     RDKit          3D

 72 75  0  0  0  0  0  0  0  0999 V2000
    6.6485   -2.1131   -2.7951 C   0  0  0  0  0  0  0  0  0  0  0  0
    6.6373   -0.6028   -2.8432 C   0  0  0  0  0  0  0  0  0  0  0  0
    6.3943   -0.1089   -1.5079 N   0  0  0  0  0  0  0  0  0  0  0  0
    5.1480    0.1216   -1.0418 C   0  0  0  0  0  0  0  0  0  0  0  0
    4.9253    0.5898    0.2265 C   0  0  0  0  0  0  0  0  0  0  0  0
    3.5379    0.8191    0.6731 C   0  0  0  0  0  0  0  0  0  0  0  0
    3.2060    0.6576    2.0042 C   0  0  0  0  0  0  0  0  0  0  0  0
    1.8990    0.8708    2.4332 C   0  0  0  0  0  0  0  0  0  0  0  0
    0.9011    1.2456    1.5591 C   0  0  0  0  0  0  0  0  0  0  0  0
   -0.4827    1.4727    1.9988 C   0  0  2  0  0  0  0  0  0  0  0  0
   -0.7129    0.9440    3.4151 C   0  0  0  0  0  0  0  0  0  0  0  0
   -1.4731    0.8949    1.1728 N   0  0  0  0  0  0  0  0  0  0  0  0
   -2.5230    1.7388    0.5736 C   0  0  0  0  0  0  0  0  0  0  0  0
   -3.8860    1.0623    0.8365 C   0  0  0  0  0  0  0  0  0  0  0  0
   -3.9656   -0.2889    0.2682 C   0  0  2  0  0  0  0  0  0  0  0  0
   -4.8253   -0.4896   -0.9413 C   0  0  0  0  0  0  0  0  0  0  0  0
   -4.5629    0.2508   -2.1791 C   0  0  0  0  0  0  0  0  0  0  0  0
   -5.6479   -0.2865   -3.1683 C   0  0  0  0  0  0  0  0  0  0  0  0
   -4.8903    1.7416   -2.1311 C   0  0  0  0  0  0  0  0  0  0  0  0
   -3.3796    0.0019   -2.8261 O   0  0  0  0  0  0  0  0  0  0  0  0
   -4.5141   -1.2778    1.2576 C   0  0  0  0  0  0  0  0  0  0  0  0
   -5.1453   -0.9697    2.4258 C   0  0  0  0  0  0  0  0  0  0  0  0
   -5.6023   -1.9735    3.2958 C   0  0  0  0  0  0  0  0  0  0  0  0
   -5.4279   -3.3039    2.9961 C   0  0  0  0  0  0  0  0  0  0  0  0
   -4.7907   -3.6196    1.8157 C   0  0  0  0  0  0  0  0  0  0  0  0
   -4.3419   -2.6290    0.9618 C   0  0  0  0  0  0  0  0  0  0  0  0
   -2.6502   -0.7910   -0.0095 O   0  0  0  0  0  0  0  0  0  0  0  0
   -1.5969   -0.4776    0.8239 C   0  0  0  0  0  0  0  0  0  0  0  0
   -0.7558   -1.2691    1.2930 O   0  0  0  0  0  0  0  0  0  0  0  0
    1.2611    1.3990    0.2383 C   0  0  0  0  0  0  0  0  0  0  0  0
    2.5523    1.1923   -0.2079 C   0  0  0  0  0  0  0  0  0  0  0  0
    6.0056    0.8276    1.0367 C   0  0  0  0  0  0  0  0  0  0  0  0
    7.3068    0.5973    0.5785 C   0  0  0  0  0  0  0  0  0  0  0  0
    8.4585    0.8605    1.4699 C   0  0  0  0  0  0  0  0  0  0  0  0
    7.4460    0.1290   -0.7015 C   0  0  0  0  0  0  0  0  0  0  0  0
    8.6193   -0.0844   -1.1303 O   0  0  0  0  0  0  0  0  0  0  0  0
    6.1464   -2.4923   -3.7256 H   0  0  0  0  0  0  0  0  0  0  0  0
    6.0664   -2.4867   -1.9192 H   0  0  0  0  0  0  0  0  0  0  0  0
    7.6682   -2.5394   -2.7690 H   0  0  0  0  0  0  0  0  0  0  0  0
    5.8530   -0.2513   -3.5284 H   0  0  0  0  0  0  0  0  0  0  0  0
    7.6548   -0.2685   -3.1704 H   0  0  0  0  0  0  0  0  0  0  0  0
    4.3307   -0.0774   -1.7079 H   0  0  0  0  0  0  0  0  0  0  0  0
    3.9902    0.3612    2.7026 H   0  0  0  0  0  0  0  0  0  0  0  0
    1.6751    0.7381    3.4654 H   0  0  0  0  0  0  0  0  0  0  0  0
   -0.6612    2.5648    2.0747 H   0  0  0  0  0  0  0  0  0  0  0  0
   -0.4554   -0.1193    3.3993 H   0  0  0  0  0  0  0  0  0  0  0  0
   -1.7910    1.1136    3.6295 H   0  0  0  0  0  0  0  0  0  0  0  0
   -0.1263    1.5405    4.1525 H   0  0  0  0  0  0  0  0  0  0  0  0
   -2.5697    2.7312    1.0306 H   0  0  0  0  0  0  0  0  0  0  0  0
   -2.2626    1.8139   -0.4697 H   0  0  0  0  0  0  0  0  0  0  0  0
   -3.8630    1.0073    1.9725 H   0  0  0  0  0  0  0  0  0  0  0  0
   -4.6478    1.7904    0.6054 H   0  0  0  0  0  0  0  0  0  0  0  0
   -5.9203   -0.3428   -0.6916 H   0  0  0  0  0  0  0  0  0  0  0  0
   -4.7763   -1.5819   -1.1921 H   0  0  0  0  0  0  0  0  0  0  0  0
   -5.3851   -1.3324   -3.3707 H   0  0  0  0  0  0  0  0  0  0  0  0
   -5.6415    0.3494   -4.0591 H   0  0  0  0  0  0  0  0  0  0  0  0
   -6.5878   -0.2698   -2.6068 H   0  0  0  0  0  0  0  0  0  0  0  0
   -5.7301    1.9797   -1.4855 H   0  0  0  0  0  0  0  0  0  0  0  0
   -5.2246    2.0887   -3.1612 H   0  0  0  0  0  0  0  0  0  0  0  0
   -3.9904    2.3442   -1.9391 H   0  0  0  0  0  0  0  0  0  0  0  0
   -3.2468    0.7008   -3.5124 H   0  0  0  0  0  0  0  0  0  0  0  0
   -5.3227    0.0408    2.7074 H   0  0  0  0  0  0  0  0  0  0  0  0
   -6.1009   -1.7269    4.2199 H   0  0  0  0  0  0  0  0  0  0  0  0
   -5.7883   -4.0775    3.6819 H   0  0  0  0  0  0  0  0  0  0  0  0
   -4.6490   -4.6708    1.5712 H   0  0  0  0  0  0  0  0  0  0  0  0
   -3.8426   -2.8892    0.0411 H   0  0  0  0  0  0  0  0  0  0  0  0
    0.5191    1.6959   -0.5143 H   0  0  0  0  0  0  0  0  0  0  0  0
    2.8023    1.3205   -1.2475 H   0  0  0  0  0  0  0  0  0  0  0  0
    5.8450    1.1964    2.0374 H   0  0  0  0  0  0  0  0  0  0  0  0
    8.2161    1.5678    2.2709 H   0  0  0  0  0  0  0  0  0  0  0  0
    8.7116   -0.1184    1.9653 H   0  0  0  0  0  0  0  0  0  0  0  0
    9.3320    1.1674    0.8673 H   0  0  0  0  0  0  0  0  0  0  0  0
  1  2  1  0
  2  3  1  0
  3  4  1  0
  4  5  2  0
  5  6  1  0
  6  7  2  0
  7  8  1  0
  8  9  2  0
  9 10  1  0
 10 11  1  0
 10 12  1  0
 12 13  1  0
 13 14  1  0
 14 15  1  0
 15 16  1  6
 16 17  1  0
 17 18  1  0
 17 19  1  0
 17 20  1  0
 15 21  1  0
 21 22  2  0
 22 23  1  0
 23 24  2  0
 24 25  1  0
 25 26  2  0
 15 27  1  0
 27 28  1  0
 28 29  2  0
  9 30  1  0
 30 31  2  0
  5 32  1  0
 32 33  2  0
 33 34  1  0
 33 35  1  0
 35 36  2  0
 35  3  1  0
 31  6  1  0
 28 12  1  0
 26 21  1  0
  1 37  1  0
  1 38  1  0
  1 39  1  0
  2 40  1  0
  2 41  1  0
  4 42  1  0
  7 43  1  0
  8 44  1  0
 10 45  1  1
 11 46  1  0
 11 47  1  0
 11 48  1  0
 13 49  1  0
 13 50  1  0
 14 51  1  0
 14 52  1  0
 16 53  1  0
 16 54  1  0
 18 55  1  0
 18 56  1  0
 18 57  1  0
 19 58  1  0
 19 59  1  0
 19 60  1  0
 20 61  1  0
 22 62  1  0
 23 63  1  0
 24 64  1  0
 25 65  1  0
 26 66  1  0
 30 67  1  0
 31 68  1  0
 32 69  1  0
 34 70  1  0
 34 71  1  0
 34 72  1  0
M  END
$$$$
