@<TRIPOS>MOLECULE
*****
 72 75 0 0 0
SMALL
GASTEIGER

@<TRIPOS>ATOM
      1 C           6.6485   -2.1131   -2.7951 C.3     1  UNL1       -0.0470
      2 C           6.6373   -0.6028   -2.8432 C.3     1  UNL1        0.0233
      3 N           6.3943   -0.1089   -1.5079 N.ar    1  UNL1       -0.3147
      4 C           5.1480    0.1216   -1.0418 C.ar    1  UNL1        0.0156
      5 C           4.9253    0.5898    0.2265 C.ar    1  UNL1       -0.0012
      6 C           3.5379    0.8191    0.6731 C.ar    1  UNL1       -0.0165
      7 C           3.2060    0.6576    2.0042 C.ar    1  UNL1       -0.0537
      8 C           1.8990    0.8708    2.4332 C.ar    1  UNL1       -0.0562
      9 C           0.9011    1.2456    1.5591 C.ar    1  UNL1       -0.0271
     10 C          -0.4827    1.4727    1.9988 C.3     1  UNL1        0.0515
     11 C          -0.7129    0.9440    3.4151 C.3     1  UNL1       -0.0421
     12 N          -1.4731    0.8949    1.1728 N.am    1  UNL1       -0.2605
     13 C          -2.5230    1.7388    0.5736 C.3     1  UNL1        0.0224
     14 C          -3.8860    1.0623    0.8365 C.3     1  UNL1        0.0076
     15 C          -3.9656   -0.2889    0.2682 C.3     1  UNL1        0.1440
     16 C          -4.8253   -0.4896   -0.9413 C.3     1  UNL1        0.0199
     17 C          -4.5629    0.2508   -2.1791 C.3     1  UNL1        0.0645
     18 C          -5.6479   -0.2865   -3.1683 C.3     1  UNL1       -0.0362
     19 C          -4.8903    1.7416   -2.1311 C.3     1  UNL1       -0.0362
     20 O          -3.3796    0.0019   -2.8261 O.3     1  UNL1       -0.3890
     21 C          -4.5141   -1.2778    1.2576 C.ar    1  UNL1       -0.0040
     22 C          -5.1453   -0.9697    2.4258 C.ar    1  UNL1       -0.0548
     23 C          -5.6023   -1.9735    3.2958 C.ar    1  UNL1       -0.0614
     24 C          -5.4279   -3.3039    2.9961 C.ar    1  UNL1       -0.0617
     25 C          -4.7907   -3.6196    1.8157 C.ar    1  UNL1       -0.0614
     26 C          -4.3419   -2.6290    0.9618 C.ar    1  UNL1       -0.0548
     27 O          -2.6502   -0.7910   -0.0095 O.3     1  UNL1       -0.4387
     28 C          -1.5969   -0.4776    0.8239 C.2     1  UNL1        0.4042
     29 O          -0.7558   -1.2691    1.2930 O.2     1  UNL1       -0.2262
     30 C           1.2611    1.3990    0.2383 C.ar    1  UNL1       -0.0562
     31 C           2.5523    1.1923   -0.2079 C.ar    1  UNL1       -0.0537
     32 C           6.0056    0.8276    1.0367 C.ar    1  UNL1       -0.0446
     33 C           7.3068    0.5973    0.5785 C.ar    1  UNL1        0.0146
     34 C           8.4585    0.8605    1.4699 C.3     1  UNL1       -0.0346
     35 C           7.4460    0.1290   -0.7015 C.ar    1  UNL1        0.2542
     36 O           8.6193   -0.0844   -1.1303 O.2     1  UNL1       -0.2674
     37 H           6.1464   -2.4923   -3.7256 H       1  UNL1        0.0247
     38 H           6.0664   -2.4867   -1.9192 H       1  UNL1        0.0247
     39 H           7.6682   -2.5394   -2.7690 H       1  UNL1        0.0247
     40 H           5.8530   -0.2513   -3.5284 H       1  UNL1        0.0490
     41 H           7.6548   -0.2685   -3.1704 H       1  UNL1        0.0490
     42 H           4.3307   -0.0774   -1.7079 H       1  UNL1        0.0816
     43 H           3.9902    0.3612    2.7026 H       1  UNL1        0.0624
     44 H           1.6751    0.7381    3.4654 H       1  UNL1        0.0621
     45 H          -0.6612    2.5648    2.0747 H       1  UNL1        0.0549
     46 H          -0.4554   -0.1193    3.3993 H       1  UNL1        0.0251
     47 H          -1.7910    1.1136    3.6295 H       1  UNL1        0.0251
     48 H          -0.1263    1.5405    4.1525 H       1  UNL1        0.0251
     49 H          -2.5697    2.7312    1.0306 H       1  UNL1        0.0467
     50 H          -2.2626    1.8139   -0.4697 H       1  UNL1        0.0467
     51 H          -3.8630    1.0073    1.9725 H       1  UNL1        0.0322
     52 H          -4.6478    1.7904    0.6054 H       1  UNL1        0.0322
     53 H          -5.9203   -0.3428   -0.6916 H       1  UNL1        0.0335
     54 H          -4.7763   -1.5819   -1.1921 H       1  UNL1        0.0335
     55 H          -5.3851   -1.3324   -3.3707 H       1  UNL1        0.0257
     56 H          -5.6415    0.3494   -4.0591 H       1  UNL1        0.0257
     57 H          -6.5878   -0.2698   -2.6068 H       1  UNL1        0.0257
     58 H          -5.7301    1.9797   -1.4855 H       1  UNL1        0.0257
     59 H          -5.2246    2.0887   -3.1612 H       1  UNL1        0.0257
     60 H          -3.9904    2.3442   -1.9391 H       1  UNL1        0.0257
     61 H          -3.2468    0.7008   -3.5124 H       1  UNL1        0.2101
     62 H          -5.3227    0.0408    2.7074 H       1  UNL1        0.0622
     63 H          -6.1009   -1.7269    4.2199 H       1  UNL1        0.0618
     64 H          -5.7883   -4.0775    3.6819 H       1  UNL1        0.0618
     65 H          -4.6490   -4.6708    1.5712 H       1  UNL1        0.0618
     66 H          -3.8426   -2.8892    0.0411 H       1  UNL1        0.0622
     67 H           0.5191    1.6959   -0.5143 H       1  UNL1        0.0621
     68 H           2.8023    1.3205   -1.2475 H       1  UNL1        0.0624
     69 H           5.8450    1.1964    2.0374 H       1  UNL1        0.0628
     70 H           8.2161    1.5678    2.2709 H       1  UNL1        0.0279
     71 H           8.7116   -0.1184    1.9653 H       1  UNL1        0.0279
     72 H           9.3320    1.1674    0.8673 H       1  UNL1        0.0279
@<TRIPOS>BOND
     1     1     2    1
     2     2     3    1
     3     3     4   ar
     4     4     5   ar
     5     5     6    1
     6     6     7   ar
     7     7     8   ar
     8     8     9   ar
     9     9    10    1
    10    10    11    1
    11    10    12    1
    12    12    13    1
    13    13    14    1
    14    14    15    1
    15    15    16    1
    16    16    17    1
    17    17    18    1
    18    17    19    1
    19    17    20    1
    20    15    21    1
    21    21    22   ar
    22    22    23   ar
    23    23    24   ar
    24    24    25   ar
    25    25    26   ar
    26    15    27    1
    27    27    28    1
    28    28    29    2
    29     9    30   ar
    30    30    31   ar
    31     5    32   ar
    32    32    33   ar
    33    33    34    1
    34    33    35   ar
    35    35    36    2
    36    35     3   ar
    37    31     6   ar
    38    28    12   am
    39    26    21   ar
    40     1    37    1
    41     1    38    1
    42     1    39    1
    43     2    40    1
    44     2    41    1
    45     4    42    1
    46     7    43    1
    47     8    44    1
    48    10    45    1
    49    11    46    1
    50    11    47    1
    51    11    48    1
    52    13    49    1
    53    13    50    1
    54    14    51    1
    55    14    52    1
    56    16    53    1
    57    16    54    1
    58    18    55    1
    59    18    56    1
    60    18    57    1
    61    19    58    1
    62    19    59    1
    63    19    60    1
    64    20    61    1
    65    22    62    1
    66    23    63    1
    67    24    64    1
    68    25    65    1
    69    26    66    1
    70    30    67    1
    71    31    68    1
    72    32    69    1
    73    34    70    1
    74    34    71    1
    75    34    72    1
