@<TRIPOS>MOLECULE
*****
 42 43 0 0 0
SMALL
GASTEIGER

@<TRIPOS>ATOM
      1 C          -3.0789   -1.3389    1.3055 C.3     1  UNL1       -0.0607
      2 C          -2.8709    0.0386    0.7147 C.3     1  UNL1       -0.0194
      3 C          -3.9568    0.9640    1.2396 C.3     1  UNL1       -0.0607
      4 C          -2.9714   -0.0995   -0.7873 C.3     1  UNL1        0.1276
      5 N          -2.7883    1.1451   -1.4749 N.3     1  UNL1       -0.1759
      6 S          -1.3986    1.0144   -2.4706 S.O2    1  UNL1        0.0591
      7 O          -1.6691   -0.1043   -3.4577 O.2     1  UNL1       -0.1530
      8 O          -1.2873    2.3116   -3.2390 O.2     1  UNL1       -0.1530
      9 C           0.0696    0.7153   -1.6120 C.ar    1  UNL1        0.1053
     10 C           0.8439    1.7125   -1.0480 C.ar    1  UNL1       -0.0348
     11 C           2.0100    1.4067   -0.3825 C.ar    1  UNL1       -0.0522
     12 C           2.4665    0.1067   -0.2419 C.ar    1  UNL1       -0.0178
     13 C           3.7101   -0.1786    0.4720 C.ar    1  UNL1       -0.0179
     14 C           4.7638    0.7329    0.4529 C.ar    1  UNL1       -0.0540
     15 C           5.9387    0.5133    1.1011 C.ar    1  UNL1       -0.0612
     16 C           6.1026   -0.6534    1.8071 C.ar    1  UNL1       -0.0617
     17 C           5.0682   -1.5802    1.8433 C.ar    1  UNL1       -0.0612
     18 C           3.8776   -1.3416    1.1776 C.ar    1  UNL1       -0.0540
     19 C           1.7010   -0.8930   -0.8010 C.ar    1  UNL1       -0.0522
     20 C           0.5164   -0.5761   -1.4766 C.ar    1  UNL1       -0.0348
     21 C          -4.2554   -0.7365   -1.1916 C.2     1  UNL1        0.3238
     22 O          -4.5979   -1.8359   -0.7084 O.2     1  UNL1       -0.2492
     23 O          -5.0864   -0.1184   -2.1084 O.3     1  UNL1       -0.4795
     24 H          -2.7230   -2.1537    0.6350 H       1  UNL1        0.0233
     25 H          -2.4816   -1.4151    2.2394 H       1  UNL1        0.0233
     26 H          -4.1279   -1.5590    1.5537 H       1  UNL1        0.0233
     27 H          -1.8915    0.4351    0.9785 H       1  UNL1        0.0316
     28 H          -4.3233    0.6461    2.2391 H       1  UNL1        0.0233
     29 H          -3.6244    1.9999    1.3212 H       1  UNL1        0.0233
     30 H          -4.8575    0.9544    0.5730 H       1  UNL1        0.0233
     31 H          -2.1739   -0.7985   -1.0858 H       1  UNL1        0.0595
     32 H          -2.6676    1.9171   -0.7942 H       1  UNL1        0.1489
     33 H           0.4952    2.7303   -1.1531 H       1  UNL1        0.0637
     34 H           2.6233    2.1950    0.0641 H       1  UNL1        0.0624
     35 H           4.5909    1.6509   -0.1224 H       1  UNL1        0.0624
     36 H           6.7188    1.2581    1.0491 H       1  UNL1        0.0618
     37 H           7.0427   -0.7990    2.3097 H       1  UNL1        0.0618
     38 H           5.2585   -2.4754    2.4139 H       1  UNL1        0.0618
     39 H           3.0950   -2.0956    1.2337 H       1  UNL1        0.0624
     40 H           2.0421   -1.9134   -0.7010 H       1  UNL1        0.0624
     41 H          -0.0389   -1.4083   -1.8995 H       1  UNL1        0.0637
     42 H          -6.0640   -0.3732   -2.2019 H       1  UNL1        0.2951
@<TRIPOS>BOND
     1     1     2    1
     2     2     3    1
     3     2     4    1
     4     4     5    1
     5     5     6    1
     6     6     7    2
     7     6     8    2
     8     6     9    1
     9     9    10   ar
    10    10    11   ar
    11    11    12   ar
    12    12    13    1
    13    13    14   ar
    14    14    15   ar
    15    15    16   ar
    16    16    17   ar
    17    17    18   ar
    18    12    19   ar
    19    19    20   ar
    20     4    21    1
    21    21    22    2
    22    21    23    1
    23    20     9   ar
    24    18    13   ar
    25     1    24    1
    26     1    25    1
    27     1    26    1
    28     2    27    1
    29     3    28    1
    30     3    29    1
    31     3    30    1
    32     4    31    1
    33     5    32    1
    34    10    33    1
    35    11    34    1
    36    14    35    1
    37    15    36    1
    38    16    37    1
    39    17    38    1
    40    18    39    1
    41    19    40    1
    42    20    41    1
    43    23    42    1
