
     RDKit          3D

 42 43  0  0  0  0  0  0  0  0999 V2000
   -3.0789   -1.3389    1.3055 C   0  0  0  0  0  0  0  0  0  0  0  0
   -2.8709    0.0386    0.7147 C   0  0  0  0  0  0  0  0  0  0  0  0
   -3.9568    0.9640    1.2396 C   0  0  0  0  0  0  0  0  0  0  0  0
   -2.9714   -0.0995   -0.7873 C   0  0  2  0  0  0  0  0  0  0  0  0
   -2.7883    1.1451   -1.4749 N   0  0  0  0  0  0  0  0  0  0  0  0
   -1.3986    1.0144   -2.4706 S   0  0  0  0  0  6  0  0  0  0  0  0
   -1.6691   -0.1043   -3.4577 O   0  0  0  0  0  0  0  0  0  0  0  0
   -1.2873    2.3116   -3.2390 O   0  0  0  0  0  0  0  0  0  0  0  0
    0.0696    0.7153   -1.6120 C   0  0  0  0  0  0  0  0  0  0  0  0
    0.8439    1.7125   -1.0480 C   0  0  0  0  0  0  0  0  0  0  0  0
    2.0100    1.4067   -0.3825 C   0  0  0  0  0  0  0  0  0  0  0  0
    2.4665    0.1067   -0.2419 C   0  0  0  0  0  0  0  0  0  0  0  0
    3.7101   -0.1786    0.4720 C   0  0  0  0  0  0  0  0  0  0  0  0
    4.7638    0.7329    0.4529 C   0  0  0  0  0  0  0  0  0  0  0  0
    5.9387    0.5133    1.1011 C   0  0  0  0  0  0  0  0  0  0  0  0
    6.1026   -0.6534    1.8071 C   0  0  0  0  0  0  0  0  0  0  0  0
    5.0682   -1.5802    1.8433 C   0  0  0  0  0  0  0  0  0  0  0  0
    3.8776   -1.3416    1.1776 C   0  0  0  0  0  0  0  0  0  0  0  0
    1.7010   -0.8930   -0.8010 C   0  0  0  0  0  0  0  0  0  0  0  0
    0.5164   -0.5761   -1.4766 C   0  0  0  0  0  0  0  0  0  0  0  0
   -4.2554   -0.7365   -1.1916 C   0  0  0  0  0  0  0  0  0  0  0  0
   -4.5979   -1.8359   -0.7084 O   0  0  0  0  0  0  0  0  0  0  0  0
   -5.0864   -0.1184   -2.1084 O   0  0  0  0  0  0  0  0  0  0  0  0
   -2.7230   -2.1537    0.6350 H   0  0  0  0  0  0  0  0  0  0  0  0
   -2.4816   -1.4151    2.2394 H   0  0  0  0  0  0  0  0  0  0  0  0
   -4.1279   -1.5590    1.5537 H   0  0  0  0  0  0  0  0  0  0  0  0
   -1.8915    0.4351    0.9785 H   0  0  0  0  0  0  0  0  0  0  0  0
   -4.3233    0.6461    2.2391 H   0  0  0  0  0  0  0  0  0  0  0  0
   -3.6244    1.9999    1.3212 H   0  0  0  0  0  0  0  0  0  0  0  0
   -4.8575    0.9544    0.5730 H   0  0  0  0  0  0  0  0  0  0  0  0
   -2.1739   -0.7985   -1.0858 H   0  0  0  0  0  0  0  0  0  0  0  0
   -2.6676    1.9171   -0.7942 H   0  0  0  0  0  0  0  0  0  0  0  0
    0.4952    2.7303   -1.1531 H   0  0  0  0  0  0  0  0  0  0  0  0
    2.6233    2.1950    0.0641 H   0  0  0  0  0  0  0  0  0  0  0  0
    4.5909    1.6509   -0.1224 H   0  0  0  0  0  0  0  0  0  0  0  0
    6.7188    1.2581    1.0491 H   0  0  0  0  0  0  0  0  0  0  0  0
    7.0427   -0.7990    2.3097 H   0  0  0  0  0  0  0  0  0  0  0  0
    5.2585   -2.4754    2.4139 H   0  0  0  0  0  0  0  0  0  0  0  0
    3.0950   -2.0956    1.2337 H   0  0  0  0  0  0  0  0  0  0  0  0
    2.0421   -1.9134   -0.7010 H   0  0  0  0  0  0  0  0  0  0  0  0
   -0.0389   -1.4083   -1.8995 H   0  0  0  0  0  0  0  0  0  0  0  0
   -6.0640   -0.3732   -2.2019 H   0  0  0  0  0  0  0  0  0  0  0  0
  1  2  1  0
  2  3  1  0
  2  4  1  0
  4  5  1  0
  5  6  1  0
  6  7  2  0
  6  8  2  0
  6  9  1  0
  9 10  2  0
 10 11  1  0
 11 12  2  0
 12 13  1  0
 13 14  2  0
 14 15  1  0
 15 16  2  0
 16 17  1  0
 17 18  2  0
 12 19  1  0
 19 20  2  0
  4 21  1  0
 21 22  2  0
 21 23  1  0
 20  9  1  0
 18 13  1  0
  1 24  1  0
  1 25  1  0
  1 26  1  0
  2 27  1  0
  3 28  1  0
  3 29  1  0
  3 30  1  0
  4 31  1  6
  5 32  1  0
 10 33  1  0
 11 34  1  0
 14 35  1  0
 15 36  1  0
 16 37  1  0
 17 38  1  0
 18 39  1  0
 19 40  1  0
 20 41  1  0
 23 42  1  0
M  END
$$$$
