@<TRIPOS>MOLECULE
*****
 46 49 0 0 0
SMALL
GASTEIGER

@<TRIPOS>ATOM
      1 C           3.1112    1.6615    0.7471 C.3     1  UNL1       -0.0375
      2 C           3.8619    0.6373   -0.0499 C.ar    1  UNL1       -0.0187
      3 C           5.0867    0.9478   -0.5443 C.ar    1  UNL1       -0.0378
      4 C           5.7984   -0.0002   -1.3075 C.ar    1  UNL1        0.0701
      5 C           7.0361    0.4367   -1.8244 C.1     1  UNL1        0.1007
      6 N           8.1168    0.8058   -2.2909 N.1     1  UNL1       -0.1908
      7 C           5.2825   -1.2321   -1.5611 C.ar    1  UNL1        0.0458
      8 N           4.0435   -1.4900   -1.0398 N.ar    1  UNL1       -0.2488
      9 C           3.3321   -0.6354   -0.3193 C.ar    1  UNL1        0.1286
     10 C           2.0340   -0.9515    0.1996 C.2     1  UNL1        0.2668
     11 O           1.5748   -0.2159    1.1777 O.2     1  UNL1       -0.2682
     12 N           1.1507   -1.9542   -0.2123 N.am    1  UNL1       -0.2801
     13 C          -0.1335   -2.0613    0.4431 C.ar    1  UNL1        0.0369
     14 C          -0.3587   -2.8807    1.5139 C.ar    1  UNL1       -0.0037
     15 C          -1.5877   -2.8451    2.1891 C.ar    1  UNL1        0.1437
     16 F          -1.7741   -3.6623    3.2376 F       1  UNL1       -0.2039
     17 C          -2.5635   -1.9473    1.7338 C.ar    1  UNL1        0.0817
     18 CL         -4.0572   -1.9235    2.6355 Cl      1  UNL1       -0.0802
     19 C          -2.3771   -1.1197    0.6686 C.ar    1  UNL1        0.0057
     20 C          -3.3371   -0.1047    0.1609 C.3     1  UNL1        0.1272
     21 C          -4.6158   -0.7753   -0.2492 C.3     1  UNL1        0.1199
     22 F          -5.5529    0.1369   -0.7745 F       1  UNL1       -0.2462
     23 N          -2.8049    0.5558   -1.0017 N.2     1  UNL1       -0.2225
     24 C          -1.9374    1.4808   -0.9537 C.2     1  UNL1        0.2763
     25 N          -1.4161    2.1278   -2.1594 N.pl3   1  UNL1       -0.3134
     26 O          -1.5057    1.8565    0.2910 O.2     1  UNL1       -0.4622
     27 C          -2.4331    1.8788    1.3764 C.3     1  UNL1        0.1090
     28 C          -3.8245    2.3243    0.9362 C.3     1  UNL1       -0.0065
     29 C          -3.5254    0.8915    1.3058 C.3     1  UNL1        0.0314
     30 C          -1.1333   -1.2027    0.0288 C.ar    1  UNL1       -0.0333
     31 H           3.0713    1.3555    1.7922 H       1  UNL1        0.0278
     32 H           2.1057    1.8151    0.3480 H       1  UNL1        0.0278
     33 H           3.6527    2.6524    0.6758 H       1  UNL1        0.0278
     34 H           5.5407    1.9025   -0.3748 H       1  UNL1        0.0634
     35 H           5.8202   -1.9638   -2.1263 H       1  UNL1        0.0843
     36 H           1.4236   -2.5955   -0.9705 H       1  UNL1        0.1552
     37 H           0.4130   -3.5512    1.8255 H       1  UNL1        0.0665
     38 H          -4.4662   -1.5321   -1.0215 H       1  UNL1        0.0643
     39 H          -5.1556   -1.1925    0.6418 H       1  UNL1        0.0643
     40 H          -1.9180    1.9234   -3.0121 H       1  UNL1        0.1466
     41 H          -0.6158    2.7313   -2.0894 H       1  UNL1        0.1466
     42 H          -2.0952    2.3026    2.3077 H       1  UNL1        0.0737
     43 H          -3.9819    2.5713   -0.1302 H       1  UNL1        0.0306
     44 H          -4.4287    2.9034    1.6351 H       1  UNL1        0.0306
     45 H          -3.9500    0.5356    2.2531 H       1  UNL1        0.0365
     46 H          -0.9063   -0.5976   -0.8530 H       1  UNL1        0.0640
@<TRIPOS>BOND
     1     1     2    1
     2     2     3   ar
     3     3     4   ar
     4     4     5    1
     5     5     6    3
     6     4     7   ar
     7     7     8   ar
     8     8     9   ar
     9     9    10    1
    10    10    11    2
    11    10    12   am
    12    12    13    1
    13    13    14   ar
    14    14    15   ar
    15    15    16    1
    16    15    17   ar
    17    17    18    1
    18    17    19   ar
    19    19    20    1
    20    20    21    1
    21    21    22    1
    22    20    23    1
    23    23    24    2
    24    24    25    1
    25    24    26    1
    26    26    27    1
    27    27    28    1
    28    28    29    1
    29    19    30   ar
    30     9     2   ar
    31    30    13   ar
    32    29    20    1
    33    29    27    1
    34     1    31    1
    35     1    32    1
    36     1    33    1
    37     3    34    1
    38     7    35    1
    39    12    36    1
    40    14    37    1
    41    21    38    1
    42    21    39    1
    43    25    40    1
    44    25    41    1
    45    27    42    1
    46    28    43    1
    47    28    44    1
    48    29    45    1
    49    30    46    1
