
     RDKit          3D

 46 49  0  0  0  0  0  0  0  0999 V2000
    3.1112    1.6615    0.7471 C   0  0  0  0  0  0  0  0  0  0  0  0
    3.8619    0.6373   -0.0499 C   0  0  0  0  0  0  0  0  0  0  0  0
    5.0867    0.9478   -0.5443 C   0  0  0  0  0  0  0  0  0  0  0  0
    5.7984   -0.0002   -1.3075 C   0  0  0  0  0  0  0  0  0  0  0  0
    7.0361    0.4367   -1.8244 C   0  0  0  0  0  0  0  0  0  0  0  0
    8.1168    0.8058   -2.2909 N   0  0  0  0  0  0  0  0  0  0  0  0
    5.2825   -1.2321   -1.5611 C   0  0  0  0  0  0  0  0  0  0  0  0
    4.0435   -1.4900   -1.0398 N   0  0  0  0  0  0  0  0  0  0  0  0
    3.3321   -0.6354   -0.3193 C   0  0  0  0  0  0  0  0  0  0  0  0
    2.0340   -0.9515    0.1996 C   0  0  0  0  0  0  0  0  0  0  0  0
    1.5748   -0.2159    1.1777 O   0  0  0  0  0  0  0  0  0  0  0  0
    1.1507   -1.9542   -0.2123 N   0  0  0  0  0  0  0  0  0  0  0  0
   -0.1335   -2.0613    0.4431 C   0  0  0  0  0  0  0  0  0  0  0  0
   -0.3587   -2.8807    1.5139 C   0  0  0  0  0  0  0  0  0  0  0  0
   -1.5877   -2.8451    2.1891 C   0  0  0  0  0  0  0  0  0  0  0  0
   -1.7741   -3.6623    3.2376 F   0  0  0  0  0  0  0  0  0  0  0  0
   -2.5635   -1.9473    1.7338 C   0  0  0  0  0  0  0  0  0  0  0  0
   -4.0572   -1.9235    2.6355 Cl  0  0  0  0  0  0  0  0  0  0  0  0
   -2.3771   -1.1197    0.6686 C   0  0  0  0  0  0  0  0  0  0  0  0
   -3.3371   -0.1047    0.1609 C   0  0  2  0  0  0  0  0  0  0  0  0
   -4.6158   -0.7753   -0.2492 C   0  0  0  0  0  0  0  0  0  0  0  0
   -5.5529    0.1369   -0.7745 F   0  0  0  0  0  0  0  0  0  0  0  0
   -2.8049    0.5558   -1.0017 N   0  0  0  0  0  0  0  0  0  0  0  0
   -1.9374    1.4808   -0.9537 C   0  0  0  0  0  0  0  0  0  0  0  0
   -1.4161    2.1278   -2.1594 N   0  0  0  0  0  0  0  0  0  0  0  0
   -1.5057    1.8565    0.2910 O   0  0  0  0  0  0  0  0  0  0  0  0
   -2.4331    1.8788    1.3764 C   0  0  1  0  0  0  0  0  0  0  0  0
   -3.8245    2.3243    0.9362 C   0  0  0  0  0  0  0  0  0  0  0  0
   -3.5254    0.8915    1.3058 C   0  0  1  0  0  0  0  0  0  0  0  0
   -1.1333   -1.2027    0.0288 C   0  0  0  0  0  0  0  0  0  0  0  0
    3.0713    1.3555    1.7922 H   0  0  0  0  0  0  0  0  0  0  0  0
    2.1057    1.8151    0.3480 H   0  0  0  0  0  0  0  0  0  0  0  0
    3.6527    2.6524    0.6758 H   0  0  0  0  0  0  0  0  0  0  0  0
    5.5407    1.9025   -0.3748 H   0  0  0  0  0  0  0  0  0  0  0  0
    5.8202   -1.9638   -2.1263 H   0  0  0  0  0  0  0  0  0  0  0  0
    1.4236   -2.5955   -0.9705 H   0  0  0  0  0  0  0  0  0  0  0  0
    0.4130   -3.5512    1.8255 H   0  0  0  0  0  0  0  0  0  0  0  0
   -4.4662   -1.5321   -1.0215 H   0  0  0  0  0  0  0  0  0  0  0  0
   -5.1556   -1.1925    0.6418 H   0  0  0  0  0  0  0  0  0  0  0  0
   -1.9180    1.9234   -3.0121 H   0  0  0  0  0  0  0  0  0  0  0  0
   -0.6158    2.7313   -2.0894 H   0  0  0  0  0  0  0  0  0  0  0  0
   -2.0952    2.3026    2.3077 H   0  0  0  0  0  0  0  0  0  0  0  0
   -3.9819    2.5713   -0.1302 H   0  0  0  0  0  0  0  0  0  0  0  0
   -4.4287    2.9034    1.6351 H   0  0  0  0  0  0  0  0  0  0  0  0
   -3.9500    0.5356    2.2531 H   0  0  0  0  0  0  0  0  0  0  0  0
   -0.9063   -0.5976   -0.8530 H   0  0  0  0  0  0  0  0  0  0  0  0
  1  2  1  0
  2  3  2  0
  3  4  1  0
  4  5  1  0
  5  6  3  0
  4  7  2  0
  7  8  1  0
  8  9  2  0
  9 10  1  0
 10 11  2  0
 10 12  1  0
 12 13  1  0
 13 14  2  0
 14 15  1  0
 15 16  1  0
 15 17  2  0
 17 18  1  0
 17 19  1  0
 19 20  1  0
 20 21  1  6
 21 22  1  0
 20 23  1  0
 23 24  2  0
 24 25  1  0
 24 26  1  0
 26 27  1  0
 27 28  1  0
 28 29  1  0
 19 30  2  0
  9  2  1  0
 30 13  1  0
 29 20  1  0
 29 27  1  0
  1 31  1  0
  1 32  1  0
  1 33  1  0
  3 34  1  0
  7 35  1  0
 12 36  1  0
 14 37  1  0
 21 38  1  0
 21 39  1  0
 25 40  1  0
 25 41  1  0
 27 42  1  1
 28 43  1  0
 28 44  1  0
 29 45  1  1
 30 46  1  0
M  END
$$$$
