
     RDKit          3D

 54 53  0  0  0  0  0  0  0  0999 V2000
    8.3779    0.8660   -0.0344 C   0  0  0  0  0  0  0  0  0  0  0  0
    7.5693   -0.3727    0.2431 C   0  0  0  0  0  0  0  0  0  0  0  0
    6.1840   -0.0692    0.7827 C   0  0  0  0  0  0  0  0  0  0  0  0
    5.4271    0.7572   -0.2229 C   0  0  0  0  0  0  0  0  0  0  0  0
    4.0321    1.0956    0.2524 C   0  0  0  0  0  0  0  0  0  0  0  0
    3.2103   -0.1506    0.5061 C   0  0  0  0  0  0  0  0  0  0  0  0
    1.8475    0.1879    0.9716 C   0  0  0  0  0  0  0  0  0  0  0  0
    0.6624   -0.1131    0.4032 C   0  0  0  0  0  0  0  0  0  0  0  0
    0.5676   -0.8736   -0.8460 C   0  0  0  0  0  0  0  0  0  0  0  0
   -0.2153   -2.1453   -0.6096 C   0  0  0  0  0  0  0  0  0  0  0  0
   -1.6198   -1.8717   -0.1227 C   0  0  0  0  0  0  0  0  0  0  0  0
   -2.4375   -1.0652   -1.0678 C   0  0  0  0  0  0  0  0  0  0  0  0
   -3.8691   -0.7987   -0.5799 C   0  0  0  0  0  0  0  0  0  0  0  0
   -3.9268   -0.0620    0.6778 C   0  0  0  0  0  0  0  0  0  0  0  0
   -5.1537    0.2294    1.4219 C   0  0  0  0  0  0  0  0  0  0  0  0
   -6.3233    0.9693    0.9590 C   0  0  0  0  0  0  0  0  0  0  0  0
   -7.2638    0.4821   -0.0591 C   0  0  0  0  0  0  0  0  0  0  0  0
   -6.8701    0.1893   -1.4164 C   0  0  0  0  0  0  0  0  0  0  0  0
   -6.5596    1.2238   -2.2883 O   0  0  0  0  0  0  0  0  0  0  0  0
   -6.8138   -1.0321   -1.7972 O   0  0  0  0  0  0  0  0  0  0  0  0
    9.4504    0.5382   -0.0999 H   0  0  0  0  0  0  0  0  0  0  0  0
    8.2411    1.6183    0.7516 H   0  0  0  0  0  0  0  0  0  0  0  0
    8.0785    1.3105   -1.0124 H   0  0  0  0  0  0  0  0  0  0  0  0
    7.4040   -0.9570   -0.6926 H   0  0  0  0  0  0  0  0  0  0  0  0
    8.1303   -0.9984    0.9895 H   0  0  0  0  0  0  0  0  0  0  0  0
    5.6838   -1.0492    0.9144 H   0  0  0  0  0  0  0  0  0  0  0  0
    6.2150    0.3968    1.7821 H   0  0  0  0  0  0  0  0  0  0  0  0
    5.9676    1.7155   -0.3689 H   0  0  0  0  0  0  0  0  0  0  0  0
    5.4295    0.2195   -1.1897 H   0  0  0  0  0  0  0  0  0  0  0  0
    4.1165    1.7171    1.1507 H   0  0  0  0  0  0  0  0  0  0  0  0
    3.5269    1.6667   -0.5501 H   0  0  0  0  0  0  0  0  0  0  0  0
    3.7058   -0.6358    1.3965 H   0  0  0  0  0  0  0  0  0  0  0  0
    3.2782   -0.8853   -0.2866 H   0  0  0  0  0  0  0  0  0  0  0  0
    1.8179    0.7607    1.9057 H   0  0  0  0  0  0  0  0  0  0  0  0
   -0.2445    0.2233    0.8906 H   0  0  0  0  0  0  0  0  0  0  0  0
   -0.0028   -0.2644   -1.6028 H   0  0  0  0  0  0  0  0  0  0  0  0
    1.5210   -1.1019   -1.3238 H   0  0  0  0  0  0  0  0  0  0  0  0
   -0.1574   -2.8484   -1.4527 H   0  0  0  0  0  0  0  0  0  0  0  0
    0.3000   -2.6450    0.2562 H   0  0  0  0  0  0  0  0  0  0  0  0
   -1.5093   -1.3662    0.8454 H   0  0  0  0  0  0  0  0  0  0  0  0
   -2.1060   -2.8678    0.0121 H   0  0  0  0  0  0  0  0  0  0  0  0
   -1.9873   -0.0556   -1.2097 H   0  0  0  0  0  0  0  0  0  0  0  0
   -2.5382   -1.5129   -2.0736 H   0  0  0  0  0  0  0  0  0  0  0  0
   -4.4515   -1.7135   -0.5718 H   0  0  0  0  0  0  0  0  0  0  0  0
   -4.2999   -0.1276   -1.4017 H   0  0  0  0  0  0  0  0  0  0  0  0
   -3.1928   -0.4793    1.4540 H   0  0  0  0  0  0  0  0  0  0  0  0
   -3.4345    0.9860    0.5182 H   0  0  0  0  0  0  0  0  0  0  0  0
   -4.8574    0.6834    2.4591 H   0  0  0  0  0  0  0  0  0  0  0  0
   -5.5336   -0.8021    1.8420 H   0  0  0  0  0  0  0  0  0  0  0  0
   -6.9559    1.3206    1.8784 H   0  0  0  0  0  0  0  0  0  0  0  0
   -5.9207    2.0024    0.5943 H   0  0  0  0  0  0  0  0  0  0  0  0
   -7.7651   -0.4547    0.4204 H   0  0  0  0  0  0  0  0  0  0  0  0
   -8.1160    1.2634   -0.0903 H   0  0  0  0  0  0  0  0  0  0  0  0
   -6.6188    1.0697   -3.3079 H   0  0  0  0  0  0  0  0  0  0  0  0
  1  2  1  0
  2  3  1  0
  3  4  1  0
  4  5  1  0
  5  6  1  0
  6  7  1  0
  7  8  2  0
  8  9  1  0
  9 10  1  0
 10 11  1  0
 11 12  1  0
 12 13  1  0
 13 14  1  0
 14 15  1  0
 15 16  1  0
 16 17  1  0
 17 18  1  0
 18 19  1  0
 18 20  2  0
  1 21  1  0
  1 22  1  0
  1 23  1  0
  2 24  1  0
  2 25  1  0
  3 26  1  0
  3 27  1  0
  4 28  1  0
  4 29  1  0
  5 30  1  0
  5 31  1  0
  6 32  1  0
  6 33  1  0
  7 34  1  0
  8 35  1  0
  9 36  1  0
  9 37  1  0
 10 38  1  0
 10 39  1  0
 11 40  1  0
 11 41  1  0
 12 42  1  0
 12 43  1  0
 13 44  1  0
 13 45  1  0
 14 46  1  0
 14 47  1  0
 15 48  1  0
 15 49  1  0
 16 50  1  0
 16 51  1  0
 17 52  1  0
 17 53  1  0
 19 54  1  0
M  END
$$$$
