
     RDKit          3D

 43 45  0  0  0  0  0  0  0  0999 V2000
   -1.5570    2.8694   -1.9752 C   0  0  0  0  0  0  0  0  0  0  0  0
   -1.5232    1.6586   -1.2431 O   0  0  0  0  0  0  0  0  0  0  0  0
   -0.9580    0.5013   -1.6937 C   0  0  0  0  0  0  0  0  0  0  0  0
   -0.4214    0.4685   -2.8301 O   0  0  0  0  0  0  0  0  0  0  0  0
   -0.9435   -0.7500   -0.8932 C   0  0  1  0  0  0  0  0  0  0  0  0
   -0.2229   -0.5789    0.4133 C   0  0  1  0  0  0  0  0  0  0  0  0
    1.1076   -0.1665    0.2834 O   0  0  0  0  0  0  0  0  0  0  0  0
    2.2083   -0.8582    0.6878 C   0  0  0  0  0  0  0  0  0  0  0  0
    2.0240   -1.9784    1.2326 O   0  0  0  0  0  0  0  0  0  0  0  0
    3.5783   -0.4093    0.5420 C   0  0  0  0  0  0  0  0  0  0  0  0
    4.6628   -1.1446    0.9671 C   0  0  0  0  0  0  0  0  0  0  0  0
    5.9569   -0.7031    0.8208 C   0  0  0  0  0  0  0  0  0  0  0  0
    6.2067    0.5090    0.2341 C   0  0  0  0  0  0  0  0  0  0  0  0
    5.1416    1.2798   -0.2074 C   0  0  0  0  0  0  0  0  0  0  0  0
    3.8386    0.8057   -0.0455 C   0  0  0  0  0  0  0  0  0  0  0  0
   -0.9241    0.3676    1.3354 C   0  0  0  0  0  0  0  0  0  0  0  0
   -2.4197    0.1465    1.3782 C   0  0  2  0  0  0  0  0  0  0  0  0
   -2.6886   -1.2863    1.7808 C   0  0  0  0  0  0  0  0  0  0  0  0
   -2.5682   -2.0611    0.4985 C   0  0  0  0  0  0  0  0  0  0  0  0
   -2.4189   -1.0084   -0.5468 C   0  0  1  0  0  0  0  0  0  0  0  0
   -2.9036    0.2192    0.0201 N   0  0  0  0  0  0  0  0  0  0  0  0
   -4.3217    0.3843   -0.0731 C   0  0  0  0  0  0  0  0  0  0  0  0
   -1.2819    3.6790   -1.2689 H   0  0  0  0  0  0  0  0  0  0  0  0
   -0.8195    2.8199   -2.7952 H   0  0  0  0  0  0  0  0  0  0  0  0
   -2.5632    3.0961   -2.3744 H   0  0  0  0  0  0  0  0  0  0  0  0
   -0.6099   -1.6190   -1.4543 H   0  0  0  0  0  0  0  0  0  0  0  0
   -0.2099   -1.5775    0.9089 H   0  0  0  0  0  0  0  0  0  0  0  0
    4.4232   -2.1094    1.4317 H   0  0  0  0  0  0  0  0  0  0  0  0
    6.7693   -1.3029    1.1634 H   0  0  0  0  0  0  0  0  0  0  0  0
    7.2319    0.8884    0.1035 H   0  0  0  0  0  0  0  0  0  0  0  0
    5.3542    2.2295   -0.6661 H   0  0  0  0  0  0  0  0  0  0  0  0
    3.0423    1.4485   -0.4085 H   0  0  0  0  0  0  0  0  0  0  0  0
   -0.7243    1.4337    1.1175 H   0  0  0  0  0  0  0  0  0  0  0  0
   -0.5500    0.1885    2.3661 H   0  0  0  0  0  0  0  0  0  0  0  0
   -2.8606    0.8842    2.0457 H   0  0  0  0  0  0  0  0  0  0  0  0
   -3.7548   -1.3242    2.1255 H   0  0  0  0  0  0  0  0  0  0  0  0
   -2.0084   -1.6419    2.5757 H   0  0  0  0  0  0  0  0  0  0  0  0
   -3.5305   -2.6097    0.2869 H   0  0  0  0  0  0  0  0  0  0  0  0
   -1.7794   -2.8220    0.5026 H   0  0  0  0  0  0  0  0  0  0  0  0
   -2.9034   -1.2919   -1.4831 H   0  0  0  0  0  0  0  0  0  0  0  0
   -4.7305   -0.3787   -0.7756 H   0  0  0  0  0  0  0  0  0  0  0  0
   -4.8360    0.3729    0.9074 H   0  0  0  0  0  0  0  0  0  0  0  0
   -4.5124    1.3715   -0.5714 H   0  0  0  0  0  0  0  0  0  0  0  0
  1  2  1  0
  2  3  1  0
  3  4  2  0
  3  5  1  0
  5  6  1  0
  6  7  1  0
  7  8  1  0
  8  9  2  0
  8 10  1  0
 10 11  2  0
 11 12  1  0
 12 13  2  0
 13 14  1  0
 14 15  2  0
  6 16  1  0
 16 17  1  0
 17 18  1  0
 18 19  1  0
 19 20  1  0
 20 21  1  0
 21 22  1  0
 20  5  1  0
 15 10  1  0
 21 17  1  0
  1 23  1  0
  1 24  1  0
  1 25  1  0
  5 26  1  6
  6 27  1  1
 11 28  1  0
 12 29  1  0
 13 30  1  0
 14 31  1  0
 15 32  1  0
 16 33  1  0
 16 34  1  0
 17 35  1  1
 18 36  1  0
 18 37  1  0
 19 38  1  0
 19 39  1  0
 20 40  1  6
 22 41  1  0
 22 42  1  0
 22 43  1  0
M  END
$$$$
