@<TRIPOS>MOLECULE
*****
 43 45 0 0 0
SMALL
GASTEIGER

@<TRIPOS>ATOM
      1 C          -1.5570    2.8694   -1.9752 C.3     1  UNL1        0.0817
      2 O          -1.5232    1.6586   -1.2431 O.3     1  UNL1       -0.4676
      3 C          -0.9580    0.5013   -1.6937 C.2     1  UNL1        0.3150
      4 O          -0.4214    0.4685   -2.8301 O.2     1  UNL1       -0.2504
      5 C          -0.9435   -0.7500   -0.8932 C.3     1  UNL1        0.1087
      6 C          -0.2229   -0.5789    0.4133 C.3     1  UNL1        0.1191
      7 O           1.1076   -0.1665    0.2834 O.3     1  UNL1       -0.4569
      8 C           2.2083   -0.8582    0.6878 C.2     1  UNL1        0.3395
      9 O           2.0240   -1.9784    1.2326 O.2     1  UNL1       -0.2450
     10 C           3.5783   -0.4093    0.5420 C.ar    1  UNL1        0.0590
     11 C           4.6628   -1.1446    0.9671 C.ar    1  UNL1       -0.0478
     12 C           5.9569   -0.7031    0.8208 C.ar    1  UNL1       -0.0610
     13 C           6.2067    0.5090    0.2341 C.ar    1  UNL1       -0.0617
     14 C           5.1416    1.2798   -0.2074 C.ar    1  UNL1       -0.0610
     15 C           3.8386    0.8057   -0.0455 C.ar    1  UNL1       -0.0478
     16 C          -0.9241    0.3676    1.3354 C.3     1  UNL1        0.0008
     17 C          -2.4197    0.1465    1.3782 C.3     1  UNL1        0.0138
     18 C          -2.6886   -1.2863    1.7808 C.3     1  UNL1       -0.0358
     19 C          -2.5682   -2.0611    0.4985 C.3     1  UNL1       -0.0350
     20 C          -2.4189   -1.0084   -0.5468 C.3     1  UNL1        0.0268
     21 N          -2.9036    0.2192    0.0201 N.3     1  UNL1       -0.2984
     22 C          -4.3217    0.3843   -0.0731 C.3     1  UNL1       -0.0122
     23 H          -1.2819    3.6790   -1.2689 H       1  UNL1        0.0661
     24 H          -0.8195    2.8199   -2.7952 H       1  UNL1        0.0661
     25 H          -2.5632    3.0961   -2.3744 H       1  UNL1        0.0661
     26 H          -0.6099   -1.6190   -1.4543 H       1  UNL1        0.0466
     27 H          -0.2099   -1.5775    0.9089 H       1  UNL1        0.0743
     28 H           4.4232   -2.1094    1.4317 H       1  UNL1        0.0626
     29 H           6.7693   -1.3029    1.1634 H       1  UNL1        0.0618
     30 H           7.2319    0.8884    0.1035 H       1  UNL1        0.0618
     31 H           5.3542    2.2295   -0.6661 H       1  UNL1        0.0618
     32 H           3.0423    1.4485   -0.4085 H       1  UNL1        0.0626
     33 H          -0.7243    1.4337    1.1175 H       1  UNL1        0.0316
     34 H          -0.5500    0.1885    2.3661 H       1  UNL1        0.0316
     35 H          -2.8606    0.8842    2.0457 H       1  UNL1        0.0464
     36 H          -3.7548   -1.3242    2.1255 H       1  UNL1        0.0281
     37 H          -2.0084   -1.6419    2.5757 H       1  UNL1        0.0281
     38 H          -3.5305   -2.6097    0.2869 H       1  UNL1        0.0281
     39 H          -1.7794   -2.8220    0.5026 H       1  UNL1        0.0281
     40 H          -2.9034   -1.2919   -1.4831 H       1  UNL1        0.0472
     41 H          -4.7305   -0.3787   -0.7756 H       1  UNL1        0.0391
     42 H          -4.8360    0.3729    0.9074 H       1  UNL1        0.0391
     43 H          -4.5124    1.3715   -0.5714 H       1  UNL1        0.0391
@<TRIPOS>BOND
     1     1     2    1
     2     2     3    1
     3     3     4    2
     4     3     5    1
     5     5     6    1
     6     6     7    1
     7     7     8    1
     8     8     9    2
     9     8    10    1
    10    10    11   ar
    11    11    12   ar
    12    12    13   ar
    13    13    14   ar
    14    14    15   ar
    15     6    16    1
    16    16    17    1
    17    17    18    1
    18    18    19    1
    19    19    20    1
    20    20    21    1
    21    21    22    1
    22    20     5    1
    23    15    10   ar
    24    21    17    1
    25     1    23    1
    26     1    24    1
    27     1    25    1
    28     5    26    1
    29     6    27    1
    30    11    28    1
    31    12    29    1
    32    13    30    1
    33    14    31    1
    34    15    32    1
    35    16    33    1
    36    16    34    1
    37    17    35    1
    38    18    36    1
    39    18    37    1
    40    19    38    1
    41    19    39    1
    42    20    40    1
    43    22    41    1
    44    22    42    1
    45    22    43    1
