
     RDKit          3D

 52 55  0  0  0  0  0  0  0  0999 V2000
   -0.7344    0.1885    1.7521 C   0  0  0  0  0  0  0  0  0  0  0  0
   -1.2652    0.3951    0.3332 C   0  0  0  0  0  0  0  0  0  0  0  0
   -0.1088    0.3730   -0.5918 C   0  0  0  0  0  0  0  0  0  0  0  0
    1.1473    0.0997   -0.1146 C   0  0  0  0  0  0  0  0  0  0  0  0
    2.2743    0.0634   -0.9447 C   0  0  0  0  0  0  0  0  0  0  0  0
    3.5245   -0.2252   -0.3684 N   0  0  0  0  0  0  0  0  0  0  0  0
    4.7655   -0.3052   -1.0427 C   0  0  0  0  0  0  0  0  0  0  0  0
    4.8500   -0.1170   -2.2568 O   0  0  0  0  0  0  0  0  0  0  0  0
    5.9907   -0.6218   -0.2746 C   0  0  0  0  0  0  0  0  0  0  0  0
    7.2141   -0.7107   -0.8780 C   0  0  0  0  0  0  0  0  0  0  0  0
    8.3614   -1.0048   -0.1731 C   0  0  0  0  0  0  0  0  0  0  0  0
    8.2563   -1.2145    1.1901 C   0  0  0  0  0  0  0  0  0  0  0  0
    9.3561   -1.5085    1.9385 F   0  0  0  0  0  0  0  0  0  0  0  0
    7.0150   -1.1209    1.7821 C   0  0  0  0  0  0  0  0  0  0  0  0
    5.9173   -0.8321    1.0626 N   0  0  0  0  0  0  0  0  0  0  0  0
    2.0625    0.3170   -2.2758 C   0  0  0  0  0  0  0  0  0  0  0  0
    0.7785    0.5957   -2.7604 C   0  0  0  0  0  0  0  0  0  0  0  0
   -0.3175    0.6280   -1.9343 C   0  0  0  0  0  0  0  0  0  0  0  0
   -1.5558    0.8952   -2.3922 F   0  0  0  0  0  0  0  0  0  0  0  0
   -2.2948   -0.6232   -0.0178 C   0  0  0  0  0  0  0  0  0  0  0  0
   -3.6919   -0.1923    0.2270 C   0  0  0  0  0  0  0  0  0  0  0  0
   -4.0933   -0.0245    1.6535 C   0  0  0  0  0  0  0  0  0  0  0  0
   -5.6305   -0.0642    1.6769 C   0  0  0  0  0  0  0  0  0  0  0  0
   -6.1497    0.4485    0.4780 O   0  0  0  0  0  0  0  0  0  0  0  0
   -5.9901   -0.5389   -0.5176 C   0  0  0  0  0  0  0  0  0  0  0  0
   -4.6561   -1.2256   -0.3662 C   0  0  0  0  0  0  0  0  0  0  0  0
   -3.8947    1.0562   -0.4448 O   0  0  0  0  0  0  0  0  0  0  0  0
   -2.9954    2.0537   -0.1032 C   0  0  0  0  0  0  0  0  0  0  0  0
   -3.4301    3.4324   -0.1539 N   0  0  0  0  0  0  0  0  0  0  0  0
   -1.8211    1.7292    0.2426 N   0  0  0  0  0  0  0  0  0  0  0  0
   -0.2635   -0.8012    1.8935 H   0  0  0  0  0  0  0  0  0  0  0  0
    0.0248    0.9596    1.9842 H   0  0  0  0  0  0  0  0  0  0  0  0
   -1.5752    0.2085    2.4868 H   0  0  0  0  0  0  0  0  0  0  0  0
    1.3361   -0.1052    0.9352 H   0  0  0  0  0  0  0  0  0  0  0  0
    3.5528   -0.4022    0.6730 H   0  0  0  0  0  0  0  0  0  0  0  0
    7.2579   -0.5402   -1.9473 H   0  0  0  0  0  0  0  0  0  0  0  0
    9.3378   -1.0735   -0.6687 H   0  0  0  0  0  0  0  0  0  0  0  0
    6.9318   -1.2841    2.8438 H   0  0  0  0  0  0  0  0  0  0  0  0
    2.8574    0.3124   -2.9875 H   0  0  0  0  0  0  0  0  0  0  0  0
    0.6117    0.7964   -3.8144 H   0  0  0  0  0  0  0  0  0  0  0  0
   -2.0683   -1.5815    0.5259 H   0  0  0  0  0  0  0  0  0  0  0  0
   -2.2292   -0.8998   -1.1116 H   0  0  0  0  0  0  0  0  0  0  0  0
   -3.8245    0.9248    2.1136 H   0  0  0  0  0  0  0  0  0  0  0  0
   -3.6955   -0.8702    2.2502 H   0  0  0  0  0  0  0  0  0  0  0  0
   -6.0243    0.5969    2.4920 H   0  0  0  0  0  0  0  0  0  0  0  0
   -5.9987   -1.0795    1.8960 H   0  0  0  0  0  0  0  0  0  0  0  0
   -6.0937   -0.0360   -1.5136 H   0  0  0  0  0  0  0  0  0  0  0  0
   -6.8458   -1.2180   -0.4185 H   0  0  0  0  0  0  0  0  0  0  0  0
   -4.2747   -1.6501   -1.2954 H   0  0  0  0  0  0  0  0  0  0  0  0
   -4.7732   -2.0056    0.4248 H   0  0  0  0  0  0  0  0  0  0  0  0
   -4.0938    3.8106    0.5603 H   0  0  0  0  0  0  0  0  0  0  0  0
   -3.0338    3.9919   -0.9404 H   0  0  0  0  0  0  0  0  0  0  0  0
  1  2  1  0
  2  3  1  0
  3  4  2  0
  4  5  1  0
  5  6  1  0
  6  7  1  0
  7  8  2  0
  7  9  1  0
  9 10  2  0
 10 11  1  0
 11 12  2  0
 12 13  1  0
 12 14  1  0
 14 15  2  0
  5 16  2  0
 16 17  1  0
 17 18  2  0
 18 19  1  0
  2 20  1  0
 20 21  1  0
 21 22  1  0
 22 23  1  0
 23 24  1  0
 24 25  1  0
 25 26  1  0
 21 27  1  0
 27 28  1  0
 28 29  1  0
 28 30  2  0
 30  2  1  0
 18  3  1  0
 26 21  1  0
 15  9  1  0
  1 31  1  0
  1 32  1  0
  1 33  1  0
  4 34  1  0
  6 35  1  0
 10 36  1  0
 11 37  1  0
 14 38  1  0
 16 39  1  0
 17 40  1  0
 20 41  1  0
 20 42  1  0
 22 43  1  0
 22 44  1  0
 23 45  1  0
 23 46  1  0
 25 47  1  0
 25 48  1  0
 26 49  1  0
 26 50  1  0
 29 51  1  0
 29 52  1  0
M  END
$$$$
