@<TRIPOS>MOLECULE
*****
 52 55 0 0 0
SMALL
GASTEIGER

@<TRIPOS>ATOM
      1 C          -0.7344    0.1885    1.7521 C.3     1  UNL1       -0.0352
      2 C          -1.2652    0.3951    0.3332 C.3     1  UNL1        0.0951
      3 C          -0.1088    0.3730   -0.5918 C.ar    1  UNL1        0.0168
      4 C           1.1473    0.0997   -0.1146 C.ar    1  UNL1       -0.0323
      5 C           2.2743    0.0634   -0.9447 C.ar    1  UNL1        0.0342
      6 N           3.5245   -0.2252   -0.3684 N.am    1  UNL1       -0.2802
      7 C           4.7655   -0.3052   -1.0427 C.2     1  UNL1        0.2666
      8 O           4.8500   -0.1170   -2.2568 O.2     1  UNL1       -0.2682
      9 C           5.9907   -0.6218   -0.2746 C.ar    1  UNL1        0.1258
     10 C           7.2141   -0.7107   -0.8780 C.ar    1  UNL1       -0.0285
     11 C           8.3614   -1.0048   -0.1731 C.ar    1  UNL1       -0.0228
     12 C           8.2563   -1.2145    1.1901 C.ar    1  UNL1        0.1414
     13 F           9.3561   -1.5085    1.9385 F       1  UNL1       -0.2039
     14 C           7.0150   -1.1209    1.7821 C.ar    1  UNL1        0.0636
     15 N           5.9173   -0.8321    1.0626 N.ar    1  UNL1       -0.2475
     16 C           2.0625    0.3170   -2.2758 C.ar    1  UNL1       -0.0377
     17 C           0.7785    0.5957   -2.7604 C.ar    1  UNL1       -0.0243
     18 C          -0.3175    0.6280   -1.9343 C.ar    1  UNL1        0.1290
     19 F          -1.5558    0.8952   -2.3922 F       1  UNL1       -0.2051
     20 C          -2.2948   -0.6232   -0.0178 C.3     1  UNL1        0.0167
     21 C          -3.6919   -0.1923    0.2270 C.3     1  UNL1        0.1202
     22 C          -4.0933   -0.0245    1.6535 C.3     1  UNL1        0.0108
     23 C          -5.6305   -0.0642    1.6769 C.3     1  UNL1        0.0513
     24 O          -6.1497    0.4485    0.4780 O.3     1  UNL1       -0.3795
     25 C          -5.9901   -0.5389   -0.5176 C.3     1  UNL1        0.0513
     26 C          -4.6561   -1.2256   -0.3662 C.3     1  UNL1        0.0108
     27 O          -3.8947    1.0562   -0.4448 O.2     1  UNL1       -0.4591
     28 C          -2.9954    2.0537   -0.1032 C.2     1  UNL1        0.2765
     29 N          -3.4301    3.4324   -0.1539 N.pl3   1  UNL1       -0.3133
     30 N          -1.8211    1.7292    0.2426 N.2     1  UNL1       -0.2257
     31 H          -0.2635   -0.8012    1.8935 H       1  UNL1        0.0256
     32 H           0.0248    0.9596    1.9842 H       1  UNL1        0.0256
     33 H          -1.5752    0.2085    2.4868 H       1  UNL1        0.0256
     34 H           1.3361   -0.1052    0.9352 H       1  UNL1        0.0640
     35 H           3.5528   -0.4022    0.6730 H       1  UNL1        0.1552
     36 H           7.2579   -0.5402   -1.9473 H       1  UNL1        0.0641
     37 H           9.3378   -1.0735   -0.6687 H       1  UNL1        0.0647
     38 H           6.9318   -1.2841    2.8438 H       1  UNL1        0.0859
     39 H           2.8574    0.3124   -2.9875 H       1  UNL1        0.0637
     40 H           0.6117    0.7964   -3.8144 H       1  UNL1        0.0647
     41 H          -2.0683   -1.5815    0.5259 H       1  UNL1        0.0330
     42 H          -2.2292   -0.8998   -1.1116 H       1  UNL1        0.0330
     43 H          -3.8245    0.9248    2.1136 H       1  UNL1        0.0326
     44 H          -3.6955   -0.8702    2.2502 H       1  UNL1        0.0326
     45 H          -6.0243    0.5969    2.4920 H       1  UNL1        0.0561
     46 H          -5.9987   -1.0795    1.8960 H       1  UNL1        0.0561
     47 H          -6.0937   -0.0360   -1.5136 H       1  UNL1        0.0561
     48 H          -6.8458   -1.2180   -0.4185 H       1  UNL1        0.0561
     49 H          -4.2747   -1.6501   -1.2954 H       1  UNL1        0.0326
     50 H          -4.7732   -2.0056    0.4248 H       1  UNL1        0.0326
     51 H          -4.0938    3.8106    0.5603 H       1  UNL1        0.1466
     52 H          -3.0338    3.9919   -0.9404 H       1  UNL1        0.1466
@<TRIPOS>BOND
     1     1     2    1
     2     2     3    1
     3     3     4   ar
     4     4     5   ar
     5     5     6    1
     6     6     7   am
     7     7     8    2
     8     7     9    1
     9     9    10   ar
    10    10    11   ar
    11    11    12   ar
    12    12    13    1
    13    12    14   ar
    14    14    15   ar
    15     5    16   ar
    16    16    17   ar
    17    17    18   ar
    18    18    19    1
    19     2    20    1
    20    20    21    1
    21    21    22    1
    22    22    23    1
    23    23    24    1
    24    24    25    1
    25    25    26    1
    26    21    27    1
    27    27    28    1
    28    28    29    1
    29    28    30    2
    30    30     2    1
    31    18     3   ar
    32    26    21    1
    33    15     9   ar
    34     1    31    1
    35     1    32    1
    36     1    33    1
    37     4    34    1
    38     6    35    1
    39    10    36    1
    40    11    37    1
    41    14    38    1
    42    16    39    1
    43    17    40    1
    44    20    41    1
    45    20    42    1
    46    22    43    1
    47    22    44    1
    48    23    45    1
    49    23    46    1
    50    25    47    1
    51    25    48    1
    52    26    49    1
    53    26    50    1
    54    29    51    1
    55    29    52    1
