
     RDKit          3D

 44 46  0  0  0  0  0  0  0  0999 V2000
   -5.6149   -0.4003   -1.0087 C   0  0  0  0  0  0  0  0  0  0  0  0
   -4.3770   -0.6827   -0.1407 C   0  0  0  0  0  0  0  0  0  0  0  0
   -3.4479    0.4928   -0.3451 C   0  0  0  0  0  0  0  0  0  0  0  0
   -4.8402   -0.6266    1.2988 C   0  0  0  0  0  0  0  0  0  0  0  0
   -3.8182   -1.9481   -0.4921 N   0  0  0  0  0  0  0  0  0  0  0  0
   -2.5101   -2.4347    0.4661 S   0  0  0  0  0  0  0  0  0  0  0  0
   -2.0323   -3.8093    0.0111 O   0  0  0  0  0  0  0  0  0  0  0  0
   -2.9200   -2.5186    1.9345 O   0  0  0  0  0  0  0  0  0  0  0  0
   -1.1353   -1.3987    0.4114 C   0  0  0  0  0  0  0  0  0  0  0  0
   -0.2087   -1.5897   -0.6215 C   0  0  0  0  0  0  0  0  0  0  0  0
    0.9471   -0.8758   -0.8234 C   0  0  0  0  0  0  0  0  0  0  0  0
    1.2094    0.1330    0.0971 C   0  0  0  0  0  0  0  0  0  0  0  0
    0.3373    0.3895    1.1569 C   0  0  0  0  0  0  0  0  0  0  0  0
   -0.7998   -0.3801    1.2788 C   0  0  0  0  0  0  0  0  0  0  0  0
    2.4394    0.8971   -0.1115 C   0  0  0  0  0  0  0  0  0  0  0  0
    3.5083    0.2230   -0.6761 C   0  0  0  0  0  0  0  0  0  0  0  0
    4.6804    0.9152   -0.8854 C   0  0  0  0  0  0  0  0  0  0  0  0
    4.8285    2.2551   -0.5534 C   0  0  0  0  0  0  0  0  0  0  0  0
    6.0702    2.7134   -0.8534 N   0  0  0  0  0  0  0  0  0  0  0  0
    6.7429    1.6988   -1.3773 N   0  0  0  0  0  0  0  0  0  0  0  0
    5.9249    0.6315   -1.3988 C   0  0  0  0  0  0  0  0  0  0  0  0
    6.3641   -0.5872   -1.9002 N   0  0  0  0  0  0  0  0  0  0  0  0
    3.7463    2.9096    0.0102 C   0  0  0  0  0  0  0  0  0  0  0  0
    2.5432    2.2461    0.2385 C   0  0  0  0  0  0  0  0  0  0  0  0
   -5.8438   -1.3083   -1.5828 H   0  0  0  0  0  0  0  0  0  0  0  0
   -6.4894   -0.2061   -0.3609 H   0  0  0  0  0  0  0  0  0  0  0  0
   -5.4931    0.4998   -1.6307 H   0  0  0  0  0  0  0  0  0  0  0  0
   -3.2120    1.0163    0.6054 H   0  0  0  0  0  0  0  0  0  0  0  0
   -3.9551    1.2446   -0.9841 H   0  0  0  0  0  0  0  0  0  0  0  0
   -2.5450    0.1997   -0.9327 H   0  0  0  0  0  0  0  0  0  0  0  0
   -4.0548   -0.2625    1.9904 H   0  0  0  0  0  0  0  0  0  0  0  0
   -5.2869   -1.5899    1.6106 H   0  0  0  0  0  0  0  0  0  0  0  0
   -5.6483    0.1333    1.3527 H   0  0  0  0  0  0  0  0  0  0  0  0
   -3.5509   -1.9932   -1.4854 H   0  0  0  0  0  0  0  0  0  0  0  0
   -0.4007   -2.3807   -1.3546 H   0  0  0  0  0  0  0  0  0  0  0  0
    1.6005   -1.0961   -1.6494 H   0  0  0  0  0  0  0  0  0  0  0  0
    0.5606    1.1711    1.8517 H   0  0  0  0  0  0  0  0  0  0  0  0
   -1.5077   -0.2211    2.0830 H   0  0  0  0  0  0  0  0  0  0  0  0
    3.5036   -0.8162   -0.9718 H   0  0  0  0  0  0  0  0  0  0  0  0
    6.4384    3.6733   -0.7063 H   0  0  0  0  0  0  0  0  0  0  0  0
    6.7293   -1.4479   -2.3108 H   0  0  0  0  0  0  0  0  0  0  0  0
    6.0197   -1.5356   -1.5872 H   0  0  0  0  0  0  0  0  0  0  0  0
    3.8139    3.9350    0.2801 H   0  0  0  0  0  0  0  0  0  0  0  0
    1.6841    2.7309    0.6757 H   0  0  0  0  0  0  0  0  0  0  0  0
  1  2  1  0
  2  3  1  0
  2  4  1  0
  2  5  1  0
  5  6  1  0
  6  7  2  0
  6  8  2  0
  6  9  1  0
  9 10  2  0
 10 11  1  0
 11 12  2  0
 12 13  1  0
 13 14  2  0
 12 15  1  0
 15 16  2  0
 16 17  1  0
 17 18  2  0
 18 19  1  0
 19 20  1  0
 20 21  2  0
 21 22  1  0
 18 23  1  0
 23 24  2  0
 14  9  1  0
 24 15  1  0
 21 17  1  0
  1 25  1  0
  1 26  1  0
  1 27  1  0
  3 28  1  0
  3 29  1  0
  3 30  1  0
  4 31  1  0
  4 32  1  0
  4 33  1  0
  5 34  1  0
 10 35  1  0
 11 36  1  0
 13 37  1  0
 14 38  1  0
 16 39  1  0
 19 40  1  0
 22 41  1  0
 22 42  1  0
 23 43  1  0
 24 44  1  0
M  END
$$$$
