
     RDKit          3D

 65 69  0  0  0  0  0  0  0  0999 V2000
   -1.7350   -3.5859    1.3612 O   0  0  0  0  0  0  0  0  0  0  0  0
   -2.1065   -2.3968    1.5184 C   0  0  0  0  0  0  0  0  0  0  0  0
   -3.3753   -1.9583    2.0322 C   0  0  0  0  0  0  0  0  0  0  0  0
   -4.3341   -2.6940    2.4141 O   0  0  0  0  0  0  0  0  0  0  0  0
   -3.3285   -0.5211    2.0221 N   0  0  0  0  0  0  0  0  0  0  0  0
   -4.4191    0.3121    2.4682 C   0  0  0  0  0  0  0  0  0  0  0  0
   -5.3409    0.5540    1.3264 C   0  0  0  0  0  0  0  0  0  0  0  0
   -6.3875   -0.2683    1.0364 C   0  0  0  0  0  0  0  0  0  0  0  0
   -7.2293   -0.0118   -0.0389 C   0  0  0  0  0  0  0  0  0  0  0  0
   -7.0650    1.0689   -0.8682 C   0  0  0  0  0  0  0  0  0  0  0  0
   -7.8208    1.4137   -1.9477 O   0  0  0  0  0  0  0  0  0  0  0  0
   -8.9013    0.7718   -2.5058 C   0  0  0  0  0  0  0  0  0  0  0  0
   -8.5538   -0.5649   -3.0901 C   0  0  0  0  0  0  0  0  0  0  0  0
  -10.1498   -1.3803   -3.8339 Br  0  0  0  0  0  0  0  0  0  0  0  0
   -5.9743    1.9016   -0.5422 C   0  0  0  0  0  0  0  0  0  0  0  0
   -5.1469    1.6483    0.5166 C   0  0  0  0  0  0  0  0  0  0  0  0
   -2.0805   -0.0872    1.5225 C   0  0  0  0  0  0  0  0  0  0  0  0
   -1.5358    1.1593    1.3139 C   0  0  0  0  0  0  0  0  0  0  0  0
   -0.2568    1.2502    0.8015 C   0  0  0  0  0  0  0  0  0  0  0  0
    0.4788    0.1251    0.4976 C   0  0  0  0  0  0  0  0  0  0  0  0
    2.0948    0.2599   -0.1466 S   0  0  0  0  0  6  0  0  0  0  0  0
    2.3575   -0.8080   -1.1830 O   0  0  0  0  0  0  0  0  0  0  0  0
    2.1379    1.5837   -0.8983 O   0  0  0  0  0  0  0  0  0  0  0  0
    3.2586    0.2120    1.1002 N   0  0  0  0  0  0  0  0  0  0  0  0
    3.0578    1.3246    1.9885 C   0  0  0  0  0  0  0  0  0  0  0  0
    4.0063    2.3655    1.4281 C   0  0  0  0  0  0  0  0  0  0  0  0
    5.2558    1.4925    1.2446 C   0  0  0  0  0  0  0  0  0  0  0  0
    4.6200    0.2825    0.5857 C   0  0  1  0  0  0  0  0  0  0  0  0
    5.2882   -0.9938    0.9681 C   0  0  0  0  0  0  0  0  0  0  0  0
    6.5867   -1.1877    0.5985 O   0  0  0  0  0  0  0  0  0  0  0  0
    7.2149   -1.2846   -0.6129 C   0  0  0  0  0  0  0  0  0  0  0  0
    8.6098   -1.4688   -0.5987 C   0  0  0  0  0  0  0  0  0  0  0  0
    9.3487   -1.5815   -1.7407 C   0  0  0  0  0  0  0  0  0  0  0  0
    8.6709   -1.5075   -2.9385 C   0  0  0  0  0  0  0  0  0  0  0  0
    7.3045   -1.3278   -2.9934 C   0  0  0  0  0  0  0  0  0  0  0  0
    6.6006   -1.2198   -1.8271 C   0  0  0  0  0  0  0  0  0  0  0  0
   -0.0510   -1.1200    0.7005 C   0  0  0  0  0  0  0  0  0  0  0  0
   -1.3173   -1.2143    1.2078 C   0  0  0  0  0  0  0  0  0  0  0  0
   -4.0623    1.3038    2.8173 H   0  0  0  0  0  0  0  0  0  0  0  0
   -5.0119   -0.1624    3.2707 H   0  0  0  0  0  0  0  0  0  0  0  0
   -6.5850   -1.1370    1.6372 H   0  0  0  0  0  0  0  0  0  0  0  0
   -8.0690   -0.6745   -0.2231 H   0  0  0  0  0  0  0  0  0  0  0  0
   -9.3004    1.4403   -3.3338 H   0  0  0  0  0  0  0  0  0  0  0  0
   -9.7199    0.6618   -1.7346 H   0  0  0  0  0  0  0  0  0  0  0  0
   -8.1365   -1.2429   -2.3693 H   0  0  0  0  0  0  0  0  0  0  0  0
   -7.8192   -0.3643   -3.9260 H   0  0  0  0  0  0  0  0  0  0  0  0
   -5.7923    2.7651   -1.1528 H   0  0  0  0  0  0  0  0  0  0  0  0
   -4.3100    2.3313    0.7300 H   0  0  0  0  0  0  0  0  0  0  0  0
   -2.0904    2.0545    1.5461 H   0  0  0  0  0  0  0  0  0  0  0  0
    0.1262    2.2598    0.6541 H   0  0  0  0  0  0  0  0  0  0  0  0
    3.4295    1.0998    3.0132 H   0  0  0  0  0  0  0  0  0  0  0  0
    2.0291    1.7186    1.9936 H   0  0  0  0  0  0  0  0  0  0  0  0
    4.2033    3.1923    2.1371 H   0  0  0  0  0  0  0  0  0  0  0  0
    3.7081    2.7036    0.4190 H   0  0  0  0  0  0  0  0  0  0  0  0
    5.6432    1.2720    2.2560 H   0  0  0  0  0  0  0  0  0  0  0  0
    5.9354    2.0450    0.5990 H   0  0  0  0  0  0  0  0  0  0  0  0
    4.5596    0.4130   -0.4848 H   0  0  0  0  0  0  0  0  0  0  0  0
    5.1217   -1.1969    2.0595 H   0  0  0  0  0  0  0  0  0  0  0  0
    4.6786   -1.8210    0.4763 H   0  0  0  0  0  0  0  0  0  0  0  0
    9.1234   -1.5238    0.3691 H   0  0  0  0  0  0  0  0  0  0  0  0
   10.4436   -1.7260   -1.7176 H   0  0  0  0  0  0  0  0  0  0  0  0
    9.2319   -1.5935   -3.8759 H   0  0  0  0  0  0  0  0  0  0  0  0
    6.8016   -1.2745   -3.9786 H   0  0  0  0  0  0  0  0  0  0  0  0
    5.5412   -1.0952   -1.8938 H   0  0  0  0  0  0  0  0  0  0  0  0
    0.5382   -1.9921    0.4574 H   0  0  0  0  0  0  0  0  0  0  0  0
  1  2  2  0
  2  3  1  0
  3  4  2  0
  3  5  1  0
  5  6  1  0
  6  7  1  0
  7  8  2  0
  8  9  1  0
  9 10  2  0
 10 11  1  0
 11 12  1  0
 12 13  1  0
 13 14  1  0
 10 15  1  0
 15 16  2  0
  5 17  1  0
 17 18  2  0
 18 19  1  0
 19 20  2  0
 20 21  1  0
 21 22  2  0
 21 23  2  0
 21 24  1  0
 24 25  1  0
 25 26  1  0
 26 27  1  0
 27 28  1  0
 28 29  1  0
 29 30  1  0
 30 31  1  0
 31 32  2  0
 32 33  1  0
 33 34  2  0
 34 35  1  0
 35 36  2  0
 20 37  1  0
 37 38  2  0
 38  2  1  0
 16  7  1  0
 38 17  1  0
 28 24  1  0
 36 31  1  0
  6 39  1  0
  6 40  1  0
  8 41  1  0
  9 42  1  0
 12 43  1  0
 12 44  1  0
 13 45  1  0
 13 46  1  0
 15 47  1  0
 16 48  1  0
 18 49  1  0
 19 50  1  0
 25 51  1  0
 25 52  1  0
 26 53  1  0
 26 54  1  0
 27 55  1  0
 27 56  1  0
 28 57  1  6
 29 58  1  0
 29 59  1  0
 32 60  1  0
 33 61  1  0
 34 62  1  0
 35 63  1  0
 36 64  1  0
 37 65  1  0
M  END
$$$$
