@<TRIPOS>MOLECULE
*****
 65 69 0 0 0
SMALL
GASTEIGER

@<TRIPOS>ATOM
      1 O          -1.7350   -3.5859    1.3612 O.2     1  UNL1       -0.2817
      2 C          -2.1065   -2.3968    1.5184 C.2     1  UNL1        0.2496
      3 C          -3.3753   -1.9583    2.0322 C.2     1  UNL1        0.2915
      4 O          -4.3341   -2.6940    2.4141 O.2     1  UNL1       -0.2661
      5 N          -3.3285   -0.5211    2.0221 N.am    1  UNL1       -0.2598
      6 C          -4.4191    0.3121    2.4682 C.3     1  UNL1        0.0452
      7 C          -5.3409    0.5540    1.3264 C.ar    1  UNL1       -0.0295
      8 C          -6.3875   -0.2683    1.0364 C.ar    1  UNL1       -0.0536
      9 C          -7.2293   -0.0118   -0.0389 C.ar    1  UNL1       -0.0196
     10 C          -7.0650    1.0689   -0.8682 C.ar    1  UNL1        0.1206
     11 O          -7.8208    1.4137   -1.9477 O.3     1  UNL1       -0.4911
     12 C          -8.9013    0.7718   -2.5058 C.3     1  UNL1        0.0991
     13 C          -8.5538   -0.5649   -3.0901 C.3     1  UNL1        0.0375
     14 BR        -10.1498   -1.3803   -3.8339 Br      1  UNL1       -0.0883
     15 C          -5.9743    1.9016   -0.5422 C.ar    1  UNL1       -0.0196
     16 C          -5.1469    1.6483    0.5166 C.ar    1  UNL1       -0.0536
     17 C          -2.0805   -0.0872    1.5225 C.ar    1  UNL1        0.0481
     18 C          -1.5358    1.1593    1.3139 C.ar    1  UNL1       -0.0377
     19 C          -0.2568    1.2502    0.8015 C.ar    1  UNL1       -0.0335
     20 C           0.4788    0.1251    0.4976 C.ar    1  UNL1        0.1063
     21 S           2.0948    0.2599   -0.1466 S.O2    1  UNL1        0.0612
     22 O           2.3575   -0.8080   -1.1830 O.2     1  UNL1       -0.1528
     23 O           2.1379    1.5837   -0.8983 O.2     1  UNL1       -0.1528
     24 N           3.2586    0.2120    1.1002 N.3     1  UNL1       -0.1703
     25 C           3.0578    1.3246    1.9885 C.3     1  UNL1        0.0210
     26 C           4.0063    2.3655    1.4281 C.3     1  UNL1       -0.0370
     27 C           5.2558    1.4925    1.2446 C.3     1  UNL1       -0.0313
     28 C           4.6200    0.2825    0.5857 C.3     1  UNL1        0.0659
     29 C           5.2882   -0.9938    0.9681 C.3     1  UNL1        0.1067
     30 O           6.5867   -1.1877    0.5985 O.3     1  UNL1       -0.4904
     31 C           7.2149   -1.2846   -0.6129 C.ar    1  UNL1        0.1206
     32 C           8.6098   -1.4688   -0.5987 C.ar    1  UNL1       -0.0199
     33 C           9.3487   -1.5815   -1.7407 C.ar    1  UNL1       -0.0583
     34 C           8.6709   -1.5075   -2.9385 C.ar    1  UNL1       -0.0615
     35 C           7.3045   -1.3278   -2.9934 C.ar    1  UNL1       -0.0583
     36 C           6.6006   -1.2198   -1.8271 C.ar    1  UNL1       -0.0199
     37 C          -0.0510   -1.1200    0.7005 C.ar    1  UNL1       -0.0226
     38 C          -1.3173   -1.2143    1.2078 C.ar    1  UNL1        0.0502
     39 H          -4.0623    1.3038    2.8173 H       1  UNL1        0.0518
     40 H          -5.0119   -0.1624    3.2707 H       1  UNL1        0.0518
     41 H          -6.5850   -1.1370    1.6372 H       1  UNL1        0.0622
     42 H          -8.0690   -0.6745   -0.2231 H       1  UNL1        0.0654
     43 H          -9.3004    1.4403   -3.3338 H       1  UNL1        0.0705
     44 H          -9.7199    0.6618   -1.7346 H       1  UNL1        0.0705
     45 H          -8.1365   -1.2429   -2.3693 H       1  UNL1        0.0415
     46 H          -7.8192   -0.3643   -3.9260 H       1  UNL1        0.0415
     47 H          -5.7923    2.7651   -1.1528 H       1  UNL1        0.0654
     48 H          -4.3100    2.3313    0.7300 H       1  UNL1        0.0622
     49 H          -2.0904    2.0545    1.5461 H       1  UNL1        0.0637
     50 H           0.1262    2.2598    0.6541 H       1  UNL1        0.0638
     51 H           3.4295    1.0998    3.0132 H       1  UNL1        0.0444
     52 H           2.0291    1.7186    1.9936 H       1  UNL1        0.0444
     53 H           4.2033    3.1923    2.1371 H       1  UNL1        0.0279
     54 H           3.7081    2.7036    0.4190 H       1  UNL1        0.0279
     55 H           5.6432    1.2720    2.2560 H       1  UNL1        0.0282
     56 H           5.9354    2.0450    0.5990 H       1  UNL1        0.0282
     57 H           4.5596    0.4130   -0.4848 H       1  UNL1        0.0513
     58 H           5.1217   -1.1969    2.0595 H       1  UNL1        0.0713
     59 H           4.6786   -1.8210    0.4763 H       1  UNL1        0.0713
     60 H           9.1234   -1.5238    0.3691 H       1  UNL1        0.0654
     61 H          10.4436   -1.7260   -1.7176 H       1  UNL1        0.0619
     62 H           9.2319   -1.5935   -3.8759 H       1  UNL1        0.0618
     63 H           6.8016   -1.2745   -3.9786 H       1  UNL1        0.0619
     64 H           5.5412   -1.0952   -1.8938 H       1  UNL1        0.0654
     65 H           0.5382   -1.9921    0.4574 H       1  UNL1        0.0645
@<TRIPOS>BOND
     1     1     2    2
     2     2     3    1
     3     3     4    2
     4     3     5   am
     5     5     6    1
     6     6     7    1
     7     7     8   ar
     8     8     9   ar
     9     9    10   ar
    10    10    11    1
    11    11    12    1
    12    12    13    1
    13    13    14    1
    14    10    15   ar
    15    15    16   ar
    16     5    17    1
    17    17    18   ar
    18    18    19   ar
    19    19    20   ar
    20    20    21    1
    21    21    22    2
    22    21    23    2
    23    21    24    1
    24    24    25    1
    25    25    26    1
    26    26    27    1
    27    27    28    1
    28    28    29    1
    29    29    30    1
    30    30    31    1
    31    31    32   ar
    32    32    33   ar
    33    33    34   ar
    34    34    35   ar
    35    35    36   ar
    36    20    37   ar
    37    37    38   ar
    38    38     2    1
    39    16     7   ar
    40    38    17   ar
    41    28    24    1
    42    36    31   ar
    43     6    39    1
    44     6    40    1
    45     8    41    1
    46     9    42    1
    47    12    43    1
    48    12    44    1
    49    13    45    1
    50    13    46    1
    51    15    47    1
    52    16    48    1
    53    18    49    1
    54    19    50    1
    55    25    51    1
    56    25    52    1
    57    26    53    1
    58    26    54    1
    59    27    55    1
    60    27    56    1
    61    28    57    1
    62    29    58    1
    63    29    59    1
    64    32    60    1
    65    33    61    1
    66    34    62    1
    67    35    63    1
    68    36    64    1
    69    37    65    1
