@<TRIPOS>MOLECULE
*****
 65 69 0 0 0
SMALL
GASTEIGER

@<TRIPOS>ATOM
      1 C          -5.3440   -0.6754    2.6017 C.3     1  UNL1       -0.0391
      2 C          -6.5577   -0.2665    1.8589 C.ar    1  UNL1       -0.0425
      3 C          -7.7868   -0.3571    2.5112 C.ar    1  UNL1       -0.0582
      4 C          -8.9323    0.0098    1.8609 C.ar    1  UNL1       -0.0612
      5 C          -8.8587    0.4631    0.5731 C.ar    1  UNL1       -0.0582
      6 C          -7.6229    0.5545   -0.0834 C.ar    1  UNL1       -0.0425
      7 C          -7.5525    1.0455   -1.4743 C.3     1  UNL1       -0.0391
      8 C          -6.4654    0.1882    0.5613 C.ar    1  UNL1       -0.0120
      9 C          -5.1634    0.2638   -0.0675 C.ar    1  UNL1       -0.0149
     10 C          -4.3738    1.4042   -0.0026 C.ar    1  UNL1       -0.0489
     11 C          -3.1343    1.4580   -0.6017 C.ar    1  UNL1       -0.0223
     12 C          -2.3087    2.6916   -0.5168 C.3     1  UNL1       -0.0376
     13 C          -2.6131    0.3861   -1.2954 C.ar    1  UNL1        0.0975
     14 N          -1.4041    0.4194   -1.8831 N.ar    1  UNL1       -0.2112
     15 C          -0.9046   -0.6325   -2.5535 C.ar    1  UNL1        0.2398
     16 N           0.3685   -0.5280   -3.1381 N.pl3   1  UNL1       -0.2824
     17 C           1.5101   -0.8613   -2.3627 C.ar    1  UNL1        0.0338
     18 C           1.3388   -1.2481   -1.0339 C.ar    1  UNL1       -0.0370
     19 C           2.4162   -1.5659   -0.2923 C.ar    1  UNL1       -0.0182
     20 C           3.7211   -1.5182   -0.8251 C.ar    1  UNL1        0.1207
     21 O           4.7394   -1.8604    0.0058 O.3     1  UNL1       -0.4907
     22 C           6.0915   -1.9234   -0.0990 C.3     1  UNL1        0.1022
     23 C           6.7830   -0.6244   -0.3432 C.3     1  UNL1        0.0331
     24 N           6.5127    0.3220    0.7232 N.3     1  UNL1       -0.2991
     25 C           7.1506    1.6096    0.4294 C.3     1  UNL1       -0.0010
     26 C           8.5516    1.4713    1.0135 C.3     1  UNL1       -0.0390
     27 C           8.5365    0.2494    1.8739 C.3     1  UNL1       -0.0390
     28 C           7.0671   -0.0701    2.0002 C.3     1  UNL1       -0.0010
     29 C           3.8945   -1.1394   -2.1319 C.ar    1  UNL1       -0.0182
     30 C           2.7848   -0.8124   -2.8928 C.ar    1  UNL1       -0.0370
     31 N          -1.6668   -1.7417   -2.6199 N.ar    1  UNL1       -0.1123
     32 N          -2.8606   -1.8011   -2.0503 N.ar    1  UNL1       -0.1444
     33 C          -3.3843   -0.7491   -1.3676 C.ar    1  UNL1        0.1125
     34 C          -4.6192   -0.8072   -0.7727 C.ar    1  UNL1       -0.0247
     35 H          -5.0465    0.0646    3.3717 H       1  UNL1        0.0278
     36 H          -5.5816   -1.6219    3.1500 H       1  UNL1        0.0278
     37 H          -4.5003   -0.8922    1.8859 H       1  UNL1        0.0278
     38 H          -7.8555   -0.7127    3.5269 H       1  UNL1        0.0620
     39 H          -9.9207   -0.0465    2.3394 H       1  UNL1        0.0618
     40 H          -9.7862    0.7523    0.0682 H       1  UNL1        0.0620
     41 H          -7.6488    0.1792   -2.1887 H       1  UNL1        0.0278
     42 H          -8.4489    1.6841   -1.6780 H       1  UNL1        0.0278
     43 H          -6.6754    1.6697   -1.6740 H       1  UNL1        0.0278
     44 H          -4.7867    2.2451    0.5431 H       1  UNL1        0.0627
     45 H          -1.2601    2.4660   -0.1674 H       1  UNL1        0.0278
     46 H          -2.7500    3.3960    0.2028 H       1  UNL1        0.0278
     47 H          -2.2137    3.0944   -1.5375 H       1  UNL1        0.0278
     48 H           0.5167   -0.2174   -4.1135 H       1  UNL1        0.1551
     49 H           0.3522   -1.2944   -0.5973 H       1  UNL1        0.0637
     50 H           2.3088   -1.8700    0.7453 H       1  UNL1        0.0655
     51 H           6.3483   -2.6543   -0.9355 H       1  UNL1        0.0709
     52 H           6.5041   -2.4038    0.8262 H       1  UNL1        0.0709
     53 H           7.9003   -0.7780   -0.3117 H       1  UNL1        0.0460
     54 H           6.4942   -0.1923   -1.3021 H       1  UNL1        0.0460
     55 H           6.5842    2.4345    0.8818 H       1  UNL1        0.0427
     56 H           7.2097    1.7038   -0.6594 H       1  UNL1        0.0427
     57 H           8.8058    2.3552    1.6581 H       1  UNL1        0.0278
     58 H           9.2911    1.3571    0.1834 H       1  UNL1        0.0278
     59 H           9.0030    0.4213    2.8656 H       1  UNL1        0.0278
     60 H           9.0758   -0.5647    1.3442 H       1  UNL1        0.0278
     61 H           6.9016   -1.1149    2.2547 H       1  UNL1        0.0427
     62 H           6.6396    0.5269    2.8358 H       1  UNL1        0.0427
     63 H           4.8827   -1.1097   -2.5792 H       1  UNL1        0.0655
     64 H           2.9409   -0.5146   -3.9234 H       1  UNL1        0.0637
     65 H          -5.1976   -1.7171   -0.8508 H       1  UNL1        0.0646
@<TRIPOS>BOND
     1     1     2    1
     2     2     3   ar
     3     3     4   ar
     4     4     5   ar
     5     5     6   ar
     6     6     7    1
     7     6     8   ar
     8     8     9    1
     9     9    10   ar
    10    10    11   ar
    11    11    12    1
    12    11    13   ar
    13    13    14   ar
    14    14    15   ar
    15    15    16    1
    16    16    17    1
    17    17    18   ar
    18    18    19   ar
    19    19    20   ar
    20    20    21    1
    21    21    22    1
    22    22    23    1
    23    23    24    1
    24    24    25    1
    25    25    26    1
    26    26    27    1
    27    27    28    1
    28    20    29   ar
    29    29    30   ar
    30    15    31   ar
    31    31    32   ar
    32    32    33   ar
    33    33    34   ar
    34     8     2   ar
    35    34     9   ar
    36    33    13   ar
    37    30    17   ar
    38    28    24    1
    39     1    35    1
    40     1    36    1
    41     1    37    1
    42     3    38    1
    43     4    39    1
    44     5    40    1
    45     7    41    1
    46     7    42    1
    47     7    43    1
    48    10    44    1
    49    12    45    1
    50    12    46    1
    51    12    47    1
    52    16    48    1
    53    18    49    1
    54    19    50    1
    55    22    51    1
    56    22    52    1
    57    23    53    1
    58    23    54    1
    59    25    55    1
    60    25    56    1
    61    26    57    1
    62    26    58    1
    63    27    59    1
    64    27    60    1
    65    28    61    1
    66    28    62    1
    67    29    63    1
    68    30    64    1
    69    34    65    1
