
     RDKit          3D

 26 26  0  0  0  0  0  0  0  0999 V2000
   -3.2980   -0.8614    0.5793 N   0  0  0  0  0  0  0  0  0  0  0  0
   -2.0044   -0.2059    0.5217 C   0  0  1  0  0  0  0  0  0  0  0  0
   -0.9174   -1.2007    0.2282 C   0  0  2  0  0  0  0  0  0  0  0  0
   -0.9326   -2.1401    1.2602 O   0  0  0  0  0  0  0  0  0  0  0  0
    0.3933   -0.5917   -0.0105 C   0  0  0  0  0  0  0  0  0  0  0  0
    1.1443   -0.1639    1.0708 C   0  0  0  0  0  0  0  0  0  0  0  0
    2.3810    0.4046    0.7518 C   0  0  0  0  0  0  0  0  0  0  0  0
    3.1958    0.8601    1.7917 O   0  0  0  0  0  0  0  0  0  0  0  0
    2.8541    0.5480   -0.5125 C   0  0  0  0  0  0  0  0  0  0  0  0
    4.0937    1.1220   -0.7666 O   0  0  0  0  0  0  0  0  0  0  0  0
    2.0977    0.1195   -1.5627 C   0  0  0  0  0  0  0  0  0  0  0  0
    0.8638   -0.4512   -1.3004 C   0  0  0  0  0  0  0  0  0  0  0  0
   -2.1085    0.9124   -0.4144 C   0  0  0  0  0  0  0  0  0  0  0  0
   -3.2354    1.3164   -1.1472 O   0  0  0  0  0  0  0  0  0  0  0  0
   -1.1665    1.6881   -0.6963 O   0  0  0  0  0  0  0  0  0  0  0  0
   -3.5695   -1.2169   -0.3752 H   0  0  0  0  0  0  0  0  0  0  0  0
   -3.2470   -1.7440    1.1721 H   0  0  0  0  0  0  0  0  0  0  0  0
   -1.8628    0.2473    1.5462 H   0  0  0  0  0  0  0  0  0  0  0  0
   -1.2686   -1.7717   -0.6720 H   0  0  0  0  0  0  0  0  0  0  0  0
   -0.9049   -1.6240    2.1193 H   0  0  0  0  0  0  0  0  0  0  0  0
    0.8147   -0.2542    2.0989 H   0  0  0  0  0  0  0  0  0  0  0  0
    3.1878    1.8646    1.9278 H   0  0  0  0  0  0  0  0  0  0  0  0
    4.3561    1.4543   -1.6836 H   0  0  0  0  0  0  0  0  0  0  0  0
    2.4233    0.2077   -2.5961 H   0  0  0  0  0  0  0  0  0  0  0  0
    0.2691   -0.7884   -2.1318 H   0  0  0  0  0  0  0  0  0  0  0  0
   -3.5591    2.2694   -1.1985 H   0  0  0  0  0  0  0  0  0  0  0  0
  1  2  1  0
  2  3  1  0
  3  4  1  0
  3  5  1  0
  5  6  2  0
  6  7  1  0
  7  8  1  0
  7  9  2  0
  9 10  1  0
  9 11  1  0
 11 12  2  0
  2 13  1  0
 13 14  1  0
 13 15  2  0
 12  5  1  0
  1 16  1  0
  1 17  1  0
  2 18  1  1
  3 19  1  6
  4 20  1  0
  6 21  1  0
  8 22  1  0
 10 23  1  0
 11 24  1  0
 12 25  1  0
 14 26  1  0
M  END
$$$$
