@<TRIPOS>MOLECULE
*****
 66 67 0 0 0
SMALL
GASTEIGER

@<TRIPOS>ATOM
      1 C           3.8099    3.9962    0.8355 C.3     1  UNL1       -0.0653
      2 C           2.7586    2.9784    1.2771 C.3     1  UNL1       -0.0558
      3 C           1.4088    3.4048    0.7926 C.3     1  UNL1       -0.0512
      4 C           0.2597    2.5344    1.0700 C.3     1  UNL1       -0.0270
      5 C           0.1324    1.2617    0.3628 C.3     1  UNL1        0.0937
      6 N          -1.0821    0.5587    0.8863 N.am    1  UNL1       -0.2710
      7 C          -2.2246    0.4211    0.0974 C.2     1  UNL1        0.4011
      8 O          -2.2565    0.8818   -1.0597 O.2     1  UNL1       -0.2265
      9 O          -3.3812   -0.2219    0.5305 O.3     1  UNL1       -0.4471
     10 C          -4.5140   -0.3324   -0.3127 C.3     1  UNL1        0.1052
     11 C          -4.7591   -1.7939   -0.5580 C.3     1  UNL1       -0.0130
     12 C          -6.1591   -2.0775   -1.0320 C.3     1  UNL1       -0.0403
     13 C          -6.2948   -3.5781   -1.1835 C.3     1  UNL1       -0.0623
     14 C          -7.2126   -1.5640   -0.1009 C.3     1  UNL1       -0.0476
     15 C          -6.6686   -0.6293    0.9511 C.3     1  UNL1       -0.0403
     16 C          -6.1246   -1.3771    2.1479 C.3     1  UNL1       -0.0623
     17 C          -5.6601    0.3411    0.3929 C.3     1  UNL1       -0.0130
     18 C           1.2189    0.3188    0.2160 C.2     1  UNL1        0.2372
     19 O           1.2120   -0.7307    0.9523 O.2     1  UNL1       -0.2852
     20 C           2.3423    0.4231   -0.7087 C.2     1  UNL1        0.2819
     21 O           2.5024    1.3698   -1.5205 O.2     1  UNL1       -0.2670
     22 N           3.3722   -0.5733   -0.7590 N.am    1  UNL1       -0.3024
     23 C           4.5006   -0.5030   -1.6613 C.3     1  UNL1        0.0459
     24 C           4.3962   -1.7016   -2.5925 C.3     1  UNL1       -0.0424
     25 C           5.7926   -0.5197   -0.9398 C.ar    1  UNL1       -0.0275
     26 C           6.0434   -1.4003    0.0901 C.ar    1  UNL1       -0.0568
     27 C           7.2618   -1.4038    0.7600 C.ar    1  UNL1       -0.0614
     28 C           8.2498   -0.5220    0.4064 C.ar    1  UNL1       -0.0617
     29 C           8.0202    0.3657   -0.6191 C.ar    1  UNL1       -0.0614
     30 C           6.7913    0.3568   -1.2822 C.ar    1  UNL1       -0.0568
     31 H           4.8295    3.6332    1.0723 H       1  UNL1        0.0230
     32 H           3.6542    4.1259   -0.2667 H       1  UNL1        0.0230
     33 H           3.5847    4.9422    1.3613 H       1  UNL1        0.0230
     34 H           2.7133    3.1547    2.4224 H       1  UNL1        0.0263
     35 H           3.0780    1.9736    1.1822 H       1  UNL1        0.0263
     36 H           1.2018    4.4832    1.1513 H       1  UNL1        0.0266
     37 H           1.5493    3.6042   -0.3220 H       1  UNL1        0.0266
     38 H           0.2377    2.4030    2.2051 H       1  UNL1        0.0287
     39 H          -0.6910    3.1290    0.8113 H       1  UNL1        0.0287
     40 H          -0.1885    1.5319   -0.7044 H       1  UNL1        0.0583
     41 H          -1.0385    0.1797    1.8556 H       1  UNL1        0.1527
     42 H          -4.2798    0.1560   -1.2745 H       1  UNL1        0.0734
     43 H          -4.0730   -2.0962   -1.4002 H       1  UNL1        0.0303
     44 H          -4.4711   -2.4413    0.2950 H       1  UNL1        0.0303
     45 H          -6.2878   -1.6334   -2.0572 H       1  UNL1        0.0299
     46 H          -7.1889   -3.9296   -0.6199 H       1  UNL1        0.0232
     47 H          -6.4524   -3.8740   -2.2408 H       1  UNL1        0.0232
     48 H          -5.3830   -4.1121   -0.8487 H       1  UNL1        0.0232
     49 H          -8.0070   -1.0282   -0.6740 H       1  UNL1        0.0270
     50 H          -7.7291   -2.3910    0.4313 H       1  UNL1        0.0270
     51 H          -7.5308   -0.0238    1.3137 H       1  UNL1        0.0299
     52 H          -6.1439   -2.4765    2.0147 H       1  UNL1        0.0232
     53 H          -6.7407   -1.1888    3.0748 H       1  UNL1        0.0232
     54 H          -5.1135   -0.9770    2.3525 H       1  UNL1        0.0232
     55 H          -5.3064    0.9563    1.2603 H       1  UNL1        0.0303
     56 H          -6.1771    1.0264   -0.3052 H       1  UNL1        0.0303
     57 H           3.2943   -1.3835   -0.1099 H       1  UNL1        0.1497
     58 H           4.4648    0.3985   -2.3066 H       1  UNL1        0.0545
     59 H           3.4459   -1.5563   -3.1738 H       1  UNL1        0.0251
     60 H           4.2923   -2.5915   -1.9729 H       1  UNL1        0.0251
     61 H           5.2621   -1.7301   -3.2838 H       1  UNL1        0.0251
     62 H           5.3125   -2.1238    0.4236 H       1  UNL1        0.0621
     63 H           7.4716   -2.0908    1.5712 H       1  UNL1        0.0618
     64 H           9.2182   -0.4812    0.8942 H       1  UNL1        0.0618
     65 H           8.7826    1.0703   -0.9158 H       1  UNL1        0.0618
     66 H           6.6736    1.0772   -2.0768 H       1  UNL1        0.0621
@<TRIPOS>BOND
     1     1     2    1
     2     2     3    1
     3     3     4    1
     4     4     5    1
     5     5     6    1
     6     6     7   am
     7     7     8    2
     8     7     9    1
     9     9    10    1
    10    10    11    1
    11    11    12    1
    12    12    13    1
    13    12    14    1
    14    14    15    1
    15    15    16    1
    16    15    17    1
    17     5    18    1
    18    18    19    2
    19    18    20    1
    20    20    21    2
    21    20    22   am
    22    22    23    1
    23    23    24    1
    24    23    25    1
    25    25    26   ar
    26    26    27   ar
    27    27    28   ar
    28    28    29   ar
    29    29    30   ar
    30    17    10    1
    31    30    25   ar
    32     1    31    1
    33     1    32    1
    34     1    33    1
    35     2    34    1
    36     2    35    1
    37     3    36    1
    38     3    37    1
    39     4    38    1
    40     4    39    1
    41     5    40    1
    42     6    41    1
    43    10    42    1
    44    11    43    1
    45    11    44    1
    46    12    45    1
    47    13    46    1
    48    13    47    1
    49    13    48    1
    50    14    49    1
    51    14    50    1
    52    15    51    1
    53    16    52    1
    54    16    53    1
    55    16    54    1
    56    17    55    1
    57    17    56    1
    58    22    57    1
    59    23    58    1
    60    24    59    1
    61    24    60    1
    62    24    61    1
    63    26    62    1
    64    27    63    1
    65    28    64    1
    66    29    65    1
    67    30    66    1
