@<TRIPOS>MOLECULE
*****
 55 58 0 0 0
SMALL
GASTEIGER

@<TRIPOS>ATOM
      1 C           1.2433   -4.9431   -0.3831 C.3     1  UNL1        0.0790
      2 O           1.1536   -3.5158   -0.3877 O.3     1  UNL1       -0.4914
      3 C          -0.0807   -2.8908   -0.2818 C.ar    1  UNL1        0.1636
      4 C          -0.1494   -1.5136   -0.2878 C.ar    1  UNL1        0.1627
      5 O           1.0458   -0.8179   -0.4018 O.3     1  UNL1       -0.4882
      6 C           1.0048    0.5721   -0.4094 C.3     1  UNL1        0.0909
      7 C           2.3581    1.2165   -0.5386 C.3     1  UNL1       -0.0058
      8 C           3.3108    0.8739    0.5610 C.3     1  UNL1        0.0021
      9 N           4.5630    1.5707    0.2874 N.3     1  UNL1       -0.2979
     10 C           5.2465    1.0677   -0.8689 C.3     1  UNL1        0.0224
     11 C           6.6527    0.6199   -0.5867 C.3     1  UNL1        0.0604
     12 O           7.4098    1.5146    0.1283 O.3     1  UNL1       -0.3772
     13 C           6.7026    2.2930    1.0258 C.3     1  UNL1        0.0604
     14 C           5.3891    1.6735    1.4610 C.3     1  UNL1        0.0224
     15 C          -1.3734   -0.9082   -0.1826 C.ar    1  UNL1       -0.0038
     16 C          -2.5769   -1.5643   -0.0680 C.ar    1  UNL1        0.0441
     17 C          -3.8113   -0.9641    0.0381 C.ar    1  UNL1        0.1340
     18 N          -3.8703    0.4513    0.0373 N.pl3   1  UNL1       -0.2988
     19 C          -4.9923    1.3156    0.1096 C.ar    1  UNL1        0.0339
     20 C          -4.9535    2.7022    0.2361 C.ar    1  UNL1       -0.0194
     21 C          -6.0522    3.4970    0.2979 C.ar    1  UNL1        0.0778
     22 CL         -5.7974    5.2167    0.4582 Cl      1  UNL1       -0.0805
     23 C          -7.3175    2.9564    0.2361 C.ar    1  UNL1        0.1417
     24 F          -8.3432    3.8145    0.3048 F       1  UNL1       -0.2040
     25 C          -7.4075    1.5934    0.1109 C.ar    1  UNL1       -0.0232
     26 C          -6.2717    0.8160    0.0513 C.ar    1  UNL1       -0.0377
     27 N          -4.8760   -1.7641    0.1409 N.ar    1  UNL1       -0.2200
     28 C          -4.7874   -3.0952    0.1443 C.ar    1  UNL1        0.1187
     29 N          -3.5817   -3.6754    0.0406 N.ar    1  UNL1       -0.2352
     30 C          -2.4614   -2.9341   -0.0665 C.ar    1  UNL1        0.0797
     31 C          -1.2590   -3.5969   -0.1693 C.ar    1  UNL1        0.0098
     32 H           2.2905   -5.2692   -0.3907 H       1  UNL1        0.0660
     33 H           0.7372   -5.3725   -1.2649 H       1  UNL1        0.0660
     34 H           0.7301   -5.2890    0.5518 H       1  UNL1        0.0660
     35 H           0.4885    0.9119    0.4918 H       1  UNL1        0.0697
     36 H           0.4231    0.8927   -1.2993 H       1  UNL1        0.0697
     37 H           2.1985    2.3145   -0.5032 H       1  UNL1        0.0310
     38 H           2.7999    0.9808   -1.5249 H       1  UNL1        0.0310
     39 H           3.4667   -0.2124    0.7024 H       1  UNL1        0.0428
     40 H           2.9293    1.2858    1.5175 H       1  UNL1        0.0428
     41 H           4.7169    0.2333   -1.3560 H       1  UNL1        0.0449
     42 H           5.2812    1.8985   -1.6164 H       1  UNL1        0.0449
     43 H           6.6749   -0.3943   -0.1464 H       1  UNL1        0.0572
     44 H           7.1457    0.5356   -1.5994 H       1  UNL1        0.0572
     45 H           6.4573    3.2468    0.5250 H       1  UNL1        0.0572
     46 H           7.3076    2.4499    1.9529 H       1  UNL1        0.0572
     47 H           4.9185    2.4364    2.1356 H       1  UNL1        0.0449
     48 H           5.5172    0.7422    2.0178 H       1  UNL1        0.0449
     49 H          -1.3502    0.1599   -0.1952 H       1  UNL1        0.0663
     50 H          -3.0339    1.0275   -0.0214 H       1  UNL1        0.1536
     51 H          -3.9495    3.1506    0.2875 H       1  UNL1        0.0652
     52 H          -8.4258    1.2279    0.0669 H       1  UNL1        0.0647
     53 H          -6.5382   -0.2098   -0.0478 H       1  UNL1        0.0637
     54 H          -5.7156   -3.6487    0.2326 H       1  UNL1        0.1048
     55 H          -1.1870   -4.6799   -0.1657 H       1  UNL1        0.0677
@<TRIPOS>BOND
     1     1     2    1
     2     2     3    1
     3     3     4   ar
     4     4     5    1
     5     5     6    1
     6     6     7    1
     7     7     8    1
     8     8     9    1
     9     9    10    1
    10    10    11    1
    11    11    12    1
    12    12    13    1
    13    13    14    1
    14     4    15   ar
    15    15    16   ar
    16    16    17   ar
    17    17    18    1
    18    18    19    1
    19    19    20   ar
    20    20    21   ar
    21    21    22    1
    22    21    23   ar
    23    23    24    1
    24    23    25   ar
    25    25    26   ar
    26    17    27   ar
    27    27    28   ar
    28    28    29   ar
    29    29    30   ar
    30    30    31   ar
    31    31     3   ar
    32    14     9    1
    33    30    16   ar
    34    26    19   ar
    35     1    32    1
    36     1    33    1
    37     1    34    1
    38     6    35    1
    39     6    36    1
    40     7    37    1
    41     7    38    1
    42     8    39    1
    43     8    40    1
    44    10    41    1
    45    10    42    1
    46    11    43    1
    47    11    44    1
    48    13    45    1
    49    13    46    1
    50    14    47    1
    51    14    48    1
    52    15    49    1
    53    18    50    1
    54    20    51    1
    55    25    52    1
    56    26    53    1
    57    28    54    1
    58    31    55    1
