@<TRIPOS>MOLECULE
*****
 30 32 0 0 0
SMALL
GASTEIGER

@<TRIPOS>ATOM
      1 O           6.0124   -0.3839   -0.9939 O.3     1  UNL1       -0.5068
      2 C           4.6193   -0.3558   -0.8983 C.ar    1  UNL1        0.1169
      3 C           3.9897    0.7844   -0.3965 C.ar    1  UNL1       -0.0196
      4 C           2.6118    0.7353   -0.3332 C.ar    1  UNL1       -0.0504
      5 C           1.8167   -0.3246   -0.7163 C.ar    1  UNL1       -0.0110
      6 C           2.4931   -1.4306   -1.2071 C.ar    1  UNL1       -0.0504
      7 C           3.8775   -1.4691   -1.3064 C.ar    1  UNL1       -0.0196
      8 C           0.3637   -0.2700   -0.6063 C.ar    1  UNL1        0.0644
      9 C          -0.4289   -0.7075   -1.6489 C.ar    1  UNL1        0.1038
     10 O          -1.7442   -0.7108   -1.6735 O.2     1  UNL1       -0.4618
     11 C          -2.3788   -0.2594   -0.6166 C.ar    1  UNL1        0.1454
     12 C          -1.7001    0.2091    0.4978 C.ar    1  UNL1        0.1060
     13 C          -2.3692    0.6876    1.6182 C.ar    1  UNL1        0.1347
     14 O          -1.6831    1.1543    2.7283 O.3     1  UNL1       -0.5058
     15 C          -3.7436    0.6640    1.5448 C.ar    1  UNL1        0.0223
     16 C          -4.4834    0.2132    0.4714 C.ar    1  UNL1        0.1239
     17 O          -5.8767    0.2454    0.5296 O.3     1  UNL1       -0.5065
     18 C          -3.7574   -0.2477   -0.6068 C.ar    1  UNL1        0.0231
     19 C          -0.3103    0.2023    0.4996 C.ar    1  UNL1        0.2037
     20 O           0.3490    0.6121    1.4751 O.2     1  UNL1       -0.2863
     21 H           6.5121    0.1142   -0.2671 H       1  UNL1        0.2921
     22 H           4.5284    1.6500   -0.0769 H       1  UNL1        0.0654
     23 H           2.1131    1.6166    0.0554 H       1  UNL1        0.0625
     24 H           1.9193   -2.3082   -1.5294 H       1  UNL1        0.0625
     25 H           4.3912   -2.3432   -1.6929 H       1  UNL1        0.0654
     26 H           0.0808   -1.0831   -2.5284 H       1  UNL1        0.1037
     27 H          -2.2408    1.4608    3.5154 H       1  UNL1        0.2922
     28 H          -4.3055    1.0307    2.4029 H       1  UNL1        0.0691
     29 H          -6.3486    1.1268    0.5208 H       1  UNL1        0.2921
     30 H          -4.3076   -0.6128   -1.4753 H       1  UNL1        0.0691
@<TRIPOS>BOND
     1     1     2    1
     2     2     3   ar
     3     3     4   ar
     4     4     5   ar
     5     5     6   ar
     6     6     7   ar
     7     5     8    1
     8     8     9   ar
     9     9    10   ar
    10    10    11   ar
    11    11    12   ar
    12    12    13   ar
    13    13    14    1
    14    13    15   ar
    15    15    16   ar
    16    16    17    1
    17    16    18   ar
    18    12    19   ar
    19    19    20    2
    20     7     2   ar
    21    19     8   ar
    22    18    11   ar
    23     1    21    1
    24     3    22    1
    25     4    23    1
    26     6    24    1
    27     7    25    1
    28     9    26    1
    29    14    27    1
    30    15    28    1
    31    17    29    1
    32    18    30    1
