@<TRIPOS>MOLECULE
*****
 67 70 0 0 0
SMALL
GASTEIGER

@<TRIPOS>ATOM
      1 C          -4.1065    2.5670   -3.7796 C.3     1  UNL1        0.0332
      2 C          -3.2185    2.2566   -2.6444 C.2     1  UNL1        0.3042
      3 O          -2.5521    3.1660   -2.0892 O.2     1  UNL1       -0.2512
      4 O          -3.0637    0.9806   -2.1288 O.3     1  UNL1       -0.4611
      5 C          -2.2207    0.7385   -1.0647 C.3     1  UNL1        0.1094
      6 C          -1.0530   -0.1995   -1.4410 C.3     1  UNL1       -0.0114
      7 C          -0.0796   -0.1045   -0.2988 C.3     1  UNL1       -0.0257
      8 C           1.3313   -0.4505   -0.6718 C.3     1  UNL1       -0.0251
      9 C           1.4491   -1.7134   -1.4087 C.3     1  UNL1       -0.0590
     10 C           1.8567    0.6591   -1.6019 C.3     1  UNL1       -0.0447
     11 C           3.2785    0.4649   -1.9879 C.3     1  UNL1       -0.0258
     12 C           4.1710   -0.1489   -0.9637 C.3     1  UNL1        0.0606
     13 O           4.7202   -1.3799   -1.4056 O.3     1  UNL1       -0.3912
     14 C           3.6251   -0.2887    0.3982 C.3     1  UNL1       -0.0056
     15 C           4.2611    0.7934    1.2960 C.3     1  UNL1       -0.0572
     16 C           4.1581   -1.5928    1.0165 C.3     1  UNL1       -0.0572
     17 C           2.1553   -0.2702    0.5669 C.3     1  UNL1       -0.0278
     18 C           1.6407   -1.1410    1.6865 C.3     1  UNL1       -0.0486
     19 C           0.3086   -0.5085    2.1215 C.3     1  UNL1       -0.0462
     20 C          -0.6283   -0.7405    0.9268 C.3     1  UNL1       -0.0161
     21 C          -0.8894   -2.1905    0.8888 C.3     1  UNL1       -0.0584
     22 C          -1.9018   -0.0119    1.2613 C.3     1  UNL1        0.0404
     23 C          -1.6417    1.2885    1.9373 C.3     1  UNL1       -0.0519
     24 C          -2.7884   -0.7812    2.1933 C.2     1  UNL1        0.1426
     25 O          -2.5503   -1.7414    2.8622 O.2     1  UNL1       -0.2967
     26 C          -4.0913   -0.0154    2.0690 C.3     1  UNL1        0.0328
     27 C          -4.0932    0.5454    0.6464 C.3     1  UNL1        0.0690
     28 O          -4.3498    1.8834    0.5890 O.3     1  UNL1       -0.3909
     29 C          -2.8434    0.0572    0.0890 C.3     1  UNL1        0.0351
     30 H          -3.7967    3.4433   -4.3554 H       1  UNL1        0.0342
     31 H          -4.2084    1.6842   -4.4637 H       1  UNL1        0.0342
     32 H          -5.1389    2.7525   -3.3990 H       1  UNL1        0.0342
     33 H          -1.7410    1.6854   -0.7407 H       1  UNL1        0.0738
     34 H          -0.6505    0.0509   -2.4174 H       1  UNL1        0.0304
     35 H          -1.4613   -1.2528   -1.4038 H       1  UNL1        0.0304
     36 H          -0.0197    1.0062   -0.0729 H       1  UNL1        0.0313
     37 H           1.8197   -2.5865   -0.8593 H       1  UNL1        0.0235
     38 H           0.4593   -1.9098   -1.9255 H       1  UNL1        0.0235
     39 H           2.1396   -1.6336   -2.3049 H       1  UNL1        0.0235
     40 H           1.2510    0.7755   -2.4947 H       1  UNL1        0.0271
     41 H           1.7673    1.5919   -1.0061 H       1  UNL1        0.0271
     42 H           3.3932   -0.1534   -2.9283 H       1  UNL1        0.0290
     43 H           3.6494    1.4826   -2.3205 H       1  UNL1        0.0290
     44 H           5.0995    0.5026   -0.9217 H       1  UNL1        0.0599
     45 H           4.2805   -2.1584   -1.0377 H       1  UNL1        0.2098
     46 H           3.5949    1.6702    1.2229 H       1  UNL1        0.0236
     47 H           4.3273    0.4303    2.3390 H       1  UNL1        0.0236
     48 H           5.2425    1.0806    0.8757 H       1  UNL1        0.0236
     49 H           5.2330   -1.7537    0.7123 H       1  UNL1        0.0236
     50 H           3.5137   -2.4471    0.8292 H       1  UNL1        0.0236
     51 H           4.2317   -1.4811    2.1395 H       1  UNL1        0.0236
     52 H           1.8976    0.7946    0.8795 H       1  UNL1        0.0312
     53 H           1.3722   -2.1601    1.3227 H       1  UNL1        0.0268
     54 H           2.2718   -1.1424    2.5700 H       1  UNL1        0.0268
     55 H          -0.1152   -1.0434    2.9669 H       1  UNL1        0.0271
     56 H           0.5239    0.5529    2.2759 H       1  UNL1        0.0271
     57 H          -0.3378   -2.7820    0.1505 H       1  UNL1        0.0235
     58 H          -0.6642   -2.7022    1.8770 H       1  UNL1        0.0235
     59 H          -1.9720   -2.4736    0.7253 H       1  UNL1        0.0235
     60 H          -0.8583    1.9171    1.5316 H       1  UNL1        0.0239
     61 H          -2.5429    1.9024    2.0608 H       1  UNL1        0.0239
     62 H          -1.3199    1.0401    2.9945 H       1  UNL1        0.0239
     63 H          -4.9282   -0.6796    2.2731 H       1  UNL1        0.0367
     64 H          -4.0730    0.7775    2.8195 H       1  UNL1        0.0367
     65 H          -4.9626    0.0307    0.1378 H       1  UNL1        0.0602
     66 H          -5.1592    2.0819    1.1210 H       1  UNL1        0.2098
     67 H          -3.0023   -1.0155   -0.2356 H       1  UNL1        0.0371
@<TRIPOS>BOND
     1     1     2    1
     2     2     3    2
     3     2     4    1
     4     4     5    1
     5     5     6    1
     6     6     7    1
     7     7     8    1
     8     8     9    1
     9     8    10    1
    10    10    11    1
    11    11    12    1
    12    12    13    1
    13    12    14    1
    14    14    15    1
    15    14    16    1
    16    14    17    1
    17    17    18    1
    18    18    19    1
    19    19    20    1
    20    20    21    1
    21    20    22    1
    22    22    23    1
    23    22    24    1
    24    24    25    2
    25    24    26    1
    26    26    27    1
    27    27    28    1
    28    27    29    1
    29    29     5    1
    30    20     7    1
    31    29    22    1
    32    17     8    1
    33     1    30    1
    34     1    31    1
    35     1    32    1
    36     5    33    1
    37     6    34    1
    38     6    35    1
    39     7    36    1
    40     9    37    1
    41     9    38    1
    42     9    39    1
    43    10    40    1
    44    10    41    1
    45    11    42    1
    46    11    43    1
    47    12    44    1
    48    13    45    1
    49    15    46    1
    50    15    47    1
    51    15    48    1
    52    16    49    1
    53    16    50    1
    54    16    51    1
    55    17    52    1
    56    18    53    1
    57    18    54    1
    58    19    55    1
    59    19    56    1
    60    21    57    1
    61    21    58    1
    62    21    59    1
    63    23    60    1
    64    23    61    1
    65    23    62    1
    66    26    63    1
    67    26    64    1
    68    27    65    1
    69    28    66    1
    70    29    67    1
