
     RDKit          3D

 67 70  0  0  0  0  0  0  0  0999 V2000
   -4.1065    2.5670   -3.7796 C   0  0  0  0  0  0  0  0  0  0  0  0
   -3.2185    2.2566   -2.6444 C   0  0  0  0  0  0  0  0  0  0  0  0
   -2.5521    3.1660   -2.0892 O   0  0  0  0  0  0  0  0  0  0  0  0
   -3.0637    0.9806   -2.1288 O   0  0  0  0  0  0  0  0  0  0  0  0
   -2.2207    0.7385   -1.0647 C   0  0  2  0  0  0  0  0  0  0  0  0
   -1.0530   -0.1995   -1.4410 C   0  0  0  0  0  0  0  0  0  0  0  0
   -0.0796   -0.1045   -0.2988 C   0  0  2  0  0  0  0  0  0  0  0  0
    1.3313   -0.4505   -0.6718 C   0  0  1  0  0  0  0  0  0  0  0  0
    1.4491   -1.7134   -1.4087 C   0  0  0  0  0  0  0  0  0  0  0  0
    1.8567    0.6591   -1.6019 C   0  0  0  0  0  0  0  0  0  0  0  0
    3.2785    0.4649   -1.9879 C   0  0  0  0  0  0  0  0  0  0  0  0
    4.1710   -0.1489   -0.9637 C   0  0  2  0  0  0  0  0  0  0  0  0
    4.7202   -1.3799   -1.4056 O   0  0  0  0  0  0  0  0  0  0  0  0
    3.6251   -0.2887    0.3982 C   0  0  0  0  0  0  0  0  0  0  0  0
    4.2611    0.7934    1.2960 C   0  0  0  0  0  0  0  0  0  0  0  0
    4.1581   -1.5928    1.0165 C   0  0  0  0  0  0  0  0  0  0  0  0
    2.1553   -0.2702    0.5669 C   0  0  2  0  0  0  0  0  0  0  0  0
    1.6407   -1.1410    1.6865 C   0  0  0  0  0  0  0  0  0  0  0  0
    0.3086   -0.5085    2.1215 C   0  0  0  0  0  0  0  0  0  0  0  0
   -0.6283   -0.7405    0.9268 C   0  0  2  0  0  0  0  0  0  0  0  0
   -0.8894   -2.1905    0.8888 C   0  0  0  0  0  0  0  0  0  0  0  0
   -1.9018   -0.0119    1.2613 C   0  0  2  0  0  0  0  0  0  0  0  0
   -1.6417    1.2885    1.9373 C   0  0  0  0  0  0  0  0  0  0  0  0
   -2.7884   -0.7812    2.1933 C   0  0  0  0  0  0  0  0  0  0  0  0
   -2.5503   -1.7414    2.8622 O   0  0  0  0  0  0  0  0  0  0  0  0
   -4.0913   -0.0154    2.0690 C   0  0  0  0  0  0  0  0  0  0  0  0
   -4.0932    0.5454    0.6464 C   0  0  1  0  0  0  0  0  0  0  0  0
   -4.3498    1.8834    0.5890 O   0  0  0  0  0  0  0  0  0  0  0  0
   -2.8434    0.0572    0.0890 C   0  0  1  0  0  0  0  0  0  0  0  0
   -3.7967    3.4433   -4.3554 H   0  0  0  0  0  0  0  0  0  0  0  0
   -4.2084    1.6842   -4.4637 H   0  0  0  0  0  0  0  0  0  0  0  0
   -5.1389    2.7525   -3.3990 H   0  0  0  0  0  0  0  0  0  0  0  0
   -1.7410    1.6854   -0.7407 H   0  0  0  0  0  0  0  0  0  0  0  0
   -0.6505    0.0509   -2.4174 H   0  0  0  0  0  0  0  0  0  0  0  0
   -1.4613   -1.2528   -1.4038 H   0  0  0  0  0  0  0  0  0  0  0  0
   -0.0197    1.0062   -0.0729 H   0  0  0  0  0  0  0  0  0  0  0  0
    1.8197   -2.5865   -0.8593 H   0  0  0  0  0  0  0  0  0  0  0  0
    0.4593   -1.9098   -1.9255 H   0  0  0  0  0  0  0  0  0  0  0  0
    2.1396   -1.6336   -2.3049 H   0  0  0  0  0  0  0  0  0  0  0  0
    1.2510    0.7755   -2.4947 H   0  0  0  0  0  0  0  0  0  0  0  0
    1.7673    1.5919   -1.0061 H   0  0  0  0  0  0  0  0  0  0  0  0
    3.3932   -0.1534   -2.9283 H   0  0  0  0  0  0  0  0  0  0  0  0
    3.6494    1.4826   -2.3205 H   0  0  0  0  0  0  0  0  0  0  0  0
    5.0995    0.5026   -0.9217 H   0  0  0  0  0  0  0  0  0  0  0  0
    4.2805   -2.1584   -1.0377 H   0  0  0  0  0  0  0  0  0  0  0  0
    3.5949    1.6702    1.2229 H   0  0  0  0  0  0  0  0  0  0  0  0
    4.3273    0.4303    2.3390 H   0  0  0  0  0  0  0  0  0  0  0  0
    5.2425    1.0806    0.8757 H   0  0  0  0  0  0  0  0  0  0  0  0
    5.2330   -1.7537    0.7123 H   0  0  0  0  0  0  0  0  0  0  0  0
    3.5137   -2.4471    0.8292 H   0  0  0  0  0  0  0  0  0  0  0  0
    4.2317   -1.4811    2.1395 H   0  0  0  0  0  0  0  0  0  0  0  0
    1.8976    0.7946    0.8795 H   0  0  0  0  0  0  0  0  0  0  0  0
    1.3722   -2.1601    1.3227 H   0  0  0  0  0  0  0  0  0  0  0  0
    2.2718   -1.1424    2.5700 H   0  0  0  0  0  0  0  0  0  0  0  0
   -0.1152   -1.0434    2.9669 H   0  0  0  0  0  0  0  0  0  0  0  0
    0.5239    0.5529    2.2759 H   0  0  0  0  0  0  0  0  0  0  0  0
   -0.3378   -2.7820    0.1505 H   0  0  0  0  0  0  0  0  0  0  0  0
   -0.6642   -2.7022    1.8770 H   0  0  0  0  0  0  0  0  0  0  0  0
   -1.9720   -2.4736    0.7253 H   0  0  0  0  0  0  0  0  0  0  0  0
   -0.8583    1.9171    1.5316 H   0  0  0  0  0  0  0  0  0  0  0  0
   -2.5429    1.9024    2.0608 H   0  0  0  0  0  0  0  0  0  0  0  0
   -1.3199    1.0401    2.9945 H   0  0  0  0  0  0  0  0  0  0  0  0
   -4.9282   -0.6796    2.2731 H   0  0  0  0  0  0  0  0  0  0  0  0
   -4.0730    0.7775    2.8195 H   0  0  0  0  0  0  0  0  0  0  0  0
   -4.9626    0.0307    0.1378 H   0  0  0  0  0  0  0  0  0  0  0  0
   -5.1592    2.0819    1.1210 H   0  0  0  0  0  0  0  0  0  0  0  0
   -3.0023   -1.0155   -0.2356 H   0  0  0  0  0  0  0  0  0  0  0  0
  1  2  1  0
  2  3  2  0
  2  4  1  0
  4  5  1  0
  5  6  1  0
  6  7  1  0
  7  8  1  0
  8  9  1  6
  8 10  1  0
 10 11  1  0
 11 12  1  0
 12 13  1  0
 12 14  1  0
 14 15  1  0
 14 16  1  0
 14 17  1  0
 17 18  1  0
 18 19  1  0
 19 20  1  0
 20 21  1  6
 20 22  1  0
 22 23  1  1
 22 24  1  0
 24 25  2  0
 24 26  1  0
 26 27  1  0
 27 28  1  0
 27 29  1  0
 29  5  1  0
 20  7  1  0
 29 22  1  0
 17  8  1  0
  1 30  1  0
  1 31  1  0
  1 32  1  0
  5 33  1  1
  6 34  1  0
  6 35  1  0
  7 36  1  1
  9 37  1  0
  9 38  1  0
  9 39  1  0
 10 40  1  0
 10 41  1  0
 11 42  1  0
 11 43  1  0
 12 44  1  1
 13 45  1  0
 15 46  1  0
 15 47  1  0
 15 48  1  0
 16 49  1  0
 16 50  1  0
 16 51  1  0
 17 52  1  1
 18 53  1  0
 18 54  1  0
 19 55  1  0
 19 56  1  0
 21 57  1  0
 21 58  1  0
 21 59  1  0
 23 60  1  0
 23 61  1  0
 23 62  1  0
 26 63  1  0
 26 64  1  0
 27 65  1  6
 28 66  1  0
 29 67  1  6
M  END
$$$$
