@<TRIPOS>MOLECULE
*****
 39 42 0 0 0
SMALL
GASTEIGER

@<TRIPOS>ATOM
      1 O          -0.9095   -3.3583    2.7226 O.2     1  UNL1       -0.2677
      2 C          -0.8906   -2.5704    1.7220 C.ar    1  UNL1        0.2533
      3 C          -1.8791   -1.6157    1.5703 C.ar    1  UNL1        0.0427
      4 C          -1.8752   -0.7543    0.4941 C.ar    1  UNL1        0.1285
      5 N          -2.9047    0.2380    0.3384 N.pl3   1  UNL1       -0.3106
      6 C          -3.9785    0.3732    1.2982 C.3     1  UNL1        0.0370
      7 C          -4.5888    1.7578    1.0551 C.3     1  UNL1        0.0634
      8 O          -5.1567    1.8372   -0.2154 O.3     1  UNL1       -0.3767
      9 C          -4.3341    1.3541   -1.2006 C.3     1  UNL1        0.0634
     10 C          -2.9105    1.1471   -0.7891 C.3     1  UNL1        0.0370
     11 N          -0.8814   -0.8776   -0.3945 N.ar    1  UNL1       -0.2186
     12 C           0.0959   -1.7984   -0.2732 C.ar    1  UNL1        0.1207
     13 C           1.1928   -1.9432   -1.2430 C.3     1  UNL1        0.0821
     14 C           2.3419   -1.0800   -0.8434 C.ar    1  UNL1        0.2041
     15 N           2.4980    0.1905   -1.2435 N.ar    1  UNL1       -0.2129
     16 C           3.6510    0.6432   -0.6797 C.ar    1  UNL1        0.1095
     17 C           4.2854    1.8794   -0.7585 C.ar    1  UNL1       -0.0326
     18 C           5.4609    2.0441   -0.0668 C.ar    1  UNL1       -0.0595
     19 C           6.0103    1.0381    0.6831 C.ar    1  UNL1       -0.0582
     20 C           5.3575   -0.1730    0.7401 C.ar    1  UNL1       -0.0172
     21 C           4.1781   -0.3854    0.0647 C.ar    1  UNL1        0.1553
     22 O           3.3544   -1.4013   -0.0653 O.2     1  UNL1       -0.4393
     23 N           0.0765   -2.6304    0.7826 N.ar    1  UNL1       -0.3104
     24 H          -2.6809   -1.5314    2.3062 H       1  UNL1        0.0706
     25 H          -4.7444   -0.4157    1.1807 H       1  UNL1        0.0487
     26 H          -3.6137    0.3741    2.3431 H       1  UNL1        0.0487
     27 H          -5.3340    1.9961    1.8408 H       1  UNL1        0.0575
     28 H          -3.7343    2.4726    1.0672 H       1  UNL1        0.0575
     29 H          -4.3208    2.1302   -2.0206 H       1  UNL1        0.0575
     30 H          -4.7081    0.4329   -1.6918 H       1  UNL1        0.0575
     31 H          -2.3947    0.6271   -1.6289 H       1  UNL1        0.0487
     32 H          -2.4084    2.1102   -0.5467 H       1  UNL1        0.0487
     33 H           0.8918   -1.6499   -2.2734 H       1  UNL1        0.0439
     34 H           1.5168   -3.0179   -1.3096 H       1  UNL1        0.0439
     35 H           3.8250    2.6609   -1.3627 H       1  UNL1        0.0640
     36 H           5.9456    3.0091   -0.1350 H       1  UNL1        0.0618
     37 H           6.9550    1.2048    1.2254 H       1  UNL1        0.0619
     38 H           5.7899   -0.9659    1.3307 H       1  UNL1        0.0655
     39 H           0.8216   -3.3518    0.8993 H       1  UNL1        0.1700
@<TRIPOS>BOND
     1     1     2    2
     2     2     3   ar
     3     3     4   ar
     4     4     5    1
     5     5     6    1
     6     6     7    1
     7     7     8    1
     8     8     9    1
     9     9    10    1
    10     4    11   ar
    11    11    12   ar
    12    12    13    1
    13    13    14    1
    14    14    15   ar
    15    15    16   ar
    16    16    17   ar
    17    17    18   ar
    18    18    19   ar
    19    19    20   ar
    20    20    21   ar
    21    21    22   ar
    22    12    23   ar
    23    23     2   ar
    24    10     5    1
    25    22    14   ar
    26    21    16   ar
    27     3    24    1
    28     6    25    1
    29     6    26    1
    30     7    27    1
    31     7    28    1
    32     9    29    1
    33     9    30    1
    34    10    31    1
    35    10    32    1
    36    13    33    1
    37    13    34    1
    38    17    35    1
    39    18    36    1
    40    19    37    1
    41    20    38    1
    42    23    39    1
