
     RDKit          3D

 39 42  0  0  0  0  0  0  0  0999 V2000
   -0.9095   -3.3583    2.7226 O   0  0  0  0  0  0  0  0  0  0  0  0
   -0.8906   -2.5704    1.7220 C   0  0  0  0  0  0  0  0  0  0  0  0
   -1.8791   -1.6157    1.5703 C   0  0  0  0  0  0  0  0  0  0  0  0
   -1.8752   -0.7543    0.4941 C   0  0  0  0  0  0  0  0  0  0  0  0
   -2.9047    0.2380    0.3384 N   0  0  0  0  0  0  0  0  0  0  0  0
   -3.9785    0.3732    1.2982 C   0  0  0  0  0  0  0  0  0  0  0  0
   -4.5888    1.7578    1.0551 C   0  0  0  0  0  0  0  0  0  0  0  0
   -5.1567    1.8372   -0.2154 O   0  0  0  0  0  0  0  0  0  0  0  0
   -4.3341    1.3541   -1.2006 C   0  0  0  0  0  0  0  0  0  0  0  0
   -2.9105    1.1471   -0.7891 C   0  0  0  0  0  0  0  0  0  0  0  0
   -0.8814   -0.8776   -0.3945 N   0  0  0  0  0  0  0  0  0  0  0  0
    0.0959   -1.7984   -0.2732 C   0  0  0  0  0  0  0  0  0  0  0  0
    1.1928   -1.9432   -1.2430 C   0  0  0  0  0  0  0  0  0  0  0  0
    2.3419   -1.0800   -0.8434 C   0  0  0  0  0  0  0  0  0  0  0  0
    2.4980    0.1905   -1.2435 N   0  0  0  0  0  0  0  0  0  0  0  0
    3.6510    0.6432   -0.6797 C   0  0  0  0  0  0  0  0  0  0  0  0
    4.2854    1.8794   -0.7585 C   0  0  0  0  0  0  0  0  0  0  0  0
    5.4609    2.0441   -0.0668 C   0  0  0  0  0  0  0  0  0  0  0  0
    6.0103    1.0381    0.6831 C   0  0  0  0  0  0  0  0  0  0  0  0
    5.3575   -0.1730    0.7401 C   0  0  0  0  0  0  0  0  0  0  0  0
    4.1781   -0.3854    0.0647 C   0  0  0  0  0  0  0  0  0  0  0  0
    3.3544   -1.4013   -0.0653 O   0  0  0  0  0  0  0  0  0  0  0  0
    0.0765   -2.6304    0.7826 N   0  0  0  0  0  0  0  0  0  0  0  0
   -2.6809   -1.5314    2.3062 H   0  0  0  0  0  0  0  0  0  0  0  0
   -4.7444   -0.4157    1.1807 H   0  0  0  0  0  0  0  0  0  0  0  0
   -3.6137    0.3741    2.3431 H   0  0  0  0  0  0  0  0  0  0  0  0
   -5.3340    1.9961    1.8408 H   0  0  0  0  0  0  0  0  0  0  0  0
   -3.7343    2.4726    1.0672 H   0  0  0  0  0  0  0  0  0  0  0  0
   -4.3208    2.1302   -2.0206 H   0  0  0  0  0  0  0  0  0  0  0  0
   -4.7081    0.4329   -1.6918 H   0  0  0  0  0  0  0  0  0  0  0  0
   -2.3947    0.6271   -1.6289 H   0  0  0  0  0  0  0  0  0  0  0  0
   -2.4084    2.1102   -0.5467 H   0  0  0  0  0  0  0  0  0  0  0  0
    0.8918   -1.6499   -2.2734 H   0  0  0  0  0  0  0  0  0  0  0  0
    1.5168   -3.0179   -1.3096 H   0  0  0  0  0  0  0  0  0  0  0  0
    3.8250    2.6609   -1.3627 H   0  0  0  0  0  0  0  0  0  0  0  0
    5.9456    3.0091   -0.1350 H   0  0  0  0  0  0  0  0  0  0  0  0
    6.9550    1.2048    1.2254 H   0  0  0  0  0  0  0  0  0  0  0  0
    5.7899   -0.9659    1.3307 H   0  0  0  0  0  0  0  0  0  0  0  0
    0.8216   -3.3518    0.8993 H   0  0  0  0  0  0  0  0  0  0  0  0
  1  2  2  0
  2  3  1  0
  3  4  2  0
  4  5  1  0
  5  6  1  0
  6  7  1  0
  7  8  1  0
  8  9  1  0
  9 10  1  0
  4 11  1  0
 11 12  2  0
 12 13  1  0
 13 14  1  0
 14 15  2  0
 15 16  1  0
 16 17  2  0
 17 18  1  0
 18 19  2  0
 19 20  1  0
 20 21  2  0
 21 22  1  0
 12 23  1  0
 23  2  1  0
 10  5  1  0
 22 14  1  0
 21 16  1  0
  3 24  1  0
  6 25  1  0
  6 26  1  0
  7 27  1  0
  7 28  1  0
  9 29  1  0
  9 30  1  0
 10 31  1  0
 10 32  1  0
 13 33  1  0
 13 34  1  0
 17 35  1  0
 18 36  1  0
 19 37  1  0
 20 38  1  0
 23 39  1  0
M  END
$$$$
