
     RDKit          3D

 28 28  0  0  0  0  0  0  0  0999 V2000
   -3.8851   -0.7102    0.1634 C   0  0  0  0  0  0  0  0  0  0  0  0
   -2.5402   -0.9028   -0.1274 O   0  0  0  0  0  0  0  0  0  0  0  0
   -1.5521    0.0247   -0.1090 C   0  0  0  0  0  0  0  0  0  0  0  0
   -1.8148    1.3323    0.2234 C   0  0  0  0  0  0  0  0  0  0  0  0
   -0.7625    2.2454    0.2267 C   0  0  0  0  0  0  0  0  0  0  0  0
    0.5384    1.8644   -0.0968 C   0  0  0  0  0  0  0  0  0  0  0  0
    1.8934    3.2197   -0.0595 Br  0  0  0  0  0  0  0  0  0  0  0  0
    0.7791    0.5705   -0.4221 C   0  0  0  0  0  0  0  0  0  0  0  0
   -0.2618   -0.3288   -0.4246 C   0  0  0  0  0  0  0  0  0  0  0  0
    0.3571   -1.7089   -0.8414 B   0  0  0  0  0  0  0  0  0  0  0  0
   -0.3330   -2.9717   -0.6730 O   0  0  0  0  0  0  0  0  0  0  0  0
    1.7823   -1.4999   -0.7753 O   0  0  0  0  0  0  0  0  0  0  0  0
    2.0064   -0.1441   -0.8050 C   0  0  2  0  0  0  0  0  0  0  0  0
    3.1619    0.1209    0.1441 C   0  0  0  0  0  0  0  0  0  0  0  0
    2.8302   -0.3008    1.4890 N   0  0  0  0  0  0  0  0  0  0  0  0
    0.6881    0.0000    0.0000 Cl  0  0  0  0  0  0  0  0  0  0  0  0
   -4.0374   -0.8479    1.2672 H   0  0  0  0  0  0  0  0  0  0  0  0
   -4.1779    0.3165   -0.0738 H   0  0  0  0  0  0  0  0  0  0  0  0
   -4.5677   -1.3836   -0.3910 H   0  0  0  0  0  0  0  0  0  0  0  0
   -2.7893    1.7029    0.4843 H   0  0  0  0  0  0  0  0  0  0  0  0
   -0.9836    3.2672    0.4894 H   0  0  0  0  0  0  0  0  0  0  0  0
   -1.1220   -2.9610   -1.2832 H   0  0  0  0  0  0  0  0  0  0  0  0
    2.2646    0.1859   -1.8443 H   0  0  0  0  0  0  0  0  0  0  0  0
    4.0311   -0.5167   -0.1647 H   0  0  0  0  0  0  0  0  0  0  0  0
    3.4857    1.1624    0.1285 H   0  0  0  0  0  0  0  0  0  0  0  0
    3.6352   -0.7226    1.9881 H   0  0  0  0  0  0  0  0  0  0  0  0
    2.0619   -1.0139    1.4870 H   0  0  0  0  0  0  0  0  0  0  0  0
   -0.6881    0.0000    0.0000 H   0  0  0  0  0  0  0  0  0  0  0  0
  1  2  1  0
  2  3  1  0
  3  4  2  0
  4  5  1  0
  5  6  2  0
  6  7  1  0
  6  8  1  0
  8  9  2  0
  9 10  1  0
 10 11  1  0
 10 12  1  0
 12 13  1  0
 13 14  1  0
 14 15  1  0
  9  3  1  0
 13  8  1  0
  1 17  1  0
  1 18  1  0
  1 19  1  0
  4 20  1  0
  5 21  1  0
 11 22  1  0
 13 23  1  6
 14 24  1  0
 14 25  1  0
 15 26  1  0
 15 27  1  0
 16 28  1  0
M  END
$$$$
