@<TRIPOS>MOLECULE
*****
 28 28 0 0 0
SMALL
GASTEIGER

@<TRIPOS>ATOM
      1 C          -3.8851   -0.7102    0.1634 C.3     1  UNL1        0.0000
      2 O          -2.5402   -0.9028   -0.1274 O.3     1  UNL1        0.0000
      3 C          -1.5521    0.0247   -0.1090 C.ar    1  UNL1        0.0000
      4 C          -1.8148    1.3323    0.2234 C.ar    1  UNL1        0.0000
      5 C          -0.7625    2.2454    0.2267 C.ar    1  UNL1        0.0000
      6 C           0.5384    1.8644   -0.0968 C.ar    1  UNL1        0.0000
      7 BR          1.8934    3.2197   -0.0595 Br      1  UNL1        0.0000
      8 C           0.7791    0.5705   -0.4221 C.ar    1  UNL1        0.0000
      9 C          -0.2618   -0.3288   -0.4246 C.ar    1  UNL1        0.0000
     10 B           0.3571   -1.7089   -0.8414 B       1  UNL1        0.0000
     11 O          -0.3330   -2.9717   -0.6730 O.3     1  UNL1        0.0000
     12 O           1.7823   -1.4999   -0.7753 O.3     1  UNL1        0.0000
     13 C           2.0064   -0.1441   -0.8050 C.3     1  UNL1        0.0000
     14 C           3.1619    0.1209    0.1441 C.3     1  UNL1        0.0000
     15 N           2.8302   -0.3008    1.4890 N.3     1  UNL1        0.0000
     16 CL          0.6881    0.0000    0.0000 Cl      2  UNL2        0.0000
     17 H          -4.0374   -0.8479    1.2672 H       1  UNL1        0.0000
     18 H          -4.1779    0.3165   -0.0738 H       1  UNL1        0.0000
     19 H          -4.5677   -1.3836   -0.3910 H       1  UNL1        0.0000
     20 H          -2.7893    1.7029    0.4843 H       1  UNL1        0.0000
     21 H          -0.9836    3.2672    0.4894 H       1  UNL1        0.0000
     22 H          -1.1220   -2.9610   -1.2832 H       1  UNL1        0.0000
     23 H           2.2646    0.1859   -1.8443 H       1  UNL1        0.0000
     24 H           4.0311   -0.5167   -0.1647 H       1  UNL1        0.0000
     25 H           3.4857    1.1624    0.1285 H       1  UNL1        0.0000
     26 H           3.6352   -0.7226    1.9881 H       1  UNL1        0.0000
     27 H           2.0619   -1.0139    1.4870 H       1  UNL1        0.0000
     28 H          -0.6881    0.0000    0.0000 H       1  UNL1        0.0000
@<TRIPOS>BOND
     1     1     2    1
     2     2     3    1
     3     3     4   ar
     4     4     5   ar
     5     5     6   ar
     6     6     7    1
     7     6     8   ar
     8     8     9   ar
     9     9    10    1
    10    10    11    1
    11    10    12    1
    12    12    13    1
    13    13    14    1
    14    14    15    1
    15     9     3   ar
    16    13     8    1
    17     1    17    1
    18     1    18    1
    19     1    19    1
    20     4    20    1
    21     5    21    1
    22    11    22    1
    23    13    23    1
    24    14    24    1
    25    14    25    1
    26    15    26    1
    27    15    27    1
    28    16    28    1
