@<TRIPOS>MOLECULE
*****
 48 51 0 0 0
SMALL
GASTEIGER

@<TRIPOS>ATOM
      1 C          -6.5028   -1.5235    0.6600 C.3     1  UNL1       -0.0391
      2 C          -6.3629   -0.0895    0.2299 C.ar    1  UNL1       -0.0412
      3 C          -7.5170    0.7067    0.3166 C.ar    1  UNL1       -0.0582
      4 C          -7.5210    2.0362    0.0193 C.ar    1  UNL1       -0.0615
      5 C          -6.3315    2.6039   -0.3812 C.ar    1  UNL1       -0.0611
      6 C          -5.1922    1.8458   -0.4743 C.ar    1  UNL1       -0.0523
      7 C          -5.1915    0.4657   -0.1666 C.ar    1  UNL1        0.0050
      8 C          -3.9225   -0.2323   -0.2565 C.ar    1  UNL1        0.0937
      9 C          -3.7415   -1.5522   -0.5212 C.ar    1  UNL1       -0.0307
     10 C          -2.4511   -2.0711   -0.6377 C.ar    1  UNL1       -0.0177
     11 C          -1.3168   -1.2751   -0.4927 C.ar    1  UNL1        0.1454
     12 N          -0.0543   -1.8729   -0.6298 N.pl3   1  UNL1       -0.2980
     13 C           1.2037   -1.2435   -0.4962 C.ar    1  UNL1        0.0325
     14 C           2.3549   -1.9326   -0.8648 C.ar    1  UNL1       -0.0388
     15 C           3.6205   -1.3950   -0.7598 C.ar    1  UNL1       -0.0389
     16 C           3.8106   -0.1219   -0.2748 C.ar    1  UNL1        0.0299
     17 N           5.1099    0.4482   -0.1615 N.pl3   1  UNL1       -0.3255
     18 C           6.3384   -0.1563   -0.5486 C.3     1  UNL1        0.0357
     19 C           7.2242   -0.2334    0.6809 C.3     1  UNL1        0.0634
     20 O           7.2511    0.9645    1.3790 O.3     1  UNL1       -0.3767
     21 C           6.6834    2.0181    0.6732 C.3     1  UNL1        0.0634
     22 C           5.2062    1.7979    0.4145 C.3     1  UNL1        0.0357
     23 C           2.6841    0.5750    0.0947 C.ar    1  UNL1       -0.0389
     24 C           1.4169    0.0274   -0.0136 C.ar    1  UNL1       -0.0388
     25 N          -1.5656    0.0098   -0.2360 N.ar    1  UNL1       -0.1335
     26 N          -2.7670    0.5119   -0.1230 N.ar    1  UNL1       -0.1475
     27 H          -5.6449   -1.8870    1.2353 H       1  UNL1        0.0278
     28 H          -7.4285   -1.5533    1.3457 H       1  UNL1        0.0278
     29 H          -6.7940   -2.1191   -0.2170 H       1  UNL1        0.0278
     30 H          -8.4292    0.2435    0.6290 H       1  UNL1        0.0620
     31 H          -8.4163    2.6626    0.0845 H       1  UNL1        0.0618
     32 H          -6.3487    3.6655   -0.6147 H       1  UNL1        0.0618
     33 H          -4.2559    2.2955   -0.7905 H       1  UNL1        0.0624
     34 H          -4.5834   -2.1992   -0.6802 H       1  UNL1        0.0641
     35 H          -2.3662   -3.1219   -0.8464 H       1  UNL1        0.0653
     36 H           0.0017   -2.9244   -0.8584 H       1  UNL1        0.1536
     37 H           2.2832   -2.9390   -1.2559 H       1  UNL1        0.0637
     38 H           4.4817   -1.9791   -1.0620 H       1  UNL1        0.0637
     39 H           6.8793    0.5260   -1.2700 H       1  UNL1        0.0486
     40 H           6.2934   -1.1272   -1.0270 H       1  UNL1        0.0486
     41 H           8.2518   -0.5895    0.4276 H       1  UNL1        0.0575
     42 H           6.7775   -0.9985    1.3501 H       1  UNL1        0.0575
     43 H           7.2184    2.2657   -0.2618 H       1  UNL1        0.0575
     44 H           6.7533    2.9195    1.3152 H       1  UNL1        0.0575
     45 H           4.6226    1.8342    1.3436 H       1  UNL1        0.0486
     46 H           4.8794    2.5136   -0.3579 H       1  UNL1        0.0486
     47 H           2.8042    1.5766    0.4777 H       1  UNL1        0.0637
     48 H           0.5540    0.6234    0.2993 H       1  UNL1        0.0637
@<TRIPOS>BOND
     1     1     2    1
     2     2     3   ar
     3     3     4   ar
     4     4     5   ar
     5     5     6   ar
     6     6     7   ar
     7     7     8    1
     8     8     9   ar
     9     9    10   ar
    10    10    11   ar
    11    11    12    1
    12    12    13    1
    13    13    14   ar
    14    14    15   ar
    15    15    16   ar
    16    16    17    1
    17    17    18    1
    18    18    19    1
    19    19    20    1
    20    20    21    1
    21    21    22    1
    22    16    23   ar
    23    23    24   ar
    24    11    25   ar
    25    25    26   ar
    26     7     2   ar
    27    26     8   ar
    28    24    13   ar
    29    22    17    1
    30     1    27    1
    31     1    28    1
    32     1    29    1
    33     3    30    1
    34     4    31    1
    35     5    32    1
    36     6    33    1
    37     9    34    1
    38    10    35    1
    39    12    36    1
    40    14    37    1
    41    15    38    1
    42    18    39    1
    43    18    40    1
    44    19    41    1
    45    19    42    1
    46    21    43    1
    47    21    44    1
    48    22    45    1
    49    22    46    1
    50    23    47    1
    51    24    48    1
