
     RDKit          3D

 48 51  0  0  0  0  0  0  0  0999 V2000
   -6.5028   -1.5235    0.6600 C   0  0  0  0  0  0  0  0  0  0  0  0
   -6.3629   -0.0895    0.2299 C   0  0  0  0  0  0  0  0  0  0  0  0
   -7.5170    0.7067    0.3166 C   0  0  0  0  0  0  0  0  0  0  0  0
   -7.5210    2.0362    0.0193 C   0  0  0  0  0  0  0  0  0  0  0  0
   -6.3315    2.6039   -0.3812 C   0  0  0  0  0  0  0  0  0  0  0  0
   -5.1922    1.8458   -0.4743 C   0  0  0  0  0  0  0  0  0  0  0  0
   -5.1915    0.4657   -0.1666 C   0  0  0  0  0  0  0  0  0  0  0  0
   -3.9225   -0.2323   -0.2565 C   0  0  0  0  0  0  0  0  0  0  0  0
   -3.7415   -1.5522   -0.5212 C   0  0  0  0  0  0  0  0  0  0  0  0
   -2.4511   -2.0711   -0.6377 C   0  0  0  0  0  0  0  0  0  0  0  0
   -1.3168   -1.2751   -0.4927 C   0  0  0  0  0  0  0  0  0  0  0  0
   -0.0543   -1.8729   -0.6298 N   0  0  0  0  0  0  0  0  0  0  0  0
    1.2037   -1.2435   -0.4962 C   0  0  0  0  0  0  0  0  0  0  0  0
    2.3549   -1.9326   -0.8648 C   0  0  0  0  0  0  0  0  0  0  0  0
    3.6205   -1.3950   -0.7598 C   0  0  0  0  0  0  0  0  0  0  0  0
    3.8106   -0.1219   -0.2748 C   0  0  0  0  0  0  0  0  0  0  0  0
    5.1099    0.4482   -0.1615 N   0  0  0  0  0  0  0  0  0  0  0  0
    6.3384   -0.1563   -0.5486 C   0  0  0  0  0  0  0  0  0  0  0  0
    7.2242   -0.2334    0.6809 C   0  0  0  0  0  0  0  0  0  0  0  0
    7.2511    0.9645    1.3790 O   0  0  0  0  0  0  0  0  0  0  0  0
    6.6834    2.0181    0.6732 C   0  0  0  0  0  0  0  0  0  0  0  0
    5.2062    1.7979    0.4145 C   0  0  0  0  0  0  0  0  0  0  0  0
    2.6841    0.5750    0.0947 C   0  0  0  0  0  0  0  0  0  0  0  0
    1.4169    0.0274   -0.0136 C   0  0  0  0  0  0  0  0  0  0  0  0
   -1.5656    0.0098   -0.2360 N   0  0  0  0  0  0  0  0  0  0  0  0
   -2.7670    0.5119   -0.1230 N   0  0  0  0  0  0  0  0  0  0  0  0
   -5.6449   -1.8870    1.2353 H   0  0  0  0  0  0  0  0  0  0  0  0
   -7.4285   -1.5533    1.3457 H   0  0  0  0  0  0  0  0  0  0  0  0
   -6.7940   -2.1191   -0.2170 H   0  0  0  0  0  0  0  0  0  0  0  0
   -8.4292    0.2435    0.6290 H   0  0  0  0  0  0  0  0  0  0  0  0
   -8.4163    2.6626    0.0845 H   0  0  0  0  0  0  0  0  0  0  0  0
   -6.3487    3.6655   -0.6147 H   0  0  0  0  0  0  0  0  0  0  0  0
   -4.2559    2.2955   -0.7905 H   0  0  0  0  0  0  0  0  0  0  0  0
   -4.5834   -2.1992   -0.6802 H   0  0  0  0  0  0  0  0  0  0  0  0
   -2.3662   -3.1219   -0.8464 H   0  0  0  0  0  0  0  0  0  0  0  0
    0.0017   -2.9244   -0.8584 H   0  0  0  0  0  0  0  0  0  0  0  0
    2.2832   -2.9390   -1.2559 H   0  0  0  0  0  0  0  0  0  0  0  0
    4.4817   -1.9791   -1.0620 H   0  0  0  0  0  0  0  0  0  0  0  0
    6.8793    0.5260   -1.2700 H   0  0  0  0  0  0  0  0  0  0  0  0
    6.2934   -1.1272   -1.0270 H   0  0  0  0  0  0  0  0  0  0  0  0
    8.2518   -0.5895    0.4276 H   0  0  0  0  0  0  0  0  0  0  0  0
    6.7775   -0.9985    1.3501 H   0  0  0  0  0  0  0  0  0  0  0  0
    7.2184    2.2657   -0.2618 H   0  0  0  0  0  0  0  0  0  0  0  0
    6.7533    2.9195    1.3152 H   0  0  0  0  0  0  0  0  0  0  0  0
    4.6226    1.8342    1.3436 H   0  0  0  0  0  0  0  0  0  0  0  0
    4.8794    2.5136   -0.3579 H   0  0  0  0  0  0  0  0  0  0  0  0
    2.8042    1.5766    0.4777 H   0  0  0  0  0  0  0  0  0  0  0  0
    0.5540    0.6234    0.2993 H   0  0  0  0  0  0  0  0  0  0  0  0
  1  2  1  0
  2  3  2  0
  3  4  1  0
  4  5  2  0
  5  6  1  0
  6  7  2  0
  7  8  1  0
  8  9  2  0
  9 10  1  0
 10 11  2  0
 11 12  1  0
 12 13  1  0
 13 14  2  0
 14 15  1  0
 15 16  2  0
 16 17  1  0
 17 18  1  0
 18 19  1  0
 19 20  1  0
 20 21  1  0
 21 22  1  0
 16 23  1  0
 23 24  2  0
 11 25  1  0
 25 26  2  0
  7  2  1  0
 26  8  1  0
 24 13  1  0
 22 17  1  0
  1 27  1  0
  1 28  1  0
  1 29  1  0
  3 30  1  0
  4 31  1  0
  5 32  1  0
  6 33  1  0
  9 34  1  0
 10 35  1  0
 12 36  1  0
 14 37  1  0
 15 38  1  0
 18 39  1  0
 18 40  1  0
 19 41  1  0
 19 42  1  0
 21 43  1  0
 21 44  1  0
 22 45  1  0
 22 46  1  0
 23 47  1  0
 24 48  1  0
M  END
$$$$
