@<TRIPOS>MOLECULE
*****
 44 47 0 0 0
SMALL
GASTEIGER

@<TRIPOS>ATOM
      1 C          -3.2810    0.9221    0.7117 C.3     1  UNL1        0.0609
      2 C          -3.8103    0.8092    2.1289 C.3     1  UNL1        0.0158
      3 N          -5.1552    1.3533    2.2325 N.3     1  UNL1       -0.3280
      4 N          -1.9533    0.3913    0.5806 N.am    1  UNL1       -0.3029
      5 C          -0.8590    1.2435    0.2429 C.2     1  UNL1        0.2512
      6 O          -0.9387    2.4871    0.0350 O.2     1  UNL1       -0.2696
      7 C           0.4436    0.6314    0.1306 C.ar    1  UNL1        0.0744
      8 C           0.8649   -0.6548    0.2881 C.ar    1  UNL1       -0.0419
      9 C           2.1787   -0.9620    0.1197 C.ar    1  UNL1       -0.0462
     10 C           3.0514    0.0698   -0.2124 C.ar    1  UNL1        0.0208
     11 S           1.9084    1.4676   -0.2672 S.2     1  UNL1       -0.0837
     12 C           4.4754    0.2711   -0.4902 C.ar    1  UNL1        0.0008
     13 C           5.4696   -0.6672   -0.4919 C.ar    1  UNL1        0.0268
     14 C           5.3727   -1.9963   -0.2384 C.ar    1  UNL1       -0.0345
     15 C           6.6165   -2.5504   -0.3510 C.ar    1  UNL1        0.0041
     16 N           7.4789   -1.5743   -0.6716 N.ar    1  UNL1       -0.3458
     17 C           6.7856   -0.4326   -0.7573 C.ar    1  UNL1        0.1387
     18 N           7.1295    0.8273   -1.0403 N.ar    1  UNL1       -0.2375
     19 C           6.2217    1.8066   -1.0607 C.ar    1  UNL1        0.0305
     20 C           4.9111    1.5489   -0.7921 C.ar    1  UNL1       -0.0347
     21 C          -4.2120    0.3230   -0.2677 C.ar    1  UNL1       -0.0260
     22 C          -5.1164    1.0636   -1.0096 C.ar    1  UNL1       -0.0568
     23 C          -5.9743    0.4560   -1.9208 C.ar    1  UNL1       -0.0614
     24 C          -5.9101   -0.9172   -2.0772 C.ar    1  UNL1       -0.0617
     25 C          -5.0344   -1.7077   -1.3704 C.ar    1  UNL1       -0.0614
     26 C          -4.2056   -1.0471   -0.4784 C.ar    1  UNL1       -0.0568
     27 H          -3.2025    2.0279    0.5014 H       1  UNL1        0.0561
     28 H          -3.2034    1.4077    2.8376 H       1  UNL1        0.0443
     29 H          -3.8053   -0.2361    2.4738 H       1  UNL1        0.0443
     30 H          -5.9072    0.6821    2.0587 H       1  UNL1        0.1183
     31 H          -5.2249    2.1912    1.6371 H       1  UNL1        0.1183
     32 H          -1.8016   -0.6305    0.7368 H       1  UNL1        0.1497
     33 H           0.1082   -1.3824    0.5463 H       1  UNL1        0.0631
     34 H           2.5539   -1.9512    0.2321 H       1  UNL1        0.0629
     35 H           4.5860   -2.6661    0.0147 H       1  UNL1        0.0639
     36 H           6.9594   -3.5640   -0.2286 H       1  UNL1        0.0807
     37 H           8.5211   -1.6605   -0.8333 H       1  UNL1        0.1668
     38 H           6.5676    2.8001   -1.2966 H       1  UNL1        0.0830
     39 H           4.2635    2.4343   -0.8398 H       1  UNL1        0.0639
     40 H          -5.1196    2.1217   -0.8452 H       1  UNL1        0.0621
     41 H          -6.6762    1.0607   -2.4919 H       1  UNL1        0.0618
     42 H          -6.5936   -1.3711   -2.7984 H       1  UNL1        0.0618
     43 H          -4.9766   -2.7880   -1.4864 H       1  UNL1        0.0618
     44 H          -3.5065   -1.6382    0.0922 H       1  UNL1        0.0621
@<TRIPOS>BOND
     1     1     2    1
     2     2     3    1
     3     1     4    1
     4     4     5   am
     5     5     6    2
     6     5     7    1
     7     7     8   ar
     8     8     9   ar
     9     9    10   ar
    10    10    11   ar
    11    10    12    1
    12    12    13   ar
    13    13    14   ar
    14    14    15   ar
    15    15    16   ar
    16    16    17   ar
    17    17    18   ar
    18    18    19   ar
    19    19    20   ar
    20     1    21    1
    21    21    22   ar
    22    22    23   ar
    23    23    24   ar
    24    24    25   ar
    25    25    26   ar
    26    11     7   ar
    27    20    12   ar
    28    26    21   ar
    29    17    13   ar
    30     1    27    1
    31     2    28    1
    32     2    29    1
    33     3    30    1
    34     3    31    1
    35     4    32    1
    36     8    33    1
    37     9    34    1
    38    14    35    1
    39    15    36    1
    40    16    37    1
    41    19    38    1
    42    20    39    1
    43    22    40    1
    44    23    41    1
    45    24    42    1
    46    25    43    1
    47    26    44    1
