@<TRIPOS>MOLECULE
*****
 19 18 0 0 0
SMALL
GASTEIGER

@<TRIPOS>ATOM
      1 O          -3.3375   -0.4878   -0.1520 O.3     1  UNL1       -0.3924
      2 C          -2.0042   -0.2791   -0.4971 C.3     1  UNL1        0.0723
      3 C          -1.3130    0.6364    0.4975 C.3     1  UNL1        0.1020
      4 O          -1.3745    0.0353    1.7524 O.3     1  UNL1       -0.3872
      5 C           0.1489    0.7731    0.0445 C.3     1  UNL1        0.0871
      6 O           0.6339   -0.5325    0.0078 O.3     1  UNL1       -0.2841
      7 P           2.2355   -0.6381   -0.4664 P.3     1  UNL1        0.4724
      8 O           2.9739    0.8752   -0.6283 O.3     1  UNL1       -0.3026
      9 O           3.0897   -1.5146    0.7055 O.3     1  UNL1       -0.3026
     10 O           2.3490   -1.4345   -1.7620 O.2     1  UNL1       -0.2275
     11 H          -3.3044   -1.1348    0.6217 H       1  UNL1        0.2095
     12 H          -1.4530   -1.2265   -0.5240 H       1  UNL1        0.0583
     13 H          -1.9657    0.1687   -1.5003 H       1  UNL1        0.0583
     14 H          -1.7835    1.6244    0.5809 H       1  UNL1        0.0639
     15 H          -0.8425    0.5367    2.4225 H       1  UNL1        0.2100
     16 H           0.1915    1.1375   -0.9994 H       1  UNL1        0.0592
     17 H           0.7427    1.3568    0.7494 H       1  UNL1        0.0592
     18 H           2.3894    1.5093   -1.1131 H       1  UNL1        0.2220
     19 H           2.6236   -1.4052    1.5898 H       1  UNL1        0.2220
@<TRIPOS>BOND
     1     1     2    1
     2     2     3    1
     3     3     4    1
     4     3     5    1
     5     5     6    1
     6     6     7    1
     7     7     8    1
     8     7     9    1
     9     7    10    2
    10     1    11    1
    11     2    12    1
    12     2    13    1
    13     3    14    1
    14     4    15    1
    15     5    16    1
    16     5    17    1
    17     8    18    1
    18     9    19    1
