
     RDKit          3D

 19 18  0  0  0  0  0  0  0  0999 V2000
   -3.3375   -0.4878   -0.1520 O   0  0  0  0  0  0  0  0  0  0  0  0
   -2.0042   -0.2791   -0.4971 C   0  0  0  0  0  0  0  0  0  0  0  0
   -1.3130    0.6364    0.4975 C   0  0  1  0  0  0  0  0  0  0  0  0
   -1.3745    0.0353    1.7524 O   0  0  0  0  0  0  0  0  0  0  0  0
    0.1489    0.7731    0.0445 C   0  0  0  0  0  0  0  0  0  0  0  0
    0.6339   -0.5325    0.0078 O   0  0  0  0  0  0  0  0  0  0  0  0
    2.2355   -0.6381   -0.4664 P   0  0  0  0  0  0  0  0  0  0  0  0
    2.9739    0.8752   -0.6283 O   0  0  0  0  0  0  0  0  0  0  0  0
    3.0897   -1.5146    0.7055 O   0  0  0  0  0  0  0  0  0  0  0  0
    2.3490   -1.4345   -1.7620 O   0  0  0  0  0  0  0  0  0  0  0  0
   -3.3044   -1.1348    0.6217 H   0  0  0  0  0  0  0  0  0  0  0  0
   -1.4530   -1.2265   -0.5240 H   0  0  0  0  0  0  0  0  0  0  0  0
   -1.9657    0.1687   -1.5003 H   0  0  0  0  0  0  0  0  0  0  0  0
   -1.7835    1.6244    0.5809 H   0  0  0  0  0  0  0  0  0  0  0  0
   -0.8425    0.5367    2.4225 H   0  0  0  0  0  0  0  0  0  0  0  0
    0.1915    1.1375   -0.9994 H   0  0  0  0  0  0  0  0  0  0  0  0
    0.7427    1.3568    0.7494 H   0  0  0  0  0  0  0  0  0  0  0  0
    2.3894    1.5093   -1.1131 H   0  0  0  0  0  0  0  0  0  0  0  0
    2.6236   -1.4052    1.5898 H   0  0  0  0  0  0  0  0  0  0  0  0
  1  2  1  0
  2  3  1  0
  3  4  1  0
  3  5  1  0
  5  6  1  0
  6  7  1  0
  7  8  1  0
  7  9  1  0
  7 10  2  0
  1 11  1  0
  2 12  1  0
  2 13  1  0
  3 14  1  1
  4 15  1  0
  5 16  1  0
  5 17  1  0
  8 18  1  0
  9 19  1  0
M  END
$$$$
