@<TRIPOS>MOLECULE
*****
 59 61 0 0 0
SMALL
GASTEIGER

@<TRIPOS>ATOM
      1 C          -4.2346   -2.8823    0.9986 C.3     1  UNL1       -0.0638
      2 C          -4.6183   -3.3870   -0.3605 C.3     1  UNL1       -0.0350
      3 C          -4.7712   -2.2721   -1.3304 C.3     1  UNL1        0.0817
      4 S          -3.2764   -1.4002   -1.6082 S.O2    1  UNL1        0.0318
      5 O          -2.2689   -2.3372   -2.2436 O.2     1  UNL1       -0.1580
      6 O          -3.5796   -0.3133   -2.6229 O.2     1  UNL1       -0.1580
      7 N          -2.5932   -0.6661   -0.2238 N.3     1  UNL1       -0.1811
      8 C          -1.3079   -1.2859    0.0429 C.3     1  UNL1        0.0210
      9 C          -0.4494   -0.2559    0.7875 C.3     1  UNL1       -0.0260
     10 C           0.0678    0.7885   -0.1854 C.3     1  UNL1        0.0309
     11 C           1.1553    0.2578   -1.0534 C.3     1  UNL1        0.0230
     12 N           2.3017   -0.2628   -0.3831 N.am    1  UNL1       -0.3104
     13 C           3.4456   -0.7737   -1.0674 C.2     1  UNL1        0.2441
     14 O           3.3886   -0.7402   -2.3225 O.2     1  UNL1       -0.2702
     15 C           4.6170   -1.3053   -0.4098 C.ar    1  UNL1        0.0367
     16 C           5.6540   -1.7648   -1.1855 C.ar    1  UNL1       -0.0496
     17 C           6.8048   -2.2865   -0.6337 C.ar    1  UNL1       -0.0610
     18 C           6.9297   -2.3540    0.7224 C.ar    1  UNL1       -0.0617
     19 C           5.9047   -1.9000    1.5200 C.ar    1  UNL1       -0.0610
     20 C           4.7445   -1.3740    0.9535 C.ar    1  UNL1       -0.0496
     21 C           0.2919    2.1113    0.4110 C.ar    1  UNL1        0.0528
     22 C           1.5121    2.5626    0.8081 C.ar    1  UNL1       -0.0395
     23 C           1.6516    3.8361    1.3882 C.ar    1  UNL1       -0.0550
     24 C           0.5703    4.6282    1.5573 C.ar    1  UNL1       -0.0000
     25 C          -0.6622    4.1663    1.1529 C.ar    1  UNL1        0.2146
     26 O          -1.7488    5.0086    1.3428 O.3     1  UNL1       -0.4796
     27 C          -3.0215    4.5378    0.9279 C.3     1  UNL1        0.0804
     28 N          -0.7760    2.9519    0.6032 N.ar    1  UNL1       -0.2173
     29 C          -1.1346    0.9978   -1.1554 C.3     1  UNL1       -0.0260
     30 C          -2.4389    0.7685   -0.4233 C.3     1  UNL1        0.0210
     31 H          -3.3028   -3.3939    1.3347 H       1  UNL1        0.0230
     32 H          -4.0878   -1.8057    1.0804 H       1  UNL1        0.0230
     33 H          -5.0673   -3.1189    1.7319 H       1  UNL1        0.0230
     34 H          -3.8089   -4.0589   -0.7821 H       1  UNL1        0.0279
     35 H          -5.5544   -4.0048   -0.2972 H       1  UNL1        0.0279
     36 H          -5.1533   -2.6443   -2.3344 H       1  UNL1        0.0515
     37 H          -5.5510   -1.5824   -0.9072 H       1  UNL1        0.0515
     38 H          -1.4319   -2.1637    0.6737 H       1  UNL1        0.0444
     39 H          -0.8541   -1.5236   -0.9410 H       1  UNL1        0.0444
     40 H          -1.1291    0.2307    1.5171 H       1  UNL1        0.0288
     41 H           0.3648   -0.7571    1.3305 H       1  UNL1        0.0288
     42 H           1.5009    1.1223   -1.6946 H       1  UNL1        0.0471
     43 H           0.7009   -0.4520   -1.7754 H       1  UNL1        0.0471
     44 H           2.3527   -0.3189    0.6561 H       1  UNL1        0.1490
     45 H           5.5994   -1.7313   -2.2701 H       1  UNL1        0.0625
     46 H           7.5956   -2.6364   -1.2851 H       1  UNL1        0.0618
     47 H           7.8492   -2.7704    1.1179 H       1  UNL1        0.0618
     48 H           6.0361   -1.9680    2.5936 H       1  UNL1        0.0618
     49 H           3.9823   -1.0369    1.6054 H       1  UNL1        0.0625
     50 H           2.3808    1.9439    0.6677 H       1  UNL1        0.0636
     51 H           2.6295    4.1506    1.6864 H       1  UNL1        0.0620
     52 H           0.6951    5.6152    2.0096 H       1  UNL1        0.0671
     53 H          -3.4302    3.7674    1.6162 H       1  UNL1        0.0660
     54 H          -3.7532    5.3694    0.8365 H       1  UNL1        0.0660
     55 H          -2.8646    4.0514   -0.0707 H       1  UNL1        0.0660
     56 H          -1.0383    1.9962   -1.5688 H       1  UNL1        0.0288
     57 H          -1.0597    0.2394   -1.9393 H       1  UNL1        0.0288
     58 H          -3.2415    1.0915   -1.1056 H       1  UNL1        0.0444
     59 H          -2.5172    1.3354    0.5063 H       1  UNL1        0.0444
@<TRIPOS>BOND
     1     1     2    1
     2     2     3    1
     3     3     4    1
     4     4     5    2
     5     4     6    2
     6     4     7    1
     7     7     8    1
     8     8     9    1
     9     9    10    1
    10    10    11    1
    11    11    12    1
    12    12    13   am
    13    13    14    2
    14    13    15    1
    15    15    16   ar
    16    16    17   ar
    17    17    18   ar
    18    18    19   ar
    19    19    20   ar
    20    10    21    1
    21    21    22   ar
    22    22    23   ar
    23    23    24   ar
    24    24    25   ar
    25    25    26    1
    26    26    27    1
    27    25    28   ar
    28    10    29    1
    29    29    30    1
    30    30     7    1
    31    20    15   ar
    32    28    21   ar
    33     1    31    1
    34     1    32    1
    35     1    33    1
    36     2    34    1
    37     2    35    1
    38     3    36    1
    39     3    37    1
    40     8    38    1
    41     8    39    1
    42     9    40    1
    43     9    41    1
    44    11    42    1
    45    11    43    1
    46    12    44    1
    47    16    45    1
    48    17    46    1
    49    18    47    1
    50    19    48    1
    51    20    49    1
    52    22    50    1
    53    23    51    1
    54    24    52    1
    55    27    53    1
    56    27    54    1
    57    27    55    1
    58    29    56    1
    59    29    57    1
    60    30    58    1
    61    30    59    1
