@<TRIPOS>MOLECULE
*****
 66 69 0 0 0
SMALL
GASTEIGER

@<TRIPOS>ATOM
      1 C          -1.9097    5.3755    1.4348 C.3     1  UNL1       -0.0585
      2 C          -1.7456    4.8487    0.0418 C.3     1  UNL1       -0.0165
      3 C          -1.4100    5.9733   -0.8952 C.3     1  UNL1       -0.0585
      4 C          -0.8469    3.6840   -0.0593 C.ar    1  UNL1        0.0192
      5 C          -1.1721    2.3451    0.0373 C.ar    1  UNL1        0.1629
      6 N          -2.3917    1.8326    0.2398 N.ar    1  UNL1       -0.2129
      7 C          -2.6562    0.5107    0.3185 C.ar    1  UNL1        0.1246
      8 N          -3.9583    0.0263    0.5344 N.pl3   1  UNL1       -0.3261
      9 C          -4.5539   -1.2560    0.6566 C.3     1  UNL1        0.0221
     10 C          -4.3767   -2.0772   -0.6027 C.3     1  UNL1       -0.0331
     11 C          -4.1094   -3.5216   -0.2967 C.3     1  UNL1       -0.0361
     12 C          -5.0684   -4.0604    0.7468 C.3     1  UNL1        0.0050
     13 N          -6.3733   -4.1471    0.1427 N.3     1  UNL1       -0.3272
     14 C          -5.0713   -3.2045    1.9926 C.3     1  UNL1       -0.0361
     15 C          -4.0208   -2.0952    1.8137 C.3     1  UNL1       -0.0331
     16 C          -1.5307   -0.2660    0.1678 C.ar    1  UNL1        0.0183
     17 C          -0.2672    0.2156   -0.0405 C.ar    1  UNL1        0.1299
     18 N           0.8126   -0.6579   -0.2076 N.pl3   1  UNL1       -0.2992
     19 C           2.2068   -0.4567   -0.2953 C.ar    1  UNL1        0.0325
     20 C           2.9334    0.3676    0.5389 C.ar    1  UNL1       -0.0387
     21 C           4.2897    0.6051    0.4538 C.ar    1  UNL1       -0.0336
     22 C           4.9848   -0.0375   -0.5534 C.ar    1  UNL1        0.1056
     23 C           4.3455   -0.8860   -1.4414 C.ar    1  UNL1       -0.0336
     24 C           2.9891   -1.0641   -1.2819 C.ar    1  UNL1       -0.0387
     25 S           6.7079    0.1295   -0.8339 S.O2    1  UNL1        0.0604
     26 O           7.1874    1.4964   -0.3752 O.2     1  UNL1       -0.1529
     27 O           7.0366    0.0650   -2.3031 O.2     1  UNL1       -0.1529
     28 N           7.6451   -1.0559   -0.0503 N.3     1  UNL1       -0.1827
     29 C           7.5369   -1.0457    1.3942 C.3     1  UNL1        0.0086
     30 C           7.3491   -2.3990   -0.5045 C.3     1  UNL1        0.0086
     31 N          -0.1041    1.5456   -0.1040 N.ar    1  UNL1       -0.2000
     32 N           0.8817    2.3836   -0.2880 N.ar    1  UNL1       -0.1714
     33 C           0.5236    3.6594   -0.2748 C.ar    1  UNL1        0.0554
     34 H          -2.9021    5.8867    1.4813 H       1  UNL1        0.0235
     35 H          -1.1490    6.1583    1.6837 H       1  UNL1        0.0235
     36 H          -1.8463    4.5810    2.2079 H       1  UNL1        0.0235
     37 H          -2.7615    4.4640   -0.2700 H       1  UNL1        0.0345
     38 H          -0.6945    6.7042   -0.4912 H       1  UNL1        0.0235
     39 H          -1.1615    5.6099   -1.9157 H       1  UNL1        0.0235
     40 H          -2.3742    6.5452   -1.0473 H       1  UNL1        0.0235
     41 H          -4.6669    0.8246    0.6270 H       1  UNL1        0.1477
     42 H          -5.6419   -1.1279    0.8941 H       1  UNL1        0.0498
     43 H          -5.2692   -1.9382   -1.2520 H       1  UNL1        0.0284
     44 H          -3.5112   -1.6687   -1.1523 H       1  UNL1        0.0284
     45 H          -4.3541   -4.1120   -1.2303 H       1  UNL1        0.0281
     46 H          -3.0656   -3.7548   -0.0737 H       1  UNL1        0.0281
     47 H          -4.7339   -5.0694    1.0151 H       1  UNL1        0.0458
     48 H          -6.4810   -5.1059   -0.2555 H       1  UNL1        0.1185
     49 H          -6.5341   -3.4748   -0.6228 H       1  UNL1        0.1185
     50 H          -4.7538   -3.7850    2.8646 H       1  UNL1        0.0281
     51 H          -6.0515   -2.7497    2.1775 H       1  UNL1        0.0281
     52 H          -3.9714   -1.5418    2.7575 H       1  UNL1        0.0284
     53 H          -3.0698   -2.5785    1.5848 H       1  UNL1        0.0284
     54 H          -1.6163   -1.3409    0.2133 H       1  UNL1        0.0686
     55 H           0.6386   -1.6897   -0.2923 H       1  UNL1        0.1536
     56 H           2.4570    0.8839    1.3508 H       1  UNL1        0.0637
     57 H           4.8377    1.2453    1.1054 H       1  UNL1        0.0638
     58 H           4.8592   -1.4108   -2.2476 H       1  UNL1        0.0638
     59 H           2.4471   -1.7321   -1.9685 H       1  UNL1        0.0637
     60 H           7.7183    0.0151    1.7260 H       1  UNL1        0.0408
     61 H           8.3364   -1.6699    1.8439 H       1  UNL1        0.0408
     62 H           6.5338   -1.3227    1.7311 H       1  UNL1        0.0408
     63 H           7.9688   -3.1085    0.0427 H       1  UNL1        0.0408
     64 H           7.5032   -2.4668   -1.6143 H       1  UNL1        0.0408
     65 H           6.2735   -2.6171   -0.3016 H       1  UNL1        0.0408
     66 H           1.1722    4.5141   -0.4065 H       1  UNL1        0.0851
@<TRIPOS>BOND
     1     1     2    1
     2     2     3    1
     3     2     4    1
     4     4     5   ar
     5     5     6   ar
     6     6     7   ar
     7     7     8    1
     8     8     9    1
     9     9    10    1
    10    10    11    1
    11    11    12    1
    12    12    13    1
    13    12    14    1
    14    14    15    1
    15     7    16   ar
    16    16    17   ar
    17    17    18    1
    18    18    19    1
    19    19    20   ar
    20    20    21   ar
    21    21    22   ar
    22    22    23   ar
    23    23    24   ar
    24    22    25    1
    25    25    26    2
    26    25    27    2
    27    25    28    1
    28    28    29    1
    29    28    30    1
    30    17    31   ar
    31    31    32   ar
    32    32    33   ar
    33    33     4   ar
    34    31     5   ar
    35    15     9    1
    36    24    19   ar
    37     1    34    1
    38     1    35    1
    39     1    36    1
    40     2    37    1
    41     3    38    1
    42     3    39    1
    43     3    40    1
    44     8    41    1
    45     9    42    1
    46    10    43    1
    47    10    44    1
    48    11    45    1
    49    11    46    1
    50    12    47    1
    51    13    48    1
    52    13    49    1
    53    14    50    1
    54    14    51    1
    55    15    52    1
    56    15    53    1
    57    16    54    1
    58    18    55    1
    59    20    56    1
    60    21    57    1
    61    23    58    1
    62    24    59    1
    63    29    60    1
    64    29    61    1
    65    29    62    1
    66    30    63    1
    67    30    64    1
    68    30    65    1
    69    33    66    1
