
     RDKit          3D

 66 69  0  0  0  0  0  0  0  0999 V2000
   -1.9097    5.3755    1.4348 C   0  0  0  0  0  0  0  0  0  0  0  0
   -1.7456    4.8487    0.0418 C   0  0  0  0  0  0  0  0  0  0  0  0
   -1.4100    5.9733   -0.8952 C   0  0  0  0  0  0  0  0  0  0  0  0
   -0.8469    3.6840   -0.0593 C   0  0  0  0  0  0  0  0  0  0  0  0
   -1.1721    2.3451    0.0373 C   0  0  0  0  0  0  0  0  0  0  0  0
   -2.3917    1.8326    0.2398 N   0  0  0  0  0  0  0  0  0  0  0  0
   -2.6562    0.5107    0.3185 C   0  0  0  0  0  0  0  0  0  0  0  0
   -3.9583    0.0263    0.5344 N   0  0  0  0  0  0  0  0  0  0  0  0
   -4.5539   -1.2560    0.6566 C   0  0  1  0  0  0  0  0  0  0  0  0
   -4.3767   -2.0772   -0.6027 C   0  0  0  0  0  0  0  0  0  0  0  0
   -4.1094   -3.5216   -0.2967 C   0  0  0  0  0  0  0  0  0  0  0  0
   -5.0684   -4.0604    0.7468 C   0  0  2  0  0  0  0  0  0  0  0  0
   -6.3733   -4.1471    0.1427 N   0  0  0  0  0  0  0  0  0  0  0  0
   -5.0713   -3.2045    1.9926 C   0  0  0  0  0  0  0  0  0  0  0  0
   -4.0208   -2.0952    1.8137 C   0  0  0  0  0  0  0  0  0  0  0  0
   -1.5307   -0.2660    0.1678 C   0  0  0  0  0  0  0  0  0  0  0  0
   -0.2672    0.2156   -0.0405 C   0  0  0  0  0  0  0  0  0  0  0  0
    0.8126   -0.6579   -0.2076 N   0  0  0  0  0  0  0  0  0  0  0  0
    2.2068   -0.4567   -0.2953 C   0  0  0  0  0  0  0  0  0  0  0  0
    2.9334    0.3676    0.5389 C   0  0  0  0  0  0  0  0  0  0  0  0
    4.2897    0.6051    0.4538 C   0  0  0  0  0  0  0  0  0  0  0  0
    4.9848   -0.0375   -0.5534 C   0  0  0  0  0  0  0  0  0  0  0  0
    4.3455   -0.8860   -1.4414 C   0  0  0  0  0  0  0  0  0  0  0  0
    2.9891   -1.0641   -1.2819 C   0  0  0  0  0  0  0  0  0  0  0  0
    6.7079    0.1295   -0.8339 S   0  0  0  0  0  0  0  0  0  0  0  0
    7.1874    1.4964   -0.3752 O   0  0  0  0  0  0  0  0  0  0  0  0
    7.0366    0.0650   -2.3031 O   0  0  0  0  0  0  0  0  0  0  0  0
    7.6451   -1.0559   -0.0503 N   0  0  0  0  0  0  0  0  0  0  0  0
    7.5369   -1.0457    1.3942 C   0  0  0  0  0  0  0  0  0  0  0  0
    7.3491   -2.3990   -0.5045 C   0  0  0  0  0  0  0  0  0  0  0  0
   -0.1041    1.5456   -0.1040 N   0  0  0  0  0  0  0  0  0  0  0  0
    0.8817    2.3836   -0.2880 N   0  0  0  0  0  0  0  0  0  0  0  0
    0.5236    3.6594   -0.2748 C   0  0  0  0  0  0  0  0  0  0  0  0
   -2.9021    5.8867    1.4813 H   0  0  0  0  0  0  0  0  0  0  0  0
   -1.1490    6.1583    1.6837 H   0  0  0  0  0  0  0  0  0  0  0  0
   -1.8463    4.5810    2.2079 H   0  0  0  0  0  0  0  0  0  0  0  0
   -2.7615    4.4640   -0.2700 H   0  0  0  0  0  0  0  0  0  0  0  0
   -0.6945    6.7042   -0.4912 H   0  0  0  0  0  0  0  0  0  0  0  0
   -1.1615    5.6099   -1.9157 H   0  0  0  0  0  0  0  0  0  0  0  0
   -2.3742    6.5452   -1.0473 H   0  0  0  0  0  0  0  0  0  0  0  0
   -4.6669    0.8246    0.6270 H   0  0  0  0  0  0  0  0  0  0  0  0
   -5.6419   -1.1279    0.8941 H   0  0  0  0  0  0  0  0  0  0  0  0
   -5.2692   -1.9382   -1.2520 H   0  0  0  0  0  0  0  0  0  0  0  0
   -3.5112   -1.6687   -1.1523 H   0  0  0  0  0  0  0  0  0  0  0  0
   -4.3541   -4.1120   -1.2303 H   0  0  0  0  0  0  0  0  0  0  0  0
   -3.0656   -3.7548   -0.0737 H   0  0  0  0  0  0  0  0  0  0  0  0
   -4.7339   -5.0694    1.0151 H   0  0  0  0  0  0  0  0  0  0  0  0
   -6.4810   -5.1059   -0.2555 H   0  0  0  0  0  0  0  0  0  0  0  0
   -6.5341   -3.4748   -0.6228 H   0  0  0  0  0  0  0  0  0  0  0  0
   -4.7538   -3.7850    2.8646 H   0  0  0  0  0  0  0  0  0  0  0  0
   -6.0515   -2.7497    2.1775 H   0  0  0  0  0  0  0  0  0  0  0  0
   -3.9714   -1.5418    2.7575 H   0  0  0  0  0  0  0  0  0  0  0  0
   -3.0698   -2.5785    1.5848 H   0  0  0  0  0  0  0  0  0  0  0  0
   -1.6163   -1.3409    0.2133 H   0  0  0  0  0  0  0  0  0  0  0  0
    0.6386   -1.6897   -0.2923 H   0  0  0  0  0  0  0  0  0  0  0  0
    2.4570    0.8839    1.3508 H   0  0  0  0  0  0  0  0  0  0  0  0
    4.8377    1.2453    1.1054 H   0  0  0  0  0  0  0  0  0  0  0  0
    4.8592   -1.4108   -2.2476 H   0  0  0  0  0  0  0  0  0  0  0  0
    2.4471   -1.7321   -1.9685 H   0  0  0  0  0  0  0  0  0  0  0  0
    7.7183    0.0151    1.7260 H   0  0  0  0  0  0  0  0  0  0  0  0
    8.3364   -1.6699    1.8439 H   0  0  0  0  0  0  0  0  0  0  0  0
    6.5338   -1.3227    1.7311 H   0  0  0  0  0  0  0  0  0  0  0  0
    7.9688   -3.1085    0.0427 H   0  0  0  0  0  0  0  0  0  0  0  0
    7.5032   -2.4668   -1.6143 H   0  0  0  0  0  0  0  0  0  0  0  0
    6.2735   -2.6171   -0.3016 H   0  0  0  0  0  0  0  0  0  0  0  0
    1.1722    4.5141   -0.4065 H   0  0  0  0  0  0  0  0  0  0  0  0
  1  2  1  0
  2  3  1  0
  2  4  1  0
  4  5  2  0
  5  6  1  0
  6  7  2  0
  7  8  1  0
  8  9  1  0
  9 10  1  0
 10 11  1  0
 11 12  1  0
 12 13  1  0
 12 14  1  0
 14 15  1  0
  7 16  1  0
 16 17  2  0
 17 18  1  0
 18 19  1  0
 19 20  2  0
 20 21  1  0
 21 22  2  0
 22 23  1  0
 23 24  2  0
 22 25  1  0
 25 26  2  0
 25 27  2  0
 25 28  1  0
 28 29  1  0
 28 30  1  0
 17 31  1  0
 31 32  1  0
 32 33  2  0
 33  4  1  0
 31  5  1  0
 15  9  1  0
 24 19  1  0
  1 34  1  0
  1 35  1  0
  1 36  1  0
  2 37  1  0
  3 38  1  0
  3 39  1  0
  3 40  1  0
  8 41  1  0
  9 42  1  1
 10 43  1  0
 10 44  1  0
 11 45  1  0
 11 46  1  0
 12 47  1  1
 13 48  1  0
 13 49  1  0
 14 50  1  0
 14 51  1  0
 15 52  1  0
 15 53  1  0
 16 54  1  0
 18 55  1  0
 20 56  1  0
 21 57  1  0
 23 58  1  0
 24 59  1  0
 29 60  1  0
 29 61  1  0
 29 62  1  0
 30 63  1  0
 30 64  1  0
 30 65  1  0
 33 66  1  0
M  END
$$$$
