@<TRIPOS>MOLECULE
*****
 24 26 0 0 0
SMALL
GASTEIGER

@<TRIPOS>ATOM
      1 N          -1.4081   -2.2266    0.4984 N.ar    1  UNL1       -0.2764
      2 N          -0.0916   -2.0669    0.4951 N.ar    1  UNL1       -0.1727
      3 C           0.2319   -0.7764    0.1933 C.ar    1  UNL1        0.1003
      4 C          -0.9987   -0.1396    0.0073 C.ar    1  UNL1        0.0274
      5 C          -2.0075   -1.0595    0.2017 C.ar    1  UNL1        0.0663
      6 C          -3.3042   -0.5942    0.0552 C.ar    1  UNL1       -0.0363
      7 C          -3.6063    0.7155   -0.2679 C.ar    1  UNL1       -0.0597
      8 C          -2.5509    1.5980   -0.4521 C.ar    1  UNL1       -0.0610
      9 C          -1.2443    1.1770   -0.3159 C.ar    1  UNL1       -0.0505
     10 C           1.5978   -0.2636    0.1064 C.ar    1  UNL1        0.0055
     11 C           1.9578    0.5520   -0.9591 C.ar    1  UNL1       -0.0343
     12 C           3.2589    1.0153   -1.0033 C.ar    1  UNL1        0.0282
     13 N           4.1592    0.6980   -0.0565 N.ar    1  UNL1       -0.2632
     14 C           3.7895   -0.0982    0.9742 C.ar    1  UNL1        0.0282
     15 C           2.5144   -0.6003    1.0913 C.ar    1  UNL1       -0.0343
     16 H          -1.9375   -3.1129    0.6975 H       1  UNL1        0.1889
     17 H          -4.1135   -1.2998    0.2033 H       1  UNL1        0.0639
     18 H          -4.6249    1.0653   -0.3792 H       1  UNL1        0.0618
     19 H          -2.7482    2.6143   -0.7018 H       1  UNL1        0.0618
     20 H          -0.4566    1.8980   -0.4683 H       1  UNL1        0.0625
     21 H           1.2781    0.8368   -1.7432 H       1  UNL1        0.0639
     22 H           3.5883    1.6506   -1.8082 H       1  UNL1        0.0830
     23 H           4.5301   -0.3410    1.7252 H       1  UNL1        0.0830
     24 H           2.1865   -1.2419    1.9066 H       1  UNL1        0.0639
@<TRIPOS>BOND
     1     1     2   ar
     2     2     3   ar
     3     3     4   ar
     4     4     5   ar
     5     5     6   ar
     6     6     7   ar
     7     7     8   ar
     8     8     9   ar
     9     3    10    1
    10    10    11   ar
    11    11    12   ar
    12    12    13   ar
    13    13    14   ar
    14    14    15   ar
    15     5     1   ar
    16    15    10   ar
    17     9     4   ar
    18     1    16    1
    19     6    17    1
    20     7    18    1
    21     8    19    1
    22     9    20    1
    23    11    21    1
    24    12    22    1
    25    14    23    1
    26    15    24    1
