
     RDKit          3D

 47 50  0  0  0  0  0  0  0  0999 V2000
    1.0731   -1.3222    1.5467 O   0  0  0  0  0  0  0  0  0  0  0  0
    1.5392   -1.6859    0.4992 C   0  0  0  0  0  0  0  0  0  0  0  0
    0.6408   -2.5891   -0.3476 C   0  0  0  0  0  0  0  0  0  0  0  0
   -0.6601   -2.8211    0.3495 C   0  0  0  0  0  0  0  0  0  0  0  0
   -1.4275   -1.5630    0.6152 C   0  0  0  0  0  0  0  0  0  0  0  0
   -1.5570   -0.9036    1.7779 N   0  0  0  0  0  0  0  0  0  0  0  0
   -2.2929    0.1535    1.6630 O   0  0  0  0  0  0  0  0  0  0  0  0
   -2.6747    0.2285    0.4213 C   0  0  0  0  0  0  0  0  0  0  0  0
   -2.1706   -0.8158   -0.3015 C   0  0  0  0  0  0  0  0  0  0  0  0
   -2.4029   -1.0354   -1.7317 C   0  0  0  0  0  0  0  0  0  0  0  0
   -3.2613   -0.0477   -2.4082 C   0  0  0  0  0  0  0  0  0  0  0  0
   -3.7732    1.0658   -1.5867 C   0  0  0  0  0  0  0  0  0  0  0  0
   -4.5839    2.0447   -2.1885 C   0  0  0  0  0  0  0  0  0  0  0  0
   -5.0830    3.0863   -1.4733 C   0  0  0  0  0  0  0  0  0  0  0  0
   -5.8830    4.0353   -2.1093 O   0  0  0  0  0  0  0  0  0  0  0  0
   -4.7956    3.1981   -0.1248 C   0  0  0  0  0  0  0  0  0  0  0  0
   -4.0064    2.2652    0.5101 C   0  0  0  0  0  0  0  0  0  0  0  0
   -3.5177    1.2160   -0.2629 C   0  0  0  0  0  0  0  0  0  0  0  0
    2.7997   -1.3291    0.0607 N   0  0  0  0  0  0  0  0  0  0  0  0
    3.8611   -0.5688    0.5097 C   0  0  0  0  0  0  0  0  0  0  0  0
    4.1034    0.1394    1.5582 C   0  0  0  0  0  0  0  0  0  0  0  0
    3.3847    0.4715    2.7465 C   0  0  0  0  0  0  0  0  0  0  0  0
    4.0237    1.2461    3.5789 O   0  0  0  0  0  0  0  0  0  0  0  0
    2.1741    0.1403    3.1760 O   0  0  0  0  0  0  0  0  0  0  0  0
    5.5459    0.7301    1.4574 C   0  0  0  0  0  0  0  0  0  0  0  0
    6.1648   -0.4384    0.6775 C   0  0  0  0  0  0  0  0  0  0  0  0
    5.1239   -0.4705   -0.4179 C   0  0  0  0  0  0  0  0  0  0  0  0
    1.1685   -3.5547   -0.4319 H   0  0  0  0  0  0  0  0  0  0  0  0
    0.5122   -2.1673   -1.3588 H   0  0  0  0  0  0  0  0  0  0  0  0
   -1.3221   -3.4280   -0.3006 H   0  0  0  0  0  0  0  0  0  0  0  0
   -0.5545   -3.3978    1.2904 H   0  0  0  0  0  0  0  0  0  0  0  0
   -2.7670   -2.0983   -1.8942 H   0  0  0  0  0  0  0  0  0  0  0  0
   -1.3990   -1.0513   -2.2577 H   0  0  0  0  0  0  0  0  0  0  0  0
   -2.7451    0.3683   -3.3166 H   0  0  0  0  0  0  0  0  0  0  0  0
   -4.1777   -0.6079   -2.7788 H   0  0  0  0  0  0  0  0  0  0  0  0
   -4.7848    1.9209   -3.2441 H   0  0  0  0  0  0  0  0  0  0  0  0
   -6.8020    4.1875   -1.6921 H   0  0  0  0  0  0  0  0  0  0  0  0
   -5.1891    4.0238    0.4529 H   0  0  0  0  0  0  0  0  0  0  0  0
   -3.7664    2.3304    1.5659 H   0  0  0  0  0  0  0  0  0  0  0  0
    2.9983   -1.7924   -0.9317 H   0  0  0  0  0  0  0  0  0  0  0  0
    1.5345    0.6979    3.7633 H   0  0  0  0  0  0  0  0  0  0  0  0
    5.9622    0.8577    2.4407 H   0  0  0  0  0  0  0  0  0  0  0  0
    5.4539    1.6005    0.8132 H   0  0  0  0  0  0  0  0  0  0  0  0
    7.1487   -0.1417    0.3238 H   0  0  0  0  0  0  0  0  0  0  0  0
    6.1443   -1.3487    1.2928 H   0  0  0  0  0  0  0  0  0  0  0  0
    5.1739   -1.3394   -1.0560 H   0  0  0  0  0  0  0  0  0  0  0  0
    5.0667    0.5102   -0.8761 H   0  0  0  0  0  0  0  0  0  0  0  0
  1  2  2  0
  2  3  1  0
  3  4  1  0
  4  5  1  0
  5  6  2  0
  6  7  1  0
  7  8  1  0
  8  9  2  0
  9 10  1  0
 10 11  1  0
 11 12  1  0
 12 13  2  0
 13 14  1  0
 14 15  1  0
 14 16  2  0
 16 17  1  0
 17 18  2  0
  2 19  1  0
 19 20  1  0
 20 21  2  0
 21 22  1  0
 22 23  2  0
 22 24  1  0
 21 25  1  0
 25 26  1  0
 26 27  1  0
  9  5  1  0
 18 12  1  0
 27 20  1  0
 18  8  1  0
  3 28  1  0
  3 29  1  0
  4 30  1  0
  4 31  1  0
 10 32  1  0
 10 33  1  0
 11 34  1  0
 11 35  1  0
 13 36  1  0
 15 37  1  0
 16 38  1  0
 17 39  1  0
 19 40  1  0
 24 41  1  0
 25 42  1  0
 25 43  1  0
 26 44  1  0
 26 45  1  0
 27 46  1  0
 27 47  1  0
M  END
$$$$
