@<TRIPOS>MOLECULE
*****
 47 50 0 0 0
SMALL
GASTEIGER

@<TRIPOS>ATOM
      1 O           1.0731   -1.3222    1.5467 O.2     1  UNL1       -0.2755
      2 C           1.5392   -1.6859    0.4992 C.2     1  UNL1        0.2173
      3 C           0.6408   -2.5891   -0.3476 C.3     1  UNL1        0.0298
      4 C          -0.6601   -2.8211    0.3495 C.3     1  UNL1        0.0014
      5 C          -1.4275   -1.5630    0.6152 C.ar    1  UNL1        0.0878
      6 N          -1.5570   -0.9036    1.7779 N.ar    1  UNL1       -0.0824
      7 O          -2.2929    0.1535    1.6630 O.2     1  UNL1       -0.3541
      8 C          -2.6747    0.2285    0.4213 C.ar    1  UNL1        0.1709
      9 C          -2.1706   -0.8158   -0.3015 C.ar    1  UNL1        0.0228
     10 C          -2.4029   -1.0354   -1.7317 C.3     1  UNL1       -0.0183
     11 C          -3.2613   -0.0477   -2.4082 C.3     1  UNL1       -0.0227
     12 C          -3.7732    1.0658   -1.5867 C.ar    1  UNL1       -0.0329
     13 C          -4.5839    2.0447   -2.1885 C.ar    1  UNL1       -0.0163
     14 C          -5.0830    3.0863   -1.4733 C.ar    1  UNL1        0.1172
     15 O          -5.8830    4.0353   -2.1093 O.3     1  UNL1       -0.5068
     16 C          -4.7956    3.1981   -0.1248 C.ar    1  UNL1       -0.0195
     17 C          -4.0064    2.2652    0.5101 C.ar    1  UNL1       -0.0473
     18 C          -3.5177    1.2160   -0.2629 C.ar    1  UNL1        0.0236
     19 N           2.7997   -1.3291    0.0607 N.am    1  UNL1       -0.2886
     20 C           3.8611   -0.5688    0.5097 C.2     1  UNL1        0.0204
     21 C           4.1034    0.1394    1.5582 C.2     1  UNL1        0.0534
     22 C           3.3847    0.4715    2.7465 C.2     1  UNL1        0.3342
     23 O           4.0237    1.2461    3.5789 O.2     1  UNL1       -0.2454
     24 O           2.1741    0.1403    3.1760 O.3     1  UNL1       -0.4773
     25 C           5.5459    0.7301    1.4574 C.3     1  UNL1       -0.0191
     26 C           6.1648   -0.4384    0.6775 C.3     1  UNL1       -0.0436
     27 C           5.1239   -0.4705   -0.4179 C.3     1  UNL1       -0.0137
     28 H           1.1685   -3.5547   -0.4319 H       1  UNL1        0.0362
     29 H           0.5122   -2.1673   -1.3588 H       1  UNL1        0.0362
     30 H          -1.3221   -3.4280   -0.3006 H       1  UNL1        0.0334
     31 H          -0.5545   -3.3978    1.2904 H       1  UNL1        0.0334
     32 H          -2.7670   -2.0983   -1.8942 H       1  UNL1        0.0318
     33 H          -1.3990   -1.0513   -2.2577 H       1  UNL1        0.0318
     34 H          -2.7451    0.3683   -3.3166 H       1  UNL1        0.0317
     35 H          -4.1777   -0.6079   -2.7788 H       1  UNL1        0.0317
     36 H          -4.7848    1.9209   -3.2441 H       1  UNL1        0.0657
     37 H          -6.8020    4.1875   -1.6921 H       1  UNL1        0.2921
     38 H          -5.1891    4.0238    0.4529 H       1  UNL1        0.0654
     39 H          -3.7664    2.3304    1.5659 H       1  UNL1        0.0626
     40 H           2.9983   -1.7924   -0.9317 H       1  UNL1        0.1545
     41 H           1.5345    0.6979    3.7633 H       1  UNL1        0.2954
     42 H           5.9622    0.8577    2.4407 H       1  UNL1        0.0316
     43 H           5.4539    1.6005    0.8132 H       1  UNL1        0.0316
     44 H           7.1487   -0.1417    0.3238 H       1  UNL1        0.0272
     45 H           6.1443   -1.3487    1.2928 H       1  UNL1        0.0272
     46 H           5.1739   -1.3394   -1.0560 H       1  UNL1        0.0326
     47 H           5.0667    0.5102   -0.8761 H       1  UNL1        0.0326
@<TRIPOS>BOND
     1     1     2    2
     2     2     3    1
     3     3     4    1
     4     4     5    1
     5     5     6   ar
     6     6     7   ar
     7     7     8   ar
     8     8     9   ar
     9     9    10    1
    10    10    11    1
    11    11    12    1
    12    12    13   ar
    13    13    14   ar
    14    14    15    1
    15    14    16   ar
    16    16    17   ar
    17    17    18   ar
    18     2    19   am
    19    19    20    1
    20    20    21    2
    21    21    22    1
    22    22    23    2
    23    22    24    1
    24    21    25    1
    25    25    26    1
    26    26    27    1
    27     9     5   ar
    28    18    12   ar
    29    27    20    1
    30    18     8    1
    31     3    28    1
    32     3    29    1
    33     4    30    1
    34     4    31    1
    35    10    32    1
    36    10    33    1
    37    11    34    1
    38    11    35    1
    39    13    36    1
    40    15    37    1
    41    16    38    1
    42    17    39    1
    43    19    40    1
    44    24    41    1
    45    25    42    1
    46    25    43    1
    47    26    44    1
    48    26    45    1
    49    27    46    1
    50    27    47    1
