@<TRIPOS>MOLECULE
*****
 67 70 0 0 0
SMALL
GASTEIGER

@<TRIPOS>ATOM
      1 C          -2.7206   -0.6568    5.5116 C.3     1  UNL1        0.0332
      2 C          -2.2856   -1.0976    4.1726 C.2     1  UNL1        0.3042
      3 O          -1.9663   -2.2963    3.9974 O.2     1  UNL1       -0.2512
      4 O          -2.1881   -0.3190    3.0628 O.3     1  UNL1       -0.4611
      5 C          -1.7759   -0.7279    1.7862 C.3     1  UNL1        0.1094
      6 C          -0.4559   -0.0582    1.5353 C.3     1  UNL1       -0.0114
      7 C           0.0382   -0.1489    0.1435 C.3     1  UNL1       -0.0257
      8 C           1.3557    0.5258   -0.0250 C.3     1  UNL1       -0.0251
      9 C           1.4668    1.8632    0.6061 C.3     1  UNL1       -0.0590
     10 C           2.4013   -0.3744    0.6580 C.3     1  UNL1       -0.0447
     11 C           3.7952    0.1723    0.4734 C.3     1  UNL1       -0.0258
     12 C           4.1801    0.4604   -0.9233 C.3     1  UNL1        0.0606
     13 O           5.2126    1.4289   -0.8907 O.3     1  UNL1       -0.3912
     14 C           3.0948    0.9617   -1.8173 C.3     1  UNL1       -0.0056
     15 C           3.3936    0.3730   -3.2122 C.3     1  UNL1       -0.0572
     16 C           3.2135    2.4491   -1.9602 C.3     1  UNL1       -0.0572
     17 C           1.7278    0.4744   -1.4776 C.3     1  UNL1       -0.0278
     18 C           0.7149    1.1152   -2.3715 C.3     1  UNL1       -0.0486
     19 C          -0.5623    0.3108   -2.2585 C.3     1  UNL1       -0.0462
     20 C          -1.0339    0.2437   -0.8374 C.3     1  UNL1       -0.0161
     21 C          -1.6985    1.5593   -0.5299 C.3     1  UNL1       -0.0584
     22 C          -2.0842   -0.8283   -0.6499 C.3     1  UNL1        0.0404
     23 C          -1.5500   -2.2191   -0.7936 C.3     1  UNL1       -0.0519
     24 C          -3.2600   -0.7047   -1.5272 C.2     1  UNL1        0.1426
     25 O          -3.3732   -0.1707   -2.5883 O.2     1  UNL1       -0.2967
     26 C          -4.3536   -1.4137   -0.8017 C.3     1  UNL1        0.0328
     27 C          -3.8356   -1.6107    0.6329 C.3     1  UNL1        0.0690
     28 O          -3.4311   -2.9050    0.8606 O.3     1  UNL1       -0.3909
     29 C          -2.7549   -0.5908    0.7029 C.3     1  UNL1        0.0351
     30 H          -2.7377    0.4588    5.4988 H       1  UNL1        0.0342
     31 H          -2.0234   -1.0005    6.3084 H       1  UNL1        0.0342
     32 H          -3.7573   -0.9890    5.6613 H       1  UNL1        0.0342
     33 H          -1.5545   -1.8285    1.9132 H       1  UNL1        0.0738
     34 H          -0.5426    0.9824    1.9222 H       1  UNL1        0.0304
     35 H           0.2710   -0.5521    2.2469 H       1  UNL1        0.0304
     36 H           0.2321   -1.2484   -0.0547 H       1  UNL1        0.0313
     37 H           1.3495    1.7091    1.7192 H       1  UNL1        0.0235
     38 H           2.4840    2.2491    0.4790 H       1  UNL1        0.0235
     39 H           0.7662    2.6234    0.2792 H       1  UNL1        0.0235
     40 H           2.3299   -1.3478    0.1007 H       1  UNL1        0.0271
     41 H           2.2324   -0.4741    1.7284 H       1  UNL1        0.0271
     42 H           3.9520    1.0290    1.1863 H       1  UNL1        0.0290
     43 H           4.4763   -0.6315    0.8860 H       1  UNL1        0.0290
     44 H           4.6885   -0.4559   -1.3477 H       1  UNL1        0.0599
     45 H           6.0456    1.0429   -0.5308 H       1  UNL1        0.2098
     46 H           4.4939    0.2347   -3.3315 H       1  UNL1        0.0236
     47 H           2.9494   -0.6416   -3.2840 H       1  UNL1        0.0236
     48 H           3.0635    1.0528   -4.0035 H       1  UNL1        0.0236
     49 H           3.5767    2.7673   -2.9820 H       1  UNL1        0.0236
     50 H           3.9978    2.8787   -1.2693 H       1  UNL1        0.0236
     51 H           2.2993    3.0109   -1.7851 H       1  UNL1        0.0236
     52 H           1.7153   -0.6273   -1.7488 H       1  UNL1        0.0312
     53 H           1.1008    1.0609   -3.4097 H       1  UNL1        0.0268
     54 H           0.4880    2.1555   -2.1592 H       1  UNL1        0.0268
     55 H          -0.4648   -0.6425   -2.7675 H       1  UNL1        0.0271
     56 H          -1.3275    0.9137   -2.8312 H       1  UNL1        0.0271
     57 H          -1.7587    1.8183    0.5206 H       1  UNL1        0.0235
     58 H          -2.7147    1.5094   -1.0264 H       1  UNL1        0.0235
     59 H          -1.2075    2.4233   -1.0619 H       1  UNL1        0.0235
     60 H          -0.7384   -2.2472   -1.5416 H       1  UNL1        0.0239
     61 H          -1.1911   -2.6951    0.1111 H       1  UNL1        0.0239
     62 H          -2.3460   -2.9052   -1.2094 H       1  UNL1        0.0239
     63 H          -5.2668   -0.7697   -0.8035 H       1  UNL1        0.0367
     64 H          -4.5542   -2.4129   -1.2405 H       1  UNL1        0.0367
     65 H          -4.7023   -1.4042    1.2850 H       1  UNL1        0.0602
     66 H          -3.6620   -3.2690    1.7385 H       1  UNL1        0.2098
     67 H          -3.2274    0.4065    0.6055 H       1  UNL1        0.0371
@<TRIPOS>BOND
     1     1     2    1
     2     2     3    2
     3     2     4    1
     4     4     5    1
     5     5     6    1
     6     6     7    1
     7     7     8    1
     8     8     9    1
     9     8    10    1
    10    10    11    1
    11    11    12    1
    12    12    13    1
    13    12    14    1
    14    14    15    1
    15    14    16    1
    16    14    17    1
    17    17    18    1
    18    18    19    1
    19    19    20    1
    20    20    21    1
    21    20    22    1
    22    22    23    1
    23    22    24    1
    24    24    25    2
    25    24    26    1
    26    26    27    1
    27    27    28    1
    28    27    29    1
    29    29     5    1
    30    20     7    1
    31    29    22    1
    32    17     8    1
    33     1    30    1
    34     1    31    1
    35     1    32    1
    36     5    33    1
    37     6    34    1
    38     6    35    1
    39     7    36    1
    40     9    37    1
    41     9    38    1
    42     9    39    1
    43    10    40    1
    44    10    41    1
    45    11    42    1
    46    11    43    1
    47    12    44    1
    48    13    45    1
    49    15    46    1
    50    15    47    1
    51    15    48    1
    52    16    49    1
    53    16    50    1
    54    16    51    1
    55    17    52    1
    56    18    53    1
    57    18    54    1
    58    19    55    1
    59    19    56    1
    60    21    57    1
    61    21    58    1
    62    21    59    1
    63    23    60    1
    64    23    61    1
    65    23    62    1
    66    26    63    1
    67    26    64    1
    68    27    65    1
    69    28    66    1
    70    29    67    1
