
     RDKit          3D

 67 70  0  0  0  0  0  0  0  0999 V2000
   -2.7206   -0.6568    5.5116 C   0  0  0  0  0  0  0  0  0  0  0  0
   -2.2856   -1.0976    4.1726 C   0  0  0  0  0  0  0  0  0  0  0  0
   -1.9663   -2.2963    3.9974 O   0  0  0  0  0  0  0  0  0  0  0  0
   -2.1881   -0.3190    3.0628 O   0  0  0  0  0  0  0  0  0  0  0  0
   -1.7759   -0.7279    1.7862 C   0  0  2  0  0  0  0  0  0  0  0  0
   -0.4559   -0.0582    1.5353 C   0  0  0  0  0  0  0  0  0  0  0  0
    0.0382   -0.1489    0.1435 C   0  0  2  0  0  0  0  0  0  0  0  0
    1.3557    0.5258   -0.0250 C   0  0  1  0  0  0  0  0  0  0  0  0
    1.4668    1.8632    0.6061 C   0  0  0  0  0  0  0  0  0  0  0  0
    2.4013   -0.3744    0.6580 C   0  0  0  0  0  0  0  0  0  0  0  0
    3.7952    0.1723    0.4734 C   0  0  0  0  0  0  0  0  0  0  0  0
    4.1801    0.4604   -0.9233 C   0  0  2  0  0  0  0  0  0  0  0  0
    5.2126    1.4289   -0.8907 O   0  0  0  0  0  0  0  0  0  0  0  0
    3.0948    0.9617   -1.8173 C   0  0  0  0  0  0  0  0  0  0  0  0
    3.3936    0.3730   -3.2122 C   0  0  0  0  0  0  0  0  0  0  0  0
    3.2135    2.4491   -1.9602 C   0  0  0  0  0  0  0  0  0  0  0  0
    1.7278    0.4744   -1.4776 C   0  0  2  0  0  0  0  0  0  0  0  0
    0.7149    1.1152   -2.3715 C   0  0  0  0  0  0  0  0  0  0  0  0
   -0.5623    0.3108   -2.2585 C   0  0  0  0  0  0  0  0  0  0  0  0
   -1.0339    0.2437   -0.8374 C   0  0  2  0  0  0  0  0  0  0  0  0
   -1.6985    1.5593   -0.5299 C   0  0  0  0  0  0  0  0  0  0  0  0
   -2.0842   -0.8283   -0.6499 C   0  0  2  0  0  0  0  0  0  0  0  0
   -1.5500   -2.2191   -0.7936 C   0  0  0  0  0  0  0  0  0  0  0  0
   -3.2600   -0.7047   -1.5272 C   0  0  0  0  0  0  0  0  0  0  0  0
   -3.3732   -0.1707   -2.5883 O   0  0  0  0  0  0  0  0  0  0  0  0
   -4.3536   -1.4137   -0.8017 C   0  0  0  0  0  0  0  0  0  0  0  0
   -3.8356   -1.6107    0.6329 C   0  0  1  0  0  0  0  0  0  0  0  0
   -3.4311   -2.9050    0.8606 O   0  0  0  0  0  0  0  0  0  0  0  0
   -2.7549   -0.5908    0.7029 C   0  0  1  0  0  0  0  0  0  0  0  0
   -2.7377    0.4588    5.4988 H   0  0  0  0  0  0  0  0  0  0  0  0
   -2.0234   -1.0005    6.3084 H   0  0  0  0  0  0  0  0  0  0  0  0
   -3.7573   -0.9890    5.6613 H   0  0  0  0  0  0  0  0  0  0  0  0
   -1.5545   -1.8285    1.9132 H   0  0  0  0  0  0  0  0  0  0  0  0
   -0.5426    0.9824    1.9222 H   0  0  0  0  0  0  0  0  0  0  0  0
    0.2710   -0.5521    2.2469 H   0  0  0  0  0  0  0  0  0  0  0  0
    0.2321   -1.2484   -0.0547 H   0  0  0  0  0  0  0  0  0  0  0  0
    1.3495    1.7091    1.7192 H   0  0  0  0  0  0  0  0  0  0  0  0
    2.4840    2.2491    0.4790 H   0  0  0  0  0  0  0  0  0  0  0  0
    0.7662    2.6234    0.2792 H   0  0  0  0  0  0  0  0  0  0  0  0
    2.3299   -1.3478    0.1007 H   0  0  0  0  0  0  0  0  0  0  0  0
    2.2324   -0.4741    1.7284 H   0  0  0  0  0  0  0  0  0  0  0  0
    3.9520    1.0290    1.1863 H   0  0  0  0  0  0  0  0  0  0  0  0
    4.4763   -0.6315    0.8860 H   0  0  0  0  0  0  0  0  0  0  0  0
    4.6885   -0.4559   -1.3477 H   0  0  0  0  0  0  0  0  0  0  0  0
    6.0456    1.0429   -0.5308 H   0  0  0  0  0  0  0  0  0  0  0  0
    4.4939    0.2347   -3.3315 H   0  0  0  0  0  0  0  0  0  0  0  0
    2.9494   -0.6416   -3.2840 H   0  0  0  0  0  0  0  0  0  0  0  0
    3.0635    1.0528   -4.0035 H   0  0  0  0  0  0  0  0  0  0  0  0
    3.5767    2.7673   -2.9820 H   0  0  0  0  0  0  0  0  0  0  0  0
    3.9978    2.8787   -1.2693 H   0  0  0  0  0  0  0  0  0  0  0  0
    2.2993    3.0109   -1.7851 H   0  0  0  0  0  0  0  0  0  0  0  0
    1.7153   -0.6273   -1.7488 H   0  0  0  0  0  0  0  0  0  0  0  0
    1.1008    1.0609   -3.4097 H   0  0  0  0  0  0  0  0  0  0  0  0
    0.4880    2.1555   -2.1592 H   0  0  0  0  0  0  0  0  0  0  0  0
   -0.4648   -0.6425   -2.7675 H   0  0  0  0  0  0  0  0  0  0  0  0
   -1.3275    0.9137   -2.8312 H   0  0  0  0  0  0  0  0  0  0  0  0
   -1.7587    1.8183    0.5206 H   0  0  0  0  0  0  0  0  0  0  0  0
   -2.7147    1.5094   -1.0264 H   0  0  0  0  0  0  0  0  0  0  0  0
   -1.2075    2.4233   -1.0619 H   0  0  0  0  0  0  0  0  0  0  0  0
   -0.7384   -2.2472   -1.5416 H   0  0  0  0  0  0  0  0  0  0  0  0
   -1.1911   -2.6951    0.1111 H   0  0  0  0  0  0  0  0  0  0  0  0
   -2.3460   -2.9052   -1.2094 H   0  0  0  0  0  0  0  0  0  0  0  0
   -5.2668   -0.7697   -0.8035 H   0  0  0  0  0  0  0  0  0  0  0  0
   -4.5542   -2.4129   -1.2405 H   0  0  0  0  0  0  0  0  0  0  0  0
   -4.7023   -1.4042    1.2850 H   0  0  0  0  0  0  0  0  0  0  0  0
   -3.6620   -3.2690    1.7385 H   0  0  0  0  0  0  0  0  0  0  0  0
   -3.2274    0.4065    0.6055 H   0  0  0  0  0  0  0  0  0  0  0  0
  1  2  1  0
  2  3  2  0
  2  4  1  0
  4  5  1  0
  5  6  1  0
  6  7  1  0
  7  8  1  0
  8  9  1  1
  8 10  1  0
 10 11  1  0
 11 12  1  0
 12 13  1  0
 12 14  1  0
 14 15  1  0
 14 16  1  0
 14 17  1  0
 17 18  1  0
 18 19  1  0
 19 20  1  0
 20 21  1  1
 20 22  1  0
 22 23  1  1
 22 24  1  0
 24 25  2  0
 24 26  1  0
 26 27  1  0
 27 28  1  0
 27 29  1  0
 29  5  1  0
 20  7  1  0
 29 22  1  0
 17  8  1  0
  1 30  1  0
  1 31  1  0
  1 32  1  0
  5 33  1  1
  6 34  1  0
  6 35  1  0
  7 36  1  6
  9 37  1  0
  9 38  1  0
  9 39  1  0
 10 40  1  0
 10 41  1  0
 11 42  1  0
 11 43  1  0
 12 44  1  6
 13 45  1  0
 15 46  1  0
 15 47  1  0
 15 48  1  0
 16 49  1  0
 16 50  1  0
 16 51  1  0
 17 52  1  6
 18 53  1  0
 18 54  1  0
 19 55  1  0
 19 56  1  0
 21 57  1  0
 21 58  1  0
 21 59  1  0
 23 60  1  0
 23 61  1  0
 23 62  1  0
 26 63  1  0
 26 64  1  0
 27 65  1  1
 28 66  1  0
 29 67  1  6
M  END
$$$$
