@<TRIPOS>MOLECULE
*****
 39 42 0 0 0
SMALL
GASTEIGER

@<TRIPOS>ATOM
      1 N          -2.1454    3.4744    0.7025 N.pl3   1  UNL1       -0.3380
      2 C          -1.6576    2.1413    0.6920 C.2     1  UNL1        0.1476
      3 N          -1.0984    1.5508   -0.2662 N.2     1  UNL1       -0.2495
      4 C          -0.6282    0.1904   -0.2124 C.3     1  UNL1        0.1185
      5 C          -1.8765   -0.6885   -0.1922 C.ar    1  UNL1        0.0178
      6 C          -2.0786   -1.5890    0.7869 C.ar    1  UNL1       -0.0507
      7 C          -3.2168   -2.4193    0.7594 C.ar    1  UNL1       -0.0259
      8 C          -4.1029   -2.2904   -0.2768 C.ar    1  UNL1        0.1261
      9 F          -5.2003   -3.1132   -0.2747 F       1  UNL1       -0.2054
     10 C          -3.8974   -1.3727   -1.2764 C.ar    1  UNL1        0.0091
     11 C          -2.7737   -0.5489   -1.2532 C.ar    1  UNL1        0.1317
     12 F          -2.6159    0.3430   -2.2427 F       1  UNL1       -0.2050
     13 C           0.0026   -0.1112   -1.5439 C.3     1  UNL1        0.0783
     14 O           1.3480    0.0160   -1.6590 O.3     1  UNL1       -0.3645
     15 C           2.1238   -0.3841   -0.6097 C.3     1  UNL1        0.1347
     16 C           3.5434   -0.0940   -0.9371 C.ar    1  UNL1        0.2243
     17 N           4.5972   -0.8989   -0.7611 N.ar    1  UNL1       -0.2196
     18 C           5.7074   -0.2749   -1.1802 C.ar    1  UNL1        0.0660
     19 C           5.2825    0.9626   -1.6262 C.ar    1  UNL1        0.1122
     20 O           3.9961    1.0295   -1.4650 O.2     1  UNL1       -0.4452
     21 C           1.6705    0.4635    0.5879 C.3     1  UNL1       -0.0117
     22 C           0.2781   -0.1155    0.9261 C.3     1  UNL1        0.0029
     23 C          -0.1399    0.3192    2.2812 C.3     1  UNL1        0.0064
     24 S          -1.7884    1.1480    2.2206 S.3     1  UNL1       -0.0907
     25 H          -1.5133    4.2816    0.4719 H       1  UNL1        0.1442
     26 H          -3.1400    3.6625    0.9405 H       1  UNL1        0.1442
     27 H          -1.3837   -1.7128    1.5898 H       1  UNL1        0.0623
     28 H          -3.3418   -3.1317    1.5696 H       1  UNL1        0.0646
     29 H          -4.5778   -1.2711   -2.0763 H       1  UNL1        0.0675
     30 H          -0.3850   -1.0909   -1.9279 H       1  UNL1        0.0588
     31 H          -0.4343    0.6319   -2.2828 H       1  UNL1        0.0588
     32 H           2.0212   -1.4355   -0.3148 H       1  UNL1        0.0694
     33 H           6.7371   -0.5997   -1.1979 H       1  UNL1        0.0862
     34 H           5.9321    1.7362   -2.0393 H       1  UNL1        0.1046
     35 H           1.5337    1.5045    0.2927 H       1  UNL1        0.0299
     36 H           2.3600    0.3259    1.4448 H       1  UNL1        0.0299
     37 H           0.4581   -1.2222    0.9178 H       1  UNL1        0.0337
     38 H          -0.2028   -0.4727    3.0190 H       1  UNL1        0.0384
     39 H           0.6071    1.0559    2.7129 H       1  UNL1        0.0384
@<TRIPOS>BOND
     1     1     2    1
     2     2     3    2
     3     3     4    1
     4     4     5    1
     5     5     6   ar
     6     6     7   ar
     7     7     8   ar
     8     8     9    1
     9     8    10   ar
    10    10    11   ar
    11    11    12    1
    12     4    13    1
    13    13    14    1
    14    14    15    1
    15    15    16    1
    16    16    17   ar
    17    17    18   ar
    18    18    19   ar
    19    19    20   ar
    20    15    21    1
    21    21    22    1
    22    22    23    1
    23    23    24    1
    24    24     2    1
    25    22     4    1
    26    11     5   ar
    27    20    16   ar
    28     1    25    1
    29     1    26    1
    30     6    27    1
    31     7    28    1
    32    10    29    1
    33    13    30    1
    34    13    31    1
    35    15    32    1
    36    18    33    1
    37    19    34    1
    38    21    35    1
    39    21    36    1
    40    22    37    1
    41    23    38    1
    42    23    39    1
