
     RDKit          3D

 39 42  0  0  0  0  0  0  0  0999 V2000
   -2.1454    3.4744    0.7025 N   0  0  0  0  0  0  0  0  0  0  0  0
   -1.6576    2.1413    0.6920 C   0  0  0  0  0  0  0  0  0  0  0  0
   -1.0984    1.5508   -0.2662 N   0  0  0  0  0  0  0  0  0  0  0  0
   -0.6282    0.1904   -0.2124 C   0  0  1  0  0  0  0  0  0  0  0  0
   -1.8765   -0.6885   -0.1922 C   0  0  0  0  0  0  0  0  0  0  0  0
   -2.0786   -1.5890    0.7869 C   0  0  0  0  0  0  0  0  0  0  0  0
   -3.2168   -2.4193    0.7594 C   0  0  0  0  0  0  0  0  0  0  0  0
   -4.1029   -2.2904   -0.2768 C   0  0  0  0  0  0  0  0  0  0  0  0
   -5.2003   -3.1132   -0.2747 F   0  0  0  0  0  0  0  0  0  0  0  0
   -3.8974   -1.3727   -1.2764 C   0  0  0  0  0  0  0  0  0  0  0  0
   -2.7737   -0.5489   -1.2532 C   0  0  0  0  0  0  0  0  0  0  0  0
   -2.6159    0.3430   -2.2427 F   0  0  0  0  0  0  0  0  0  0  0  0
    0.0026   -0.1112   -1.5439 C   0  0  0  0  0  0  0  0  0  0  0  0
    1.3480    0.0160   -1.6590 O   0  0  0  0  0  0  0  0  0  0  0  0
    2.1238   -0.3841   -0.6097 C   0  0  1  0  0  0  0  0  0  0  0  0
    3.5434   -0.0940   -0.9371 C   0  0  0  0  0  0  0  0  0  0  0  0
    4.5972   -0.8989   -0.7611 N   0  0  0  0  0  0  0  0  0  0  0  0
    5.7074   -0.2749   -1.1802 C   0  0  0  0  0  0  0  0  0  0  0  0
    5.2825    0.9626   -1.6262 C   0  0  0  0  0  0  0  0  0  0  0  0
    3.9961    1.0295   -1.4650 O   0  0  0  0  0  0  0  0  0  0  0  0
    1.6705    0.4635    0.5879 C   0  0  0  0  0  0  0  0  0  0  0  0
    0.2781   -0.1155    0.9261 C   0  0  1  0  0  0  0  0  0  0  0  0
   -0.1399    0.3192    2.2812 C   0  0  0  0  0  0  0  0  0  0  0  0
   -1.7884    1.1480    2.2206 S   0  0  0  0  0  0  0  0  0  0  0  0
   -1.5133    4.2816    0.4719 H   0  0  0  0  0  0  0  0  0  0  0  0
   -3.1400    3.6625    0.9405 H   0  0  0  0  0  0  0  0  0  0  0  0
   -1.3837   -1.7128    1.5898 H   0  0  0  0  0  0  0  0  0  0  0  0
   -3.3418   -3.1317    1.5696 H   0  0  0  0  0  0  0  0  0  0  0  0
   -4.5778   -1.2711   -2.0763 H   0  0  0  0  0  0  0  0  0  0  0  0
   -0.3850   -1.0909   -1.9279 H   0  0  0  0  0  0  0  0  0  0  0  0
   -0.4343    0.6319   -2.2828 H   0  0  0  0  0  0  0  0  0  0  0  0
    2.0212   -1.4355   -0.3148 H   0  0  0  0  0  0  0  0  0  0  0  0
    6.7371   -0.5997   -1.1979 H   0  0  0  0  0  0  0  0  0  0  0  0
    5.9321    1.7362   -2.0393 H   0  0  0  0  0  0  0  0  0  0  0  0
    1.5337    1.5045    0.2927 H   0  0  0  0  0  0  0  0  0  0  0  0
    2.3600    0.3259    1.4448 H   0  0  0  0  0  0  0  0  0  0  0  0
    0.4581   -1.2222    0.9178 H   0  0  0  0  0  0  0  0  0  0  0  0
   -0.2028   -0.4727    3.0190 H   0  0  0  0  0  0  0  0  0  0  0  0
    0.6071    1.0559    2.7129 H   0  0  0  0  0  0  0  0  0  0  0  0
  1  2  1  0
  2  3  2  0
  3  4  1  0
  4  5  1  1
  5  6  2  0
  6  7  1  0
  7  8  2  0
  8  9  1  0
  8 10  1  0
 10 11  2  0
 11 12  1  0
  4 13  1  0
 13 14  1  0
 14 15  1  0
 15 16  1  0
 16 17  2  0
 17 18  1  0
 18 19  2  0
 19 20  1  0
 15 21  1  0
 21 22  1  0
 22 23  1  0
 23 24  1  0
 24  2  1  0
 22  4  1  0
 11  5  1  0
 20 16  1  0
  1 25  1  0
  1 26  1  0
  6 27  1  0
  7 28  1  0
 10 29  1  0
 13 30  1  0
 13 31  1  0
 15 32  1  1
 18 33  1  0
 19 34  1  0
 21 35  1  0
 21 36  1  0
 22 37  1  1
 23 38  1  0
 23 39  1  0
M  END
$$$$
