@<TRIPOS>MOLECULE
*****
 42 45 0 0 0
SMALL
GASTEIGER

@<TRIPOS>ATOM
      1 O          -4.6557    4.0115    0.6873 O.3     1  UNL1       -0.4770
      2 C          -4.6652    2.7487    0.0674 C.2     1  UNL1        0.3420
      3 O          -5.8083    2.4343   -0.3535 O.2     1  UNL1       -0.2449
      4 C          -3.3931    2.0246    0.0107 C.ar    1  UNL1        0.1220
      5 C          -3.3534    0.7798   -0.5887 C.ar    1  UNL1        0.0231
      6 N          -2.2444   -0.0067   -0.7141 N.ar    1  UNL1       -0.3425
      7 C          -2.3051   -1.2929   -1.3573 C.3     1  UNL1        0.0347
      8 C          -3.5846   -2.0878   -1.1702 C.3     1  UNL1       -0.0302
      9 C          -2.3527   -2.4804   -0.3913 C.3     1  UNL1       -0.0302
     10 C          -1.1172    0.4958   -0.2048 C.ar    1  UNL1        0.0549
     11 C           0.0529   -0.1960   -0.2696 C.ar    1  UNL1       -0.0136
     12 C           1.2280    0.3072    0.2511 C.ar    1  UNL1        0.0674
     13 N           2.4432   -0.4288    0.1753 N.pl3   1  UNL1       -0.3252
     14 C           3.5200    0.2176   -0.5430 C.3     1  UNL1        0.0248
     15 C           4.8698   -0.2413   -0.0967 C.3     1  UNL1        0.0117
     16 N           4.8810   -1.6593    0.0466 N.3     1  UNL1       -0.3130
     17 C           3.9628   -2.1527    1.0438 C.3     1  UNL1        0.0117
     18 C           2.5407   -1.7265    0.7902 C.3     1  UNL1        0.0248
     19 C           1.2688    1.5487    0.8678 C.ar    1  UNL1        0.1451
     20 F           2.3625    2.1184    1.4020 F       1  UNL1       -0.2035
     21 C           0.0747    2.2368    0.9251 C.ar    1  UNL1       -0.0118
     22 C          -1.1070    1.7173    0.3948 C.ar    1  UNL1        0.0488
     23 C          -2.2290    2.5085    0.5195 C.ar    1  UNL1        0.2034
     24 O          -2.2477    3.6392    1.0680 O.2     1  UNL1       -0.2863
     25 H          -5.4804    4.3220    1.2106 H       1  UNL1        0.2954
     26 H          -4.2779    0.3885   -0.9962 H       1  UNL1        0.0819
     27 H          -1.8446   -1.4457   -2.3366 H       1  UNL1        0.0528
     28 H          -4.4489   -1.6435   -0.6676 H       1  UNL1        0.0286
     29 H          -3.8568   -2.8597   -1.9365 H       1  UNL1        0.0286
     30 H          -1.7868   -3.3727   -0.6576 H       1  UNL1        0.0286
     31 H          -2.3850   -2.2556    0.6983 H       1  UNL1        0.0286
     32 H           0.0762   -1.1639   -0.7375 H       1  UNL1        0.0658
     33 H           3.4929    1.3332   -0.4344 H       1  UNL1        0.0476
     34 H           3.3824    0.0639   -1.6494 H       1  UNL1        0.0476
     35 H           5.5775   -0.0148   -0.9470 H       1  UNL1        0.0439
     36 H           5.2063    0.3275    0.7825 H       1  UNL1        0.0439
     37 H           5.7872   -2.1058    0.2217 H       1  UNL1        0.1220
     38 H           4.3384   -1.8917    2.0561 H       1  UNL1        0.0439
     39 H           3.9845   -3.2683    0.9833 H       1  UNL1        0.0439
     40 H           1.9873   -2.5078    0.2090 H       1  UNL1        0.0476
     41 H           2.0402   -1.6475    1.7819 H       1  UNL1        0.0476
     42 H           0.0668    3.2263    1.4071 H       1  UNL1        0.0654
@<TRIPOS>BOND
     1     1     2    1
     2     2     3    2
     3     2     4    1
     4     4     5   ar
     5     5     6   ar
     6     6     7    1
     7     7     8    1
     8     8     9    1
     9     6    10   ar
    10    10    11   ar
    11    11    12   ar
    12    12    13    1
    13    13    14    1
    14    14    15    1
    15    15    16    1
    16    16    17    1
    17    17    18    1
    18    12    19   ar
    19    19    20    1
    20    19    21   ar
    21    21    22   ar
    22    22    23   ar
    23    23    24    2
    24    23     4   ar
    25     9     7    1
    26    22    10   ar
    27    18    13    1
    28     1    25    1
    29     5    26    1
    30     7    27    1
    31     8    28    1
    32     8    29    1
    33     9    30    1
    34     9    31    1
    35    11    32    1
    36    14    33    1
    37    14    34    1
    38    15    35    1
    39    15    36    1
    40    16    37    1
    41    17    38    1
    42    17    39    1
    43    18    40    1
    44    18    41    1
    45    21    42    1
