
     RDKit          3D

 77 79  0  0  0  0  0  0  0  0999 V2000
    4.2441    4.4421    0.7785 C   0  0  0  0  0  0  0  0  0  0  0  0
    3.5492    3.1395    0.3476 C   0  0  0  0  0  0  0  0  0  0  0  0
    4.5988    2.3125   -0.3161 C   0  0  0  0  0  0  0  0  0  0  0  0
    4.0272    1.0140   -0.8049 C   0  0  0  0  0  0  0  0  0  0  0  0
    3.4578    0.1727    0.3160 C   0  0  0  0  0  0  0  0  0  0  0  0
    2.9456   -1.0356   -0.2438 N   0  0  0  0  0  0  0  0  0  0  0  0
    3.9324   -2.1140   -0.3681 C   0  0  0  0  0  0  0  0  0  0  0  0
    3.9546   -2.9708    0.8773 C   0  0  0  0  0  0  0  0  0  0  0  0
    4.9553   -4.0754    0.7886 C   0  0  0  0  0  0  0  0  0  0  0  0
    6.3679   -3.5771    0.5978 C   0  0  0  0  0  0  0  0  0  0  0  0
    6.8242   -2.6943    1.7256 C   0  0  0  0  0  0  0  0  0  0  0  0
    1.6459   -1.2467   -0.6614 C   0  0  0  0  0  0  0  0  0  0  0  0
    1.4804   -2.4707   -1.1721 O   0  0  0  0  0  0  0  0  0  0  0  0
    0.5018   -0.4554   -0.6534 N   0  0  0  0  0  0  0  0  0  0  0  0
    0.4354    0.8763   -0.1534 C   0  0  0  0  0  0  0  0  0  0  0  0
   -0.8694    1.5478   -0.5393 C   0  0  0  0  0  0  0  0  0  0  0  0
   -2.0667    0.7471   -0.2665 N   0  0  0  0  0  0  0  0  0  0  0  0
   -3.2572    1.4273    0.0870 C   0  0  0  0  0  0  0  0  0  0  0  0
   -3.1455    2.7135    0.1278 O   0  0  0  0  0  0  0  0  0  0  0  0
   -4.4806    0.8981    0.3862 N   0  0  0  0  0  0  0  0  0  0  0  0
   -5.5701    1.8136    0.7546 C   0  0  0  0  0  0  0  0  0  0  0  0
   -6.3942    2.3246   -0.2199 C   0  0  0  0  0  0  0  0  0  0  0  0
   -7.4300    3.1886    0.1163 C   0  0  0  0  0  0  0  0  0  0  0  0
   -7.6494    3.5503    1.4473 C   0  0  0  0  0  0  0  0  0  0  0  0
   -6.8209    3.0358    2.4199 C   0  0  0  0  0  0  0  0  0  0  0  0
   -5.7875    2.1707    2.0616 C   0  0  0  0  0  0  0  0  0  0  0  0
   -4.8333   -0.4610    0.3533 C   0  0  0  0  0  0  0  0  0  0  0  0
   -4.5700   -1.3004    1.4009 C   0  0  0  0  0  0  0  0  0  0  0  0
   -4.9823   -2.6073    1.3447 C   0  0  0  0  0  0  0  0  0  0  0  0
   -5.6673   -3.1130    0.2429 C   0  0  0  0  0  0  0  0  0  0  0  0
   -5.9409   -2.2742   -0.8266 C   0  0  0  0  0  0  0  0  0  0  0  0
   -5.5160   -0.9651   -0.7449 C   0  0  0  0  0  0  0  0  0  0  0  0
   -1.9214   -0.6810   -0.3756 C   0  0  0  0  0  0  0  0  0  0  0  0
   -0.7350   -1.0621   -1.1982 C   0  0  1  0  0  0  0  0  0  0  0  0
   -0.8273   -0.7025   -2.6115 C   0  0  0  0  0  0  0  0  0  0  0  0
   -1.8311   -1.0211   -3.3179 O   0  0  0  0  0  0  0  0  0  0  0  0
    0.1583    0.0092   -3.2979 O   0  0  0  0  0  0  0  0  0  0  0  0
    4.7393    4.8390   -0.1214 H   0  0  0  0  0  0  0  0  0  0  0  0
    3.4634    5.1403    1.1131 H   0  0  0  0  0  0  0  0  0  0  0  0
    4.9711    4.1610    1.5426 H   0  0  0  0  0  0  0  0  0  0  0  0
    3.1210    2.6371    1.2232 H   0  0  0  0  0  0  0  0  0  0  0  0
    2.7425    3.3509   -0.3619 H   0  0  0  0  0  0  0  0  0  0  0  0
    5.4643    2.0914    0.3514 H   0  0  0  0  0  0  0  0  0  0  0  0
    4.9778    2.8436   -1.2352 H   0  0  0  0  0  0  0  0  0  0  0  0
    3.3022    1.1714   -1.6289 H   0  0  0  0  0  0  0  0  0  0  0  0
    4.8816    0.4780   -1.3023 H   0  0  0  0  0  0  0  0  0  0  0  0
    2.7664    0.7399    0.9195 H   0  0  0  0  0  0  0  0  0  0  0  0
    4.3413   -0.0854    1.0002 H   0  0  0  0  0  0  0  0  0  0  0  0
    3.6076   -2.7414   -1.2192 H   0  0  0  0  0  0  0  0  0  0  0  0
    4.9434   -1.6982   -0.5735 H   0  0  0  0  0  0  0  0  0  0  0  0
    2.9636   -3.4291    1.0332 H   0  0  0  0  0  0  0  0  0  0  0  0
    4.1801   -2.3676    1.7781 H   0  0  0  0  0  0  0  0  0  0  0  0
    4.9405   -4.7067    1.6799 H   0  0  0  0  0  0  0  0  0  0  0  0
    4.7361   -4.7188   -0.1006 H   0  0  0  0  0  0  0  0  0  0  0  0
    7.0708   -4.4319    0.5399 H   0  0  0  0  0  0  0  0  0  0  0  0
    6.4847   -3.0092   -0.3474 H   0  0  0  0  0  0  0  0  0  0  0  0
    7.9480   -2.6664    1.6629 H   0  0  0  0  0  0  0  0  0  0  0  0
    6.4906   -1.6601    1.6564 H   0  0  0  0  0  0  0  0  0  0  0  0
    6.6029   -3.1656    2.7164 H   0  0  0  0  0  0  0  0  0  0  0  0
    1.2147    1.4897   -0.6400 H   0  0  0  0  0  0  0  0  0  0  0  0
    0.4483    0.9426    0.9689 H   0  0  0  0  0  0  0  0  0  0  0  0
   -0.9771    2.4970    0.0633 H   0  0  0  0  0  0  0  0  0  0  0  0
   -0.8632    1.8532   -1.5940 H   0  0  0  0  0  0  0  0  0  0  0  0
   -6.2398    2.0545   -1.2561 H   0  0  0  0  0  0  0  0  0  0  0  0
   -8.0745    3.5872   -0.6616 H   0  0  0  0  0  0  0  0  0  0  0  0
   -8.4677    4.2226    1.6592 H   0  0  0  0  0  0  0  0  0  0  0  0
   -6.9937    3.3178    3.4515 H   0  0  0  0  0  0  0  0  0  0  0  0
   -5.1285    1.7595    2.8145 H   0  0  0  0  0  0  0  0  0  0  0  0
   -4.0442   -0.9634    2.2779 H   0  0  0  0  0  0  0  0  0  0  0  0
   -4.7914   -3.3107    2.1603 H   0  0  0  0  0  0  0  0  0  0  0  0
   -5.9935   -4.1364    0.1930 H   0  0  0  0  0  0  0  0  0  0  0  0
   -6.4802   -2.6494   -1.7079 H   0  0  0  0  0  0  0  0  0  0  0  0
   -5.7342   -0.3145   -1.5854 H   0  0  0  0  0  0  0  0  0  0  0  0
   -2.8081   -1.0779   -0.9034 H   0  0  0  0  0  0  0  0  0  0  0  0
   -1.8440   -1.1659    0.6293 H   0  0  0  0  0  0  0  0  0  0  0  0
   -0.6458   -2.1820   -1.1162 H   0  0  0  0  0  0  0  0  0  0  0  0
   -0.0992    0.7478   -3.9708 H   0  0  0  0  0  0  0  0  0  0  0  0
  1  2  1  0
  2  3  1  0
  3  4  1  0
  4  5  1  0
  5  6  1  0
  6  7  1  0
  7  8  1  0
  8  9  1  0
  9 10  1  0
 10 11  1  0
  6 12  1  0
 12 13  2  0
 12 14  1  0
 14 15  1  0
 15 16  1  0
 16 17  1  0
 17 18  1  0
 18 19  2  0
 18 20  1  0
 20 21  1  0
 21 22  2  0
 22 23  1  0
 23 24  2  0
 24 25  1  0
 25 26  2  0
 20 27  1  0
 27 28  2  0
 28 29  1  0
 29 30  2  0
 30 31  1  0
 31 32  2  0
 17 33  1  0
 33 34  1  0
 34 35  1  0
 35 36  2  0
 35 37  1  0
 34 14  1  0
 26 21  1  0
 32 27  1  0
  1 38  1  0
  1 39  1  0
  1 40  1  0
  2 41  1  0
  2 42  1  0
  3 43  1  0
  3 44  1  0
  4 45  1  0
  4 46  1  0
  5 47  1  0
  5 48  1  0
  7 49  1  0
  7 50  1  0
  8 51  1  0
  8 52  1  0
  9 53  1  0
  9 54  1  0
 10 55  1  0
 10 56  1  0
 11 57  1  0
 11 58  1  0
 11 59  1  0
 15 60  1  0
 15 61  1  0
 16 62  1  0
 16 63  1  0
 22 64  1  0
 23 65  1  0
 24 66  1  0
 25 67  1  0
 26 68  1  0
 28 69  1  0
 29 70  1  0
 30 71  1  0
 31 72  1  0
 32 73  1  0
 33 74  1  0
 33 75  1  0
 34 76  1  6
 37 77  1  0
M  END
$$$$
