@<TRIPOS>MOLECULE
*****
 77 79 0 0 0
SMALL
GASTEIGER

@<TRIPOS>ATOM
      1 C           4.2441    4.4421    0.7785 C.3     1  UNL1       -0.0653
      2 C           3.5492    3.1395    0.3476 C.3     1  UNL1       -0.0559
      3 C           4.5988    2.3125   -0.3161 C.3     1  UNL1       -0.0519
      4 C           4.0272    1.0140   -0.8049 C.3     1  UNL1       -0.0371
      5 C           3.4578    0.1727    0.3160 C.3     1  UNL1        0.0161
      6 N           2.9456   -1.0356   -0.2438 N.am    1  UNL1       -0.2855
      7 C           3.9324   -2.1140   -0.3681 C.3     1  UNL1        0.0161
      8 C           3.9546   -2.9708    0.8773 C.3     1  UNL1       -0.0371
      9 C           4.9553   -4.0754    0.7886 C.3     1  UNL1       -0.0519
     10 C           6.3679   -3.5771    0.5978 C.3     1  UNL1       -0.0559
     11 C           6.8242   -2.6943    1.7256 C.3     1  UNL1       -0.0653
     12 C           1.6459   -1.2467   -0.6614 C.2     1  UNL1        0.3056
     13 O           1.4804   -2.4707   -1.1721 O.2     1  UNL1       -0.2524
     14 N           0.5018   -0.4554   -0.6534 N.am    1  UNL1       -0.2690
     15 C           0.4354    0.8763   -0.1534 C.3     1  UNL1        0.0329
     16 C          -0.8694    1.5478   -0.5393 C.3     1  UNL1        0.0321
     17 N          -2.0667    0.7471   -0.2665 N.am    1  UNL1       -0.2811
     18 C          -3.2572    1.4273    0.0870 C.2     1  UNL1        0.3136
     19 O          -3.1455    2.7135    0.1278 O.2     1  UNL1       -0.2517
     20 N          -4.4806    0.8981    0.3862 N.am    1  UNL1       -0.2243
     21 C          -5.5701    1.8136    0.7546 C.ar    1  UNL1        0.0428
     22 C          -6.3942    2.3246   -0.2199 C.ar    1  UNL1       -0.0399
     23 C          -7.4300    3.1886    0.1163 C.ar    1  UNL1       -0.0600
     24 C          -7.6494    3.5503    1.4473 C.ar    1  UNL1       -0.0616
     25 C          -6.8209    3.0358    2.4199 C.ar    1  UNL1       -0.0600
     26 C          -5.7875    2.1707    2.0616 C.ar    1  UNL1       -0.0399
     27 C          -4.8333   -0.4610    0.3533 C.ar    1  UNL1        0.0428
     28 C          -4.5700   -1.3004    1.4009 C.ar    1  UNL1       -0.0399
     29 C          -4.9823   -2.6073    1.3447 C.ar    1  UNL1       -0.0600
     30 C          -5.6673   -3.1130    0.2429 C.ar    1  UNL1       -0.0616
     31 C          -5.9409   -2.2742   -0.8266 C.ar    1  UNL1       -0.0600
     32 C          -5.5160   -0.9651   -0.7449 C.ar    1  UNL1       -0.0399
     33 C          -1.9214   -0.6810   -0.3756 C.3     1  UNL1        0.0453
     34 C          -0.7350   -1.0621   -1.1982 C.3     1  UNL1        0.1399
     35 C          -0.8273   -0.7025   -2.6115 C.2     1  UNL1        0.3271
     36 O          -1.8311   -1.0211   -3.3179 O.2     1  UNL1       -0.2488
     37 O           0.1583    0.0092   -3.2979 O.3     1  UNL1       -0.4793
     38 H           4.7393    4.8390   -0.1214 H       1  UNL1        0.0230
     39 H           3.4634    5.1403    1.1131 H       1  UNL1        0.0230
     40 H           4.9711    4.1610    1.5426 H       1  UNL1        0.0230
     41 H           3.1210    2.6371    1.2232 H       1  UNL1        0.0263
     42 H           2.7425    3.3509   -0.3619 H       1  UNL1        0.0263
     43 H           5.4643    2.0914    0.3514 H       1  UNL1        0.0266
     44 H           4.9778    2.8436   -1.2352 H       1  UNL1        0.0266
     45 H           3.3022    1.1714   -1.6289 H       1  UNL1        0.0280
     46 H           4.8816    0.4780   -1.3023 H       1  UNL1        0.0280
     47 H           2.7664    0.7399    0.9195 H       1  UNL1        0.0465
     48 H           4.3413   -0.0854    1.0002 H       1  UNL1        0.0465
     49 H           3.6076   -2.7414   -1.2192 H       1  UNL1        0.0465
     50 H           4.9434   -1.6982   -0.5735 H       1  UNL1        0.0465
     51 H           2.9636   -3.4291    1.0332 H       1  UNL1        0.0280
     52 H           4.1801   -2.3676    1.7781 H       1  UNL1        0.0280
     53 H           4.9405   -4.7067    1.6799 H       1  UNL1        0.0266
     54 H           4.7361   -4.7188   -0.1006 H       1  UNL1        0.0266
     55 H           7.0708   -4.4319    0.5399 H       1  UNL1        0.0263
     56 H           6.4847   -3.0092   -0.3474 H       1  UNL1        0.0263
     57 H           7.9480   -2.6664    1.6629 H       1  UNL1        0.0230
     58 H           6.4906   -1.6601    1.6564 H       1  UNL1        0.0230
     59 H           6.6029   -3.1656    2.7164 H       1  UNL1        0.0230
     60 H           1.2147    1.4897   -0.6400 H       1  UNL1        0.0481
     61 H           0.4483    0.9426    0.9689 H       1  UNL1        0.0481
     62 H          -0.9771    2.4970    0.0633 H       1  UNL1        0.0480
     63 H          -0.8632    1.8532   -1.5940 H       1  UNL1        0.0480
     64 H          -6.2398    2.0545   -1.2561 H       1  UNL1        0.0636
     65 H          -8.0745    3.5872   -0.6616 H       1  UNL1        0.0618
     66 H          -8.4677    4.2226    1.6592 H       1  UNL1        0.0618
     67 H          -6.9937    3.3178    3.4515 H       1  UNL1        0.0618
     68 H          -5.1285    1.7595    2.8145 H       1  UNL1        0.0636
     69 H          -4.0442   -0.9634    2.2779 H       1  UNL1        0.0636
     70 H          -4.7914   -3.3107    2.1603 H       1  UNL1        0.0618
     71 H          -5.9935   -4.1364    0.1930 H       1  UNL1        0.0618
     72 H          -6.4802   -2.6494   -1.7079 H       1  UNL1        0.0618
     73 H          -5.7342   -0.3145   -1.5854 H       1  UNL1        0.0636
     74 H          -2.8081   -1.0779   -0.9034 H       1  UNL1        0.0489
     75 H          -1.8440   -1.1659    0.6293 H       1  UNL1        0.0489
     76 H          -0.6458   -2.1820   -1.1162 H       1  UNL1        0.0633
     77 H          -0.0992    0.7478   -3.9708 H       1  UNL1        0.2951
@<TRIPOS>BOND
     1     1     2    1
     2     2     3    1
     3     3     4    1
     4     4     5    1
     5     5     6    1
     6     6     7    1
     7     7     8    1
     8     8     9    1
     9     9    10    1
    10    10    11    1
    11     6    12   am
    12    12    13    2
    13    12    14   am
    14    14    15    1
    15    15    16    1
    16    16    17    1
    17    17    18   am
    18    18    19    2
    19    18    20   am
    20    20    21    1
    21    21    22   ar
    22    22    23   ar
    23    23    24   ar
    24    24    25   ar
    25    25    26   ar
    26    20    27    1
    27    27    28   ar
    28    28    29   ar
    29    29    30   ar
    30    30    31   ar
    31    31    32   ar
    32    17    33    1
    33    33    34    1
    34    34    35    1
    35    35    36    2
    36    35    37    1
    37    34    14    1
    38    26    21   ar
    39    32    27   ar
    40     1    38    1
    41     1    39    1
    42     1    40    1
    43     2    41    1
    44     2    42    1
    45     3    43    1
    46     3    44    1
    47     4    45    1
    48     4    46    1
    49     5    47    1
    50     5    48    1
    51     7    49    1
    52     7    50    1
    53     8    51    1
    54     8    52    1
    55     9    53    1
    56     9    54    1
    57    10    55    1
    58    10    56    1
    59    11    57    1
    60    11    58    1
    61    11    59    1
    62    15    60    1
    63    15    61    1
    64    16    62    1
    65    16    63    1
    66    22    64    1
    67    23    65    1
    68    24    66    1
    69    25    67    1
    70    26    68    1
    71    28    69    1
    72    29    70    1
    73    30    71    1
    74    31    72    1
    75    32    73    1
    76    33    74    1
    77    33    75    1
    78    34    76    1
    79    37    77    1
