@<TRIPOS>MOLECULE
*****
 32 33 0 0 0
SMALL
GASTEIGER

@<TRIPOS>ATOM
      1 C          -3.5049    1.6105    0.3089 C.3     1  UNL1       -0.0638
      2 C          -3.1894    0.4000   -0.5241 C.3     1  UNL1       -0.0355
      3 C          -2.4529   -0.6700    0.2711 C.3     1  UNL1        0.0831
      4 S          -0.8790   -0.0248    0.9119 S.3     1  UNL1       -0.1224
      5 C           0.2138   -0.9963   -0.1669 C.3     1  UNL1        0.0837
      6 C           0.5994   -0.1665   -1.3380 C.3     1  UNL1       -0.0093
      7 C           1.4234    1.0049   -0.8205 C.3     1  UNL1        0.0013
      8 N           2.6244    0.4564   -0.2323 N.3     1  UNL1       -0.3051
      9 C           3.6947    1.3876   -0.0749 C.3     1  UNL1       -0.0128
     10 C           2.3723   -0.3823    0.8981 C.3     1  UNL1        0.0013
     11 C           1.4469   -1.4949    0.5313 C.3     1  UNL1       -0.0093
     12 N          -0.6740   -2.0859   -0.4760 N.am    1  UNL1       -0.2999
     13 C          -1.9961   -1.6708   -0.7204 C.2     1  UNL1        0.2271
     14 O          -2.7247   -2.0981   -1.6785 O.2     1  UNL1       -0.2746
     15 H          -2.5903    2.0712    0.6893 H       1  UNL1        0.0230
     16 H          -4.2494    1.3648    1.0984 H       1  UNL1        0.0230
     17 H          -3.9896    2.3386   -0.3738 H       1  UNL1        0.0230
     18 H          -2.6554    0.6973   -1.4240 H       1  UNL1        0.0278
     19 H          -4.1576   -0.0372   -0.8416 H       1  UNL1        0.0278
     20 H          -3.1004   -1.0920    1.0431 H       1  UNL1        0.0507
     21 H           1.2099   -0.7775   -2.0441 H       1  UNL1        0.0307
     22 H          -0.2851    0.2487   -1.8647 H       1  UNL1        0.0307
     23 H           1.7309    1.6693   -1.6429 H       1  UNL1        0.0427
     24 H           0.8064    1.5411   -0.0661 H       1  UNL1        0.0427
     25 H           3.5601    2.1271    0.7151 H       1  UNL1        0.0391
     26 H           4.6171    0.7995    0.1267 H       1  UNL1        0.0391
     27 H           3.8594    1.8832   -1.0515 H       1  UNL1        0.0391
     28 H           3.3605   -0.8758    1.1376 H       1  UNL1        0.0427
     29 H           2.1119    0.1639    1.8203 H       1  UNL1        0.0427
     30 H           1.2162   -2.1538    1.3841 H       1  UNL1        0.0307
     31 H           1.9608   -2.1358   -0.2157 H       1  UNL1        0.0307
     32 H          -0.3591   -3.1025   -0.5150 H       1  UNL1        0.1501
@<TRIPOS>BOND
     1     1     2    1
     2     2     3    1
     3     3     4    1
     4     4     5    1
     5     5     6    1
     6     6     7    1
     7     7     8    1
     8     8     9    1
     9     8    10    1
    10    10    11    1
    11     5    12    1
    12    12    13   am
    13    13    14    2
    14    13     3    1
    15    11     5    1
    16     1    15    1
    17     1    16    1
    18     1    17    1
    19     2    18    1
    20     2    19    1
    21     3    20    1
    22     6    21    1
    23     6    22    1
    24     7    23    1
    25     7    24    1
    26     9    25    1
    27     9    26    1
    28     9    27    1
    29    10    28    1
    30    10    29    1
    31    11    30    1
    32    11    31    1
    33    12    32    1
