@<TRIPOS>MOLECULE
*****
 47 49 0 0 0
SMALL
GASTEIGER

@<TRIPOS>ATOM
      1 C          -4.1855   -2.6208   -1.1811 C.3     1  UNL1       -0.0397
      2 C          -4.6884   -1.3013   -0.6953 C.ar    1  UNL1       -0.0487
      3 C          -3.7981   -0.4426   -0.0892 C.ar    1  UNL1       -0.0376
      4 C          -4.1941    0.8047    0.3876 C.ar    1  UNL1        0.0326
      5 N          -3.2634    1.6789    1.0093 N.pl3   1  UNL1       -0.2987
      6 C          -1.9381    1.1735    1.1131 C.ar    1  UNL1        0.1402
      7 N          -1.0313    1.3538    0.1445 N.ar    1  UNL1       -0.1984
      8 C           0.2348    0.9005    0.1851 C.ar    1  UNL1        0.2212
      9 N           1.0934    1.1527   -0.8951 N.pl3   1  UNL1       -0.2836
     10 C           2.4441    0.7609   -1.0448 C.ar    1  UNL1        0.0336
     11 C           3.1835    0.0490   -0.1554 C.ar    1  UNL1       -0.0402
     12 C           4.5006   -0.3205   -0.3255 C.ar    1  UNL1       -0.0563
     13 C           5.1545    0.0452   -1.4824 C.ar    1  UNL1       -0.0367
     14 C           6.5640   -0.2876   -1.7847 C.3     1  UNL1        0.0699
     15 C           7.4329    0.8241   -1.2634 C.2     1  UNL1        0.3091
     16 O           8.8133    0.7847   -1.4076 O.3     1  UNL1       -0.4804
     17 O           6.9017    1.8087   -0.6858 O.2     1  UNL1       -0.2507
     18 C           4.4523    0.7697   -2.4215 C.ar    1  UNL1       -0.0563
     19 C           3.1392    1.1048   -2.1867 C.ar    1  UNL1       -0.0402
     20 N           0.5668    0.2259    1.2944 N.ar    1  UNL1       -0.2218
     21 C          -0.2963    0.0144    2.2952 C.ar    1  UNL1        0.0466
     22 C          -1.5892    0.4793    2.2493 C.ar    1  UNL1        0.0946
     23 C          -2.5197    0.2435    3.3443 C.2     1  UNL1        0.2463
     24 N          -2.0651   -0.4823    4.4795 N.am    1  UNL1       -0.3252
     25 O          -3.6908    0.6401    3.3451 O.2     1  UNL1       -0.2702
     26 C          -5.5224    1.1047    0.2078 C.ar    1  UNL1       -0.0405
     27 C          -6.4331    0.2545   -0.3992 C.ar    1  UNL1       -0.0598
     28 C          -6.0144   -0.9703   -0.8603 C.ar    1  UNL1       -0.0587
     29 H          -4.9990   -3.3651   -1.2533 H       1  UNL1        0.0278
     30 H          -3.3764   -2.9766   -0.5112 H       1  UNL1        0.0278
     31 H          -3.8005   -2.4482   -2.2211 H       1  UNL1        0.0278
     32 H          -2.7699   -0.7560    0.0129 H       1  UNL1        0.0639
     33 H          -3.6408    2.6084    1.3304 H       1  UNL1        0.1536
     34 H           0.6870    1.7073   -1.7084 H       1  UNL1        0.1550
     35 H           2.7613   -0.2745    0.7617 H       1  UNL1        0.0636
     36 H           5.0535   -0.8886    0.4088 H       1  UNL1        0.0621
     37 H           6.6638   -0.4217   -2.8650 H       1  UNL1        0.0426
     38 H           6.8466   -1.2434   -1.2618 H       1  UNL1        0.0426
     39 H           9.3704    1.6484   -1.4619 H       1  UNL1        0.2951
     40 H           4.9533    1.0719   -3.3508 H       1  UNL1        0.0621
     41 H           2.6554    1.6812   -2.9847 H       1  UNL1        0.0636
     42 H           0.0330   -0.5436    3.1763 H       1  UNL1        0.0839
     43 H          -1.7800   -0.2504    5.4546 H       1  UNL1        0.1453
     44 H          -1.9216   -1.5354    4.5222 H       1  UNL1        0.1453
     45 H          -5.8290    2.0844    0.5835 H       1  UNL1        0.0636
     46 H          -7.4571    0.6102   -0.4808 H       1  UNL1        0.0618
     47 H          -6.7013   -1.6339   -1.3285 H       1  UNL1        0.0620
@<TRIPOS>BOND
     1     1     2    1
     2     2     3   ar
     3     3     4   ar
     4     4     5    1
     5     5     6    1
     6     6     7   ar
     7     7     8   ar
     8     8     9    1
     9     9    10    1
    10    10    11   ar
    11    11    12   ar
    12    12    13   ar
    13    13    14    1
    14    14    15    1
    15    15    16    1
    16    15    17    2
    17    13    18   ar
    18    18    19   ar
    19     8    20   ar
    20    20    21   ar
    21    21    22   ar
    22    22    23    1
    23    23    24   am
    24    23    25    2
    25     4    26   ar
    26    26    27   ar
    27    27    28   ar
    28    28     2   ar
    29    22     6   ar
    30    19    10   ar
    31     1    29    1
    32     1    30    1
    33     1    31    1
    34     3    32    1
    35     5    33    1
    36     9    34    1
    37    11    35    1
    38    12    36    1
    39    14    37    1
    40    14    38    1
    41    16    39    1
    42    18    40    1
    43    19    41    1
    44    21    42    1
    45    24    43    1
    46    24    44    1
    47    26    45    1
    48    27    46    1
    49    28    47    1
