@<TRIPOS>MOLECULE
*****
 43 44 0 0 0
SMALL
GASTEIGER

@<TRIPOS>ATOM
      1 C           0.9541   -2.4032   -0.7390 C.3     1  UNL1       -0.0394
      2 C           0.1907   -1.3080   -0.0737 C.ar    1  UNL1       -0.0460
      3 C          -1.1585   -1.1114   -0.3518 C.ar    1  UNL1       -0.0514
      4 C          -1.9162   -0.1076    0.2400 C.ar    1  UNL1       -0.0001
      5 C          -1.2980    0.7285    1.1432 C.ar    1  UNL1        0.1237
      6 O          -1.9347    1.7590    1.7957 O.3     1  UNL1       -0.5062
      7 C           0.0397    0.5122    1.4017 C.ar    1  UNL1       -0.0048
      8 C           0.7415    1.4092    2.3844 C.3     1  UNL1       -0.0360
      9 C           0.8353   -0.4859    0.8265 C.ar    1  UNL1       -0.0266
     10 C           2.2691   -0.6178    1.1936 C.3     1  UNL1        0.0759
     11 C           3.1722   -0.1006    0.1540 C.2     1  UNL1        0.2854
     12 N           2.9505    0.4287   -1.0134 N.2     1  UNL1       -0.0837
     13 C           4.1797    0.7829   -1.6710 C.3     1  UNL1        0.1671
     14 C           5.2494    0.6278   -0.6215 C.3     1  UNL1        0.1194
     15 N           4.5874   -0.1499    0.3976 N.pl3   1  UNL1       -0.2335
     16 C          -3.3396    0.0728   -0.0714 C.3     1  UNL1       -0.0092
     17 C          -3.8707   -0.9322   -1.0879 C.3     1  UNL1       -0.0559
     18 C          -4.1365   -0.2245    1.2038 C.3     1  UNL1       -0.0559
     19 C          -3.7167    1.4356   -0.5437 C.3     1  UNL1       -0.0559
     20 H           1.5421   -3.0058   -0.0247 H       1  UNL1        0.0278
     21 H           1.5990   -1.9721   -1.5582 H       1  UNL1        0.0278
     22 H           0.2633   -3.0806   -1.2473 H       1  UNL1        0.0278
     23 H          -1.6020   -1.7970   -1.0685 H       1  UNL1        0.0624
     24 H          -1.8268    2.7366    1.5470 H       1  UNL1        0.2922
     25 H           1.6504    1.8430    1.9630 H       1  UNL1        0.0279
     26 H           0.0638    2.2320    2.6927 H       1  UNL1        0.0279
     27 H           0.9026    0.8044    3.2960 H       1  UNL1        0.0279
     28 H           2.5045   -1.6988    1.3021 H       1  UNL1        0.0436
     29 H           2.4173   -0.0457    2.1213 H       1  UNL1        0.0436
     30 H           4.2122    1.8019   -2.0629 H       1  UNL1        0.0829
     31 H           4.3716    0.0513   -2.5038 H       1  UNL1        0.0829
     32 H           5.6274    1.5925   -0.2311 H       1  UNL1        0.0765
     33 H           6.1106    0.0518   -1.0490 H       1  UNL1        0.0765
     34 H           5.1506   -0.6269    1.1443 H       1  UNL1        0.2912
     35 H          -4.9925   -0.8653   -0.9754 H       1  UNL1        0.0238
     36 H          -3.6640   -0.6565   -2.1280 H       1  UNL1        0.0238
     37 H          -3.6155   -1.9554   -0.7962 H       1  UNL1        0.0238
     38 H          -4.1467   -1.3437    1.3151 H       1  UNL1        0.0238
     39 H          -5.1605    0.1403    1.1348 H       1  UNL1        0.0238
     40 H          -3.5836    0.1390    2.0897 H       1  UNL1        0.0238
     41 H          -4.7043    1.3502   -1.0643 H       1  UNL1        0.0238
     42 H          -3.8989    2.1464    0.2853 H       1  UNL1        0.0238
     43 H          -3.0197    1.8431   -1.3076 H       1  UNL1        0.0238
@<TRIPOS>BOND
     1     1     2    1
     2     2     3   ar
     3     3     4   ar
     4     4     5   ar
     5     5     6    1
     6     5     7   ar
     7     7     8    1
     8     7     9   ar
     9     9    10    1
    10    10    11    1
    11    11    12    2
    12    12    13    1
    13    13    14    1
    14    14    15    1
    15     4    16    1
    16    16    17    1
    17    16    18    1
    18    16    19    1
    19     9     2   ar
    20    15    11    1
    21     1    20    1
    22     1    21    1
    23     1    22    1
    24     3    23    1
    25     6    24    1
    26     8    25    1
    27     8    26    1
    28     8    27    1
    29    10    28    1
    30    10    29    1
    31    13    30    1
    32    13    31    1
    33    14    32    1
    34    14    33    1
    35    15    34    1
    36    17    35    1
    37    17    36    1
    38    17    37    1
    39    18    38    1
    40    18    39    1
    41    18    40    1
    42    19    41    1
    43    19    42    1
    44    19    43    1
