@<TRIPOS>MOLECULE
*****
 51 55 0 0 0
SMALL
GASTEIGER

@<TRIPOS>ATOM
      1 C          -5.9645   -0.1057    1.7106 C.3     1  UNL1        0.0790
      2 O          -5.5986   -0.1941    0.3690 O.3     1  UNL1       -0.4913
      3 C          -4.2639   -0.3998   -0.0383 C.ar    1  UNL1        0.1657
      4 C          -3.2523   -0.5231    0.8867 C.ar    1  UNL1       -0.0083
      5 C          -1.9249   -0.7252    0.5741 C.ar    1  UNL1       -0.0093
      6 C          -0.8909   -0.8487    1.6005 C.ar    1  UNL1        0.0012
      7 C          -1.1610   -1.4035    2.8346 C.ar    1  UNL1        0.0376
      8 N          -0.2282   -1.5279    3.7942 N.ar    1  UNL1       -0.2369
      9 C           1.0417   -1.1202    3.6233 C.ar    1  UNL1        0.1387
     10 N           2.1461   -1.1269    4.4027 N.ar    1  UNL1       -0.3452
     11 C           3.1760   -0.5879    3.7330 C.ar    1  UNL1        0.0118
     12 C           2.7099   -0.2268    2.4861 C.ar    1  UNL1        0.0087
     13 C           3.4815    0.3936    1.4166 C.ar    1  UNL1       -0.0151
     14 C           4.3030    1.4665    1.6963 C.ar    1  UNL1       -0.0520
     15 C           5.0502    2.0766    0.7104 C.ar    1  UNL1       -0.0372
     16 C           5.0147    1.6460   -0.6043 C.ar    1  UNL1        0.0465
     17 N           5.6237    2.0445   -1.7430 N.ar    1  UNL1       -0.3606
     18 C           5.2276    1.2661   -2.7635 C.ar    1  UNL1        0.0027
     19 C           4.3395    0.3471   -2.2485 C.ar    1  UNL1       -0.0366
     20 C           4.1991    0.5755   -0.8995 C.ar    1  UNL1        0.0002
     21 C           3.4446   -0.0371    0.1081 C.ar    1  UNL1       -0.0448
     22 C           1.3620   -0.5501    2.3843 C.ar    1  UNL1        0.0269
     23 C           0.4043   -0.4228    1.4006 C.ar    1  UNL1       -0.0413
     24 C          -1.6205   -0.8053   -0.7785 C.ar    1  UNL1       -0.0083
     25 C          -2.6193   -0.6844   -1.7257 C.ar    1  UNL1        0.1657
     26 O          -2.2973   -0.7674   -3.0868 O.3     1  UNL1       -0.4913
     27 C          -0.9393   -0.9758   -3.4672 C.3     1  UNL1        0.0790
     28 C          -3.9355   -0.4829   -1.3718 C.ar    1  UNL1        0.2035
     29 O          -4.9553   -0.3586   -2.3090 O.3     1  UNL1       -0.4885
     30 C          -5.2526    0.9417   -2.7822 C.3     1  UNL1        0.0791
     31 H          -5.4428   -0.8117    2.3807 H       1  UNL1        0.0660
     32 H          -7.0577   -0.3246    1.7715 H       1  UNL1        0.0660
     33 H          -5.8213    0.9171    2.0688 H       1  UNL1        0.0660
     34 H          -3.4800   -0.4617    1.9533 H       1  UNL1        0.0661
     35 H          -2.1524   -1.7649    3.0783 H       1  UNL1        0.0836
     36 H           2.1998   -1.4920    5.3748 H       1  UNL1        0.1668
     37 H           4.1951   -0.4388    4.0545 H       1  UNL1        0.0814
     38 H           4.3309    1.8075    2.7381 H       1  UNL1        0.0624
     39 H           5.6912    2.9149    0.9324 H       1  UNL1        0.0638
     40 H           6.3006    2.8441   -1.7997 H       1  UNL1        0.1653
     41 H           5.5252    1.3141   -3.8174 H       1  UNL1        0.0807
     42 H           3.8357   -0.4258   -2.8095 H       1  UNL1        0.0638
     43 H           2.8200   -0.8733   -0.1600 H       1  UNL1        0.0630
     44 H           0.6984    0.0227    0.4676 H       1  UNL1        0.0631
     45 H          -0.5708   -0.9659   -1.0526 H       1  UNL1        0.0661
     46 H          -0.5095   -1.8379   -2.8980 H       1  UNL1        0.0660
     47 H          -0.8617   -1.2132   -4.5444 H       1  UNL1        0.0660
     48 H          -0.3495   -0.0631   -3.2853 H       1  UNL1        0.0660
     49 H          -4.7940    1.7362   -2.1648 H       1  UNL1        0.0660
     50 H          -6.3318    1.1470   -2.8299 H       1  UNL1        0.0660
     51 H          -4.8453    1.0858   -3.8159 H       1  UNL1        0.0660
@<TRIPOS>BOND
     1     1     2    1
     2     2     3    1
     3     3     4   ar
     4     4     5   ar
     5     5     6    1
     6     6     7   ar
     7     7     8   ar
     8     8     9   ar
     9     9    10   ar
    10    10    11   ar
    11    11    12   ar
    12    12    13    1
    13    13    14   ar
    14    14    15   ar
    15    15    16   ar
    16    16    17   ar
    17    17    18   ar
    18    18    19   ar
    19    19    20   ar
    20    20    21   ar
    21    12    22   ar
    22    22    23   ar
    23     5    24   ar
    24    24    25   ar
    25    25    26    1
    26    26    27    1
    27    25    28   ar
    28    28    29    1
    29    29    30    1
    30    28     3   ar
    31    23     6   ar
    32    22     9   ar
    33    21    13   ar
    34    20    16   ar
    35     1    31    1
    36     1    32    1
    37     1    33    1
    38     4    34    1
    39     7    35    1
    40    10    36    1
    41    11    37    1
    42    14    38    1
    43    15    39    1
    44    17    40    1
    45    18    41    1
    46    19    42    1
    47    21    43    1
    48    23    44    1
    49    24    45    1
    50    27    46    1
    51    27    47    1
    52    27    48    1
    53    30    49    1
    54    30    50    1
    55    30    51    1
