
     RDKit          3D

120127  0  0  0  0  0  0  0  0999 V2000
   -8.5875    1.3363   -4.0168 C   0  0  0  0  0  0  0  0  0  0  0  0
   -8.4323    1.8528   -2.6196 C   0  0  0  0  0  0  0  0  0  0  0  0
   -9.3198    2.6658   -2.0755 C   0  0  0  0  0  0  0  0  0  0  0  0
   -9.6180    2.7295   -0.6197 C   0  0  1  0  0  0  0  0  0  0  0  0
  -10.7537    1.7619   -0.3698 C   0  0  0  0  0  0  0  0  0  0  0  0
  -10.2093    0.3709   -0.5658 C   0  0  0  0  0  0  0  0  0  0  0  0
  -11.1188   -0.5981   -0.7436 N   0  0  0  0  0  0  0  0  0  0  0  0
  -10.7599   -1.8580   -0.9536 C   0  0  0  0  0  0  0  0  0  0  0  0
  -11.6615   -2.7369   -1.1172 O   0  0  0  0  0  0  0  0  0  0  0  0
   -9.4283   -2.1901   -0.9910 C   0  0  0  0  0  0  0  0  0  0  0  0
   -8.4835   -1.2159   -0.8110 C   0  0  0  0  0  0  0  0  0  0  0  0
   -8.8746    0.1022   -0.5915 C   0  0  0  0  0  0  0  0  0  0  0  0
   -7.7768    1.1273   -0.4102 C   0  0  1  0  0  0  0  0  0  0  0  0
   -7.2411    1.4671   -1.7603 C   0  0  0  0  0  0  0  0  0  0  0  0
   -8.4003    2.3724    0.2010 C   0  0  2  0  0  0  0  0  0  0  0  0
   -8.7519    2.2732    1.6259 C   0  0  0  0  0  0  0  0  0  0  0  0
   -8.3963    1.0613    2.3869 C   0  0  0  0  0  0  0  0  0  0  0  0
   -7.4905    0.0674    1.7445 C   0  0  0  0  0  0  0  0  0  0  0  0
   -6.8533    0.6780    0.5746 N   0  0  0  0  0  0  0  0  0  0  0  0
   -5.4733    0.7799    0.5385 C   0  0  0  0  0  0  0  0  0  0  0  0
   -4.8769    0.2478    1.5710 O   0  0  0  0  0  0  0  0  0  0  0  0
   -4.5848    1.3841   -0.4506 C   0  0  0  0  0  0  0  0  0  0  0  0
   -3.1177    1.0759   -0.0630 C   0  0  0  0  0  0  0  0  0  0  0  0
   -2.8884   -0.3256   -0.0290 N   0  0  0  0  0  0  0  0  0  0  0  0
   -2.9714   -0.9342   -1.3522 C   0  0  0  0  0  0  0  0  0  0  0  0
   -1.6734   -0.7438    0.6465 C   0  0  0  0  0  0  0  0  0  0  0  0
   -1.7853   -0.4877    2.1152 C   0  0  0  0  0  0  0  0  0  0  0  0
   -0.5577   -0.9201    2.8438 C   0  0  0  0  0  0  0  0  0  0  0  0
   -0.2481   -2.3835    2.7055 C   0  0  0  0  0  0  0  0  0  0  0  0
    0.9449   -2.8047    3.4892 C   0  0  0  0  0  0  0  0  0  0  0  0
    2.2292   -2.1522    3.2013 C   0  0  0  0  0  0  0  0  0  0  0  0
    2.7262   -2.2627    1.8406 N   0  0  0  0  0  0  0  0  0  0  0  0
    3.0556   -3.6544    1.5224 C   0  0  0  0  0  0  0  0  0  0  0  0
    3.9578   -1.4732    1.8546 C   0  0  0  0  0  0  0  0  0  0  0  0
    4.6548   -1.3942    0.5435 C   0  0  0  0  0  0  0  0  0  0  0  0
    5.9275   -0.6000    0.6570 C   0  0  0  0  0  0  0  0  0  0  0  0
    6.2398   -0.2494    1.8235 O   0  0  0  0  0  0  0  0  0  0  0  0
    6.7170   -0.2694   -0.4436 N   0  0  0  0  0  0  0  0  0  0  0  0
    6.2505   -0.7218   -1.7530 C   0  0  0  0  0  0  0  0  0  0  0  0
    6.8893   -0.0159   -2.8980 C   0  0  0  0  0  0  0  0  0  0  0  0
    7.3067    1.3980   -2.6357 C   0  0  0  0  0  0  0  0  0  0  0  0
    7.8423    1.6777   -1.2813 C   0  0  2  0  0  0  0  0  0  0  0  0
    9.1892    2.3492   -1.4166 C   0  0  1  0  0  0  0  0  0  0  0  0
    9.6956    2.6678   -0.0659 C   0  0  0  0  0  0  0  0  0  0  0  0
    9.4205    1.9059    0.9708 C   0  0  0  0  0  0  0  0  0  0  0  0
   10.2837    1.9825    2.1709 C   0  0  0  0  0  0  0  0  0  0  0  0
    8.2634    0.9583    0.9954 C   0  0  0  0  0  0  0  0  0  0  0  0
    7.9421    0.4581   -0.3875 C   0  0  1  0  0  0  0  0  0  0  0  0
    9.0267   -0.4302   -0.8956 C   0  0  0  0  0  0  0  0  0  0  0  0
    9.0245   -1.7941   -0.5927 C   0  0  0  0  0  0  0  0  0  0  0  0
   10.0118   -2.6351   -1.0487 C   0  0  0  0  0  0  0  0  0  0  0  0
   11.0323   -2.1196   -1.8257 C   0  0  0  0  0  0  0  0  0  0  0  0
   11.9430   -2.8679   -2.2521 O   0  0  0  0  0  0  0  0  0  0  0  0
   11.0327   -0.8070   -2.1162 N   0  0  0  0  0  0  0  0  0  0  0  0
   10.0582    0.0411   -1.6701 C   0  0  0  0  0  0  0  0  0  0  0  0
   10.2036    1.4467   -2.0742 C   0  0  0  0  0  0  0  0  0  0  0  0
   -9.6583    1.0400   -4.2111 H   0  0  0  0  0  0  0  0  0  0  0  0
   -7.9807    0.4396   -4.1285 H   0  0  0  0  0  0  0  0  0  0  0  0
   -8.3455    2.1180   -4.7725 H   0  0  0  0  0  0  0  0  0  0  0  0
   -9.8748    3.3352   -2.7294 H   0  0  0  0  0  0  0  0  0  0  0  0
   -9.9107    3.7720   -0.3698 H   0  0  0  0  0  0  0  0  0  0  0  0
  -11.3000    1.8985    0.5513 H   0  0  0  0  0  0  0  0  0  0  0  0
  -11.4972    1.8687   -1.2132 H   0  0  0  0  0  0  0  0  0  0  0  0
  -12.1392   -0.3630   -0.7174 H   0  0  0  0  0  0  0  0  0  0  0  0
   -9.1822   -3.2464   -1.1678 H   0  0  0  0  0  0  0  0  0  0  0  0
   -7.4207   -1.4817   -0.8419 H   0  0  0  0  0  0  0  0  0  0  0  0
   -6.7515    0.5887   -2.2497 H   0  0  0  0  0  0  0  0  0  0  0  0
   -6.6177    2.3653   -1.7341 H   0  0  0  0  0  0  0  0  0  0  0  0
   -7.6752    3.2035    0.0247 H   0  0  0  0  0  0  0  0  0  0  0  0
   -8.2475    3.1439    2.1554 H   0  0  0  0  0  0  0  0  0  0  0  0
   -9.8475    2.5228    1.7948 H   0  0  0  0  0  0  0  0  0  0  0  0
   -9.3535    0.5121    2.6511 H   0  0  0  0  0  0  0  0  0  0  0  0
   -7.9988    1.3182    3.4234 H   0  0  0  0  0  0  0  0  0  0  0  0
   -6.6794   -0.1865    2.4846 H   0  0  0  0  0  0  0  0  0  0  0  0
   -7.9674   -0.8555    1.4435 H   0  0  0  0  0  0  0  0  0  0  0  0
   -4.6576    2.5008   -0.4677 H   0  0  0  0  0  0  0  0  0  0  0  0
   -4.6706    1.0236   -1.4721 H   0  0  0  0  0  0  0  0  0  0  0  0
   -2.8777    1.5501    0.8967 H   0  0  0  0  0  0  0  0  0  0  0  0
   -2.4462    1.4979   -0.8631 H   0  0  0  0  0  0  0  0  0  0  0  0
   -2.0398   -1.4876   -1.5395 H   0  0  0  0  0  0  0  0  0  0  0  0
   -3.1026   -0.1065   -2.0824 H   0  0  0  0  0  0  0  0  0  0  0  0
   -3.8883   -1.5733   -1.3933 H   0  0  0  0  0  0  0  0  0  0  0  0
   -0.8474   -0.1082    0.2464 H   0  0  0  0  0  0  0  0  0  0  0  0
   -1.4108   -1.7782    0.4019 H   0  0  0  0  0  0  0  0  0  0  0  0
   -2.6722   -0.9960    2.5675 H   0  0  0  0  0  0  0  0  0  0  0  0
   -1.9132    0.6044    2.3441 H   0  0  0  0  0  0  0  0  0  0  0  0
    0.3335   -0.3739    2.4292 H   0  0  0  0  0  0  0  0  0  0  0  0
   -0.5787   -0.6197    3.9257 H   0  0  0  0  0  0  0  0  0  0  0  0
   -1.1522   -2.9232    3.1181 H   0  0  0  0  0  0  0  0  0  0  0  0
   -0.1147   -2.6423    1.6339 H   0  0  0  0  0  0  0  0  0  0  0  0
    0.7091   -2.5849    4.5792 H   0  0  0  0  0  0  0  0  0  0  0  0
    1.0487   -3.9362    3.5112 H   0  0  0  0  0  0  0  0  0  0  0  0
    3.0072   -2.6004    3.8504 H   0  0  0  0  0  0  0  0  0  0  0  0
    2.1458   -1.0587    3.4172 H   0  0  0  0  0  0  0  0  0  0  0  0
    2.1689   -4.2866    1.6302 H   0  0  0  0  0  0  0  0  0  0  0  0
    3.3614   -3.7294    0.4603 H   0  0  0  0  0  0  0  0  0  0  0  0
    3.8224   -4.0241    2.2283 H   0  0  0  0  0  0  0  0  0  0  0  0
    3.6919   -0.4815    2.2737 H   0  0  0  0  0  0  0  0  0  0  0  0
    4.6630   -1.9600    2.5771 H   0  0  0  0  0  0  0  0  0  0  0  0
    4.0014   -0.7741   -0.1394 H   0  0  0  0  0  0  0  0  0  0  0  0
    4.7873   -2.3498    0.0331 H   0  0  0  0  0  0  0  0  0  0  0  0
    6.5935   -1.7985   -1.8037 H   0  0  0  0  0  0  0  0  0  0  0  0
    5.1631   -0.7132   -1.8096 H   0  0  0  0  0  0  0  0  0  0  0  0
    6.1151    0.0316   -3.7234 H   0  0  0  0  0  0  0  0  0  0  0  0
    7.7252   -0.6083   -3.3549 H   0  0  0  0  0  0  0  0  0  0  0  0
    6.4432    2.1000   -2.8329 H   0  0  0  0  0  0  0  0  0  0  0  0
    8.0440    1.6796   -3.4436 H   0  0  0  0  0  0  0  0  0  0  0  0
    7.1818    2.3975   -0.7378 H   0  0  0  0  0  0  0  0  0  0  0  0
    9.0726    3.2459   -2.0657 H   0  0  0  0  0  0  0  0  0  0  0  0
   10.3058    3.5530    0.0559 H   0  0  0  0  0  0  0  0  0  0  0  0
    9.7995    1.5218    3.0590 H   0  0  0  0  0  0  0  0  0  0  0  0
   11.2276    1.4088    2.0139 H   0  0  0  0  0  0  0  0  0  0  0  0
   10.5110    3.0507    2.4474 H   0  0  0  0  0  0  0  0  0  0  0  0
    7.3988    1.6061    1.3190 H   0  0  0  0  0  0  0  0  0  0  0  0
    8.5050    0.1669    1.7209 H   0  0  0  0  0  0  0  0  0  0  0  0
    8.2394   -2.2298    0.0126 H   0  0  0  0  0  0  0  0  0  0  0  0
   10.0440   -3.6916   -0.8323 H   0  0  0  0  0  0  0  0  0  0  0  0
   11.8175   -0.4504   -2.7069 H   0  0  0  0  0  0  0  0  0  0  0  0
   10.1292    1.4866   -3.1989 H   0  0  0  0  0  0  0  0  0  0  0  0
   11.2281    1.7705   -1.8047 H   0  0  0  0  0  0  0  0  0  0  0  0
  1  2  1  0
  2  3  2  0
  3  4  1  0
  4  5  1  0
  5  6  1  0
  6  7  1  0
  7  8  1  0
  8  9  2  0
  8 10  1  0
 10 11  2  0
 11 12  1  0
 12 13  1  0
 13 14  1  0
 13 15  1  0
 15 16  1  0
 16 17  1  0
 17 18  1  0
 18 19  1  0
 19 20  1  0
 20 21  2  0
 20 22  1  0
 22 23  1  0
 23 24  1  0
 24 25  1  0
 24 26  1  0
 26 27  1  0
 27 28  1  0
 28 29  1  0
 29 30  1  0
 30 31  1  0
 31 32  1  0
 32 33  1  0
 32 34  1  0
 34 35  1  0
 35 36  1  0
 36 37  2  0
 36 38  1  0
 38 39  1  0
 39 40  1  0
 40 41  1  0
 41 42  1  0
 42 43  1  0
 43 44  1  0
 44 45  2  0
 45 46  1  0
 45 47  1  0
 47 48  1  0
 48 49  1  0
 49 50  1  0
 50 51  2  0
 51 52  1  0
 52 53  2  0
 52 54  1  0
 54 55  1  0
 55 56  1  0
 14  2  1  0
 48 38  1  1
 55 49  2  0
 15  4  1  0
 48 42  1  0
 12  6  2  0
 13 19  1  1
 56 43  1  0
  1 57  1  0
  1 58  1  0
  1 59  1  0
  3 60  1  0
  4 61  1  1
  5 62  1  0
  5 63  1  0
  7 64  1  0
 10 65  1  0
 11 66  1  0
 14 67  1  0
 14 68  1  0
 15 69  1  1
 16 70  1  0
 16 71  1  0
 17 72  1  0
 17 73  1  0
 18 74  1  0
 18 75  1  0
 22 76  1  0
 22 77  1  0
 23 78  1  0
 23 79  1  0
 25 80  1  0
 25 81  1  0
 25 82  1  0
 26 83  1  0
 26 84  1  0
 27 85  1  0
 27 86  1  0
 28 87  1  0
 28 88  1  0
 29 89  1  0
 29 90  1  0
 30 91  1  0
 30 92  1  0
 31 93  1  0
 31 94  1  0
 33 95  1  0
 33 96  1  0
 33 97  1  0
 34 98  1  0
 34 99  1  0
 35100  1  0
 35101  1  0
 39102  1  0
 39103  1  0
 40104  1  0
 40105  1  0
 41106  1  0
 41107  1  0
 42108  1  1
 43109  1  6
 44110  1  0
 46111  1  0
 46112  1  0
 46113  1  0
 47114  1  0
 47115  1  0
 50116  1  0
 51117  1  0
 54118  1  0
 56119  1  0
 56120  1  0
M  END
$$$$
