@<TRIPOS>MOLECULE
*****
 120 127 0 0 0
SMALL
GASTEIGER

@<TRIPOS>ATOM
      1 C          -8.5875    1.3363   -4.0168 C.3     1  UNL1       -0.0437
      2 C          -8.4323    1.8528   -2.6196 C.2     1  UNL1       -0.0739
      3 C          -9.3198    2.6658   -2.0755 C.2     1  UNL1       -0.0812
      4 C          -9.6180    2.7295   -0.6197 C.3     1  UNL1       -0.0122
      5 C         -10.7537    1.7619   -0.3698 C.3     1  UNL1       -0.0055
      6 C         -10.2093    0.3709   -0.5658 C.ar    1  UNL1        0.0248
      7 N         -11.1188   -0.5981   -0.7436 N.ar    1  UNL1       -0.3259
      8 C         -10.7599   -1.8580   -0.9536 C.ar    1  UNL1        0.2489
      9 O         -11.6615   -2.7369   -1.1172 O.2     1  UNL1       -0.2679
     10 C          -9.4283   -2.1901   -0.9910 C.ar    1  UNL1        0.0031
     11 C          -8.4835   -1.2159   -0.8110 C.ar    1  UNL1       -0.0498
     12 C          -8.8746    0.1022   -0.5915 C.ar    1  UNL1       -0.0039
     13 C          -7.7768    1.1273   -0.4102 C.3     1  UNL1        0.0710
     14 C          -7.2411    1.4671   -1.7603 C.3     1  UNL1       -0.0059
     15 C          -8.4003    2.3724    0.2010 C.3     1  UNL1       -0.0083
     16 C          -8.7519    2.2732    1.6259 C.3     1  UNL1       -0.0460
     17 C          -8.3963    1.0613    2.3869 C.3     1  UNL1       -0.0368
     18 C          -7.4905    0.0674    1.7445 C.3     1  UNL1        0.0156
     19 N          -6.8533    0.6780    0.5746 N.am    1  UNL1       -0.2910
     20 C          -5.4733    0.7799    0.5385 C.2     1  UNL1        0.2175
     21 O          -4.8769    0.2478    1.5710 O.2     1  UNL1       -0.2755
     22 C          -4.5848    1.3841   -0.4506 C.3     1  UNL1        0.0369
     23 C          -3.1177    1.0759   -0.0630 C.3     1  UNL1        0.0069
     24 N          -2.8884   -0.3256   -0.0290 N.3     1  UNL1       -0.3049
     25 C          -2.9714   -0.9342   -1.3522 C.3     1  UNL1       -0.0127
     26 C          -1.6734   -0.7438    0.6465 C.3     1  UNL1       -0.0014
     27 C          -1.7853   -0.4877    2.1152 C.3     1  UNL1       -0.0402
     28 C          -0.5577   -0.9201    2.8438 C.3     1  UNL1       -0.0519
     29 C          -0.2481   -2.3835    2.7055 C.3     1  UNL1       -0.0519
     30 C           0.9449   -2.8047    3.4892 C.3     1  UNL1       -0.0402
     31 C           2.2292   -2.1522    3.2013 C.3     1  UNL1       -0.0014
     32 N           2.7262   -2.2627    1.8406 N.3     1  UNL1       -0.3049
     33 C           3.0556   -3.6544    1.5224 C.3     1  UNL1       -0.0127
     34 C           3.9578   -1.4732    1.8546 C.3     1  UNL1        0.0069
     35 C           4.6548   -1.3942    0.5435 C.3     1  UNL1        0.0369
     36 C           5.9275   -0.6000    0.6570 C.2     1  UNL1        0.2175
     37 O           6.2398   -0.2494    1.8235 O.2     1  UNL1       -0.2755
     38 N           6.7170   -0.2694   -0.4436 N.am    1  UNL1       -0.2910
     39 C           6.2505   -0.7218   -1.7530 C.3     1  UNL1        0.0156
     40 C           6.8893   -0.0159   -2.8980 C.3     1  UNL1       -0.0368
     41 C           7.3067    1.3980   -2.6357 C.3     1  UNL1       -0.0460
     42 C           7.8423    1.6777   -1.2813 C.3     1  UNL1       -0.0083
     43 C           9.1892    2.3492   -1.4166 C.3     1  UNL1       -0.0122
     44 C           9.6956    2.6678   -0.0659 C.2     1  UNL1       -0.0812
     45 C           9.4205    1.9059    0.9708 C.2     1  UNL1       -0.0739
     46 C          10.2837    1.9825    2.1709 C.3     1  UNL1       -0.0437
     47 C           8.2634    0.9583    0.9954 C.3     1  UNL1       -0.0059
     48 C           7.9421    0.4581   -0.3875 C.3     1  UNL1        0.0710
     49 C           9.0267   -0.4302   -0.8956 C.ar    1  UNL1       -0.0039
     50 C           9.0245   -1.7941   -0.5927 C.ar    1  UNL1       -0.0498
     51 C          10.0118   -2.6351   -1.0487 C.ar    1  UNL1        0.0031
     52 C          11.0323   -2.1196   -1.8257 C.ar    1  UNL1        0.2489
     53 O          11.9430   -2.8679   -2.2521 O.2     1  UNL1       -0.2679
     54 N          11.0327   -0.8070   -2.1162 N.ar    1  UNL1       -0.3259
     55 C          10.0582    0.0411   -1.6701 C.ar    1  UNL1        0.0248
     56 C          10.2036    1.4467   -2.0742 C.3     1  UNL1       -0.0055
     57 H          -9.6583    1.0400   -4.2111 H       1  UNL1        0.0274
     58 H          -7.9807    0.4396   -4.1285 H       1  UNL1        0.0274
     59 H          -8.3455    2.1180   -4.7725 H       1  UNL1        0.0274
     60 H          -9.8748    3.3352   -2.7294 H       1  UNL1        0.0575
     61 H          -9.9107    3.7720   -0.3698 H       1  UNL1        0.0350
     62 H         -11.3000    1.8985    0.5513 H       1  UNL1        0.0333
     63 H         -11.4972    1.8687   -1.2132 H       1  UNL1        0.0333
     64 H         -12.1392   -0.3630   -0.7174 H       1  UNL1        0.1686
     65 H          -9.1822   -3.2464   -1.1678 H       1  UNL1        0.0672
     66 H          -7.4207   -1.4817   -0.8419 H       1  UNL1        0.0623
     67 H          -6.7515    0.5887   -2.2497 H       1  UNL1        0.0334
     68 H          -6.6177    2.3653   -1.7341 H       1  UNL1        0.0334
     69 H          -7.6752    3.2035    0.0247 H       1  UNL1        0.0331
     70 H          -8.2475    3.1439    2.1554 H       1  UNL1        0.0269
     71 H          -9.8475    2.5228    1.7948 H       1  UNL1        0.0269
     72 H          -9.3535    0.5121    2.6511 H       1  UNL1        0.0280
     73 H          -7.9988    1.3182    3.4234 H       1  UNL1        0.0280
     74 H          -6.6794   -0.1865    2.4846 H       1  UNL1        0.0465
     75 H          -7.9674   -0.8555    1.4435 H       1  UNL1        0.0465
     76 H          -4.6576    2.5008   -0.4677 H       1  UNL1        0.0371
     77 H          -4.6706    1.0236   -1.4721 H       1  UNL1        0.0371
     78 H          -2.8777    1.5501    0.8967 H       1  UNL1        0.0431
     79 H          -2.4462    1.4979   -0.8631 H       1  UNL1        0.0431
     80 H          -2.0398   -1.4876   -1.5395 H       1  UNL1        0.0391
     81 H          -3.1026   -0.1065   -2.0824 H       1  UNL1        0.0391
     82 H          -3.8883   -1.5733   -1.3933 H       1  UNL1        0.0391
     83 H          -0.8474   -0.1082    0.2464 H       1  UNL1        0.0426
     84 H          -1.4108   -1.7782    0.4019 H       1  UNL1        0.0426
     85 H          -2.6722   -0.9960    2.5675 H       1  UNL1        0.0278
     86 H          -1.9132    0.6044    2.3441 H       1  UNL1        0.0278
     87 H           0.3335   -0.3739    2.4292 H       1  UNL1        0.0266
     88 H          -0.5787   -0.6197    3.9257 H       1  UNL1        0.0266
     89 H          -1.1522   -2.9232    3.1181 H       1  UNL1        0.0266
     90 H          -0.1147   -2.6423    1.6339 H       1  UNL1        0.0266
     91 H           0.7091   -2.5849    4.5792 H       1  UNL1        0.0278
     92 H           1.0487   -3.9362    3.5112 H       1  UNL1        0.0278
     93 H           3.0072   -2.6004    3.8504 H       1  UNL1        0.0426
     94 H           2.1458   -1.0587    3.4172 H       1  UNL1        0.0426
     95 H           2.1689   -4.2866    1.6302 H       1  UNL1        0.0391
     96 H           3.3614   -3.7294    0.4603 H       1  UNL1        0.0391
     97 H           3.8224   -4.0241    2.2283 H       1  UNL1        0.0391
     98 H           3.6919   -0.4815    2.2737 H       1  UNL1        0.0431
     99 H           4.6630   -1.9600    2.5771 H       1  UNL1        0.0431
    100 H           4.0014   -0.7741   -0.1394 H       1  UNL1        0.0371
    101 H           4.7873   -2.3498    0.0331 H       1  UNL1        0.0371
    102 H           6.5935   -1.7985   -1.8037 H       1  UNL1        0.0465
    103 H           5.1631   -0.7132   -1.8096 H       1  UNL1        0.0465
    104 H           6.1151    0.0316   -3.7234 H       1  UNL1        0.0280
    105 H           7.7252   -0.6083   -3.3549 H       1  UNL1        0.0280
    106 H           6.4432    2.1000   -2.8329 H       1  UNL1        0.0269
    107 H           8.0440    1.6796   -3.4436 H       1  UNL1        0.0269
    108 H           7.1818    2.3975   -0.7378 H       1  UNL1        0.0331
    109 H           9.0726    3.2459   -2.0657 H       1  UNL1        0.0350
    110 H          10.3058    3.5530    0.0559 H       1  UNL1        0.0575
    111 H           9.7995    1.5218    3.0590 H       1  UNL1        0.0274
    112 H          11.2276    1.4088    2.0139 H       1  UNL1        0.0274
    113 H          10.5110    3.0507    2.4474 H       1  UNL1        0.0274
    114 H           7.3988    1.6061    1.3190 H       1  UNL1        0.0334
    115 H           8.5050    0.1669    1.7209 H       1  UNL1        0.0334
    116 H           8.2394   -2.2298    0.0126 H       1  UNL1        0.0623
    117 H          10.0440   -3.6916   -0.8323 H       1  UNL1        0.0672
    118 H          11.8175   -0.4504   -2.7069 H       1  UNL1        0.1686
    119 H          10.1292    1.4866   -3.1989 H       1  UNL1        0.0333
    120 H          11.2281    1.7705   -1.8047 H       1  UNL1        0.0333
@<TRIPOS>BOND
     1     1     2    1
     2     2     3    2
     3     3     4    1
     4     4     5    1
     5     5     6    1
     6     6     7   ar
     7     7     8   ar
     8     8     9    2
     9     8    10   ar
    10    10    11   ar
    11    11    12   ar
    12    12    13    1
    13    13    14    1
    14    13    15    1
    15    15    16    1
    16    16    17    1
    17    17    18    1
    18    18    19    1
    19    19    20   am
    20    20    21    2
    21    20    22    1
    22    22    23    1
    23    23    24    1
    24    24    25    1
    25    24    26    1
    26    26    27    1
    27    27    28    1
    28    28    29    1
    29    29    30    1
    30    30    31    1
    31    31    32    1
    32    32    33    1
    33    32    34    1
    34    34    35    1
    35    35    36    1
    36    36    37    2
    37    36    38   am
    38    38    39    1
    39    39    40    1
    40    40    41    1
    41    41    42    1
    42    42    43    1
    43    43    44    1
    44    44    45    2
    45    45    46    1
    46    45    47    1
    47    47    48    1
    48    48    49    1
    49    49    50   ar
    50    50    51   ar
    51    51    52   ar
    52    52    53    2
    53    52    54   ar
    54    54    55   ar
    55    55    56    1
    56    14     2    1
    57    48    38    1
    58    55    49   ar
    59    15     4    1
    60    48    42    1
    61    12     6   ar
    62    13    19    1
    63    56    43    1
    64     1    57    1
    65     1    58    1
    66     1    59    1
    67     3    60    1
    68     4    61    1
    69     5    62    1
    70     5    63    1
    71     7    64    1
    72    10    65    1
    73    11    66    1
    74    14    67    1
    75    14    68    1
    76    15    69    1
    77    16    70    1
    78    16    71    1
    79    17    72    1
    80    17    73    1
    81    18    74    1
    82    18    75    1
    83    22    76    1
    84    22    77    1
    85    23    78    1
    86    23    79    1
    87    25    80    1
    88    25    81    1
    89    25    82    1
    90    26    83    1
    91    26    84    1
    92    27    85    1
    93    27    86    1
    94    28    87    1
    95    28    88    1
    96    29    89    1
    97    29    90    1
    98    30    91    1
    99    30    92    1
   100    31    93    1
   101    31    94    1
   102    33    95    1
   103    33    96    1
   104    33    97    1
   105    34    98    1
   106    34    99    1
   107    35   100    1
   108    35   101    1
   109    39   102    1
   110    39   103    1
   111    40   104    1
   112    40   105    1
   113    41   106    1
   114    41   107    1
   115    42   108    1
   116    43   109    1
   117    44   110    1
   118    46   111    1
   119    46   112    1
   120    46   113    1
   121    47   114    1
   122    47   115    1
   123    50   116    1
   124    51   117    1
   125    54   118    1
   126    56   119    1
   127    56   120    1
