@<TRIPOS>MOLECULE
*****
 39 42 0 0 0
SMALL
GASTEIGER

@<TRIPOS>ATOM
      1 N          -1.0869    2.9133   -1.3958 N.pl3   1  UNL1       -0.3274
      2 C          -1.0379    1.6056   -0.7937 C.ar    1  UNL1        0.2162
      3 N           0.0908    0.8418   -0.7276 N.ar    1  UNL1       -0.1949
      4 C          -0.0049   -0.3480   -0.1433 C.ar    1  UNL1        0.1677
      5 C          -1.1949   -0.7668    0.3625 C.ar    1  UNL1        0.1476
      6 N          -1.0044   -1.9983    0.8920 N.ar    1  UNL1       -0.2306
      7 C           0.2895   -2.3194    0.7071 C.ar    1  UNL1        0.0988
      8 N           0.9071   -1.3029    0.0688 N.ar    1  UNL1       -0.3079
      9 C           2.2930   -1.3745   -0.2573 C.3     1  UNL1        0.0560
     10 C           3.1281   -0.8242    0.8789 C.3     1  UNL1       -0.0201
     11 C           4.3953   -0.4460    0.1302 C.3     1  UNL1        0.0025
     12 C           5.0587    0.6907    0.8505 C.3     1  UNL1        0.0505
     13 O           4.2282    1.8065    0.9205 O.3     1  UNL1       -0.3944
     14 C           3.9149   -0.0476   -1.2197 C.2     1  UNL1       -0.0807
     15 C           2.6991   -0.5854   -1.4420 C.2     1  UNL1       -0.0650
     16 C          -2.3511   -0.0158    0.3095 C.ar    1  UNL1        0.1518
     17 N          -3.5603   -0.4816    0.8425 N.pl3   1  UNL1       -0.3243
     18 C          -4.8294    0.2047    0.8493 C.3     1  UNL1        0.0221
     19 C          -5.5106    0.6163   -0.3815 C.3     1  UNL1       -0.0329
     20 C          -5.9912   -0.6294    0.2846 C.3     1  UNL1       -0.0329
     21 N          -2.2338    1.1848   -0.2854 N.ar    1  UNL1       -0.1976
     22 H          -0.9068    3.6866   -0.7114 H       1  UNL1        0.1452
     23 H          -1.2493    3.3761   -2.3307 H       1  UNL1        0.1452
     24 H           0.7105   -3.2676    1.0436 H       1  UNL1        0.1029
     25 H           2.6432   -2.4174   -0.4196 H       1  UNL1        0.0573
     26 H           2.6553    0.0761    1.3007 H       1  UNL1        0.0295
     27 H           3.3334   -1.6244    1.6276 H       1  UNL1        0.0295
     28 H           5.0594   -1.3137    0.1094 H       1  UNL1        0.0366
     29 H           6.0723    0.9061    0.4725 H       1  UNL1        0.0563
     30 H           5.1863    0.3616    1.9233 H       1  UNL1        0.0563
     31 H           4.2675    2.3380    0.0760 H       1  UNL1        0.2094
     32 H           4.3989    0.5702   -1.9650 H       1  UNL1        0.0573
     33 H           2.0297   -0.5210   -2.3091 H       1  UNL1        0.0589
     34 H          -3.5875   -1.4234    1.2923 H       1  UNL1        0.1478
     35 H          -5.0367    0.6919    1.8374 H       1  UNL1        0.0498
     36 H          -4.9646    0.5253   -1.3329 H       1  UNL1        0.0284
     37 H          -6.1359    1.5484   -0.3139 H       1  UNL1        0.0284
     38 H          -6.9341   -0.6534    0.8449 H       1  UNL1        0.0284
     39 H          -5.7409   -1.5831   -0.2311 H       1  UNL1        0.0284
@<TRIPOS>BOND
     1     1     2    1
     2     2     3   ar
     3     3     4   ar
     4     4     5   ar
     5     5     6   ar
     6     6     7   ar
     7     7     8   ar
     8     8     9    1
     9     9    10    1
    10    10    11    1
    11    11    12    1
    12    12    13    1
    13    11    14    1
    14    14    15    2
    15     5    16   ar
    16    16    17    1
    17    17    18    1
    18    18    19    1
    19    19    20    1
    20    16    21   ar
    21    21     2   ar
    22     8     4   ar
    23    15     9    1
    24    20    18    1
    25     1    22    1
    26     1    23    1
    27     7    24    1
    28     9    25    1
    29    10    26    1
    30    10    27    1
    31    11    28    1
    32    12    29    1
    33    12    30    1
    34    13    31    1
    35    14    32    1
    36    15    33    1
    37    17    34    1
    38    18    35    1
    39    19    36    1
    40    19    37    1
    41    20    38    1
    42    20    39    1
