@<TRIPOS>MOLECULE
*****
 25 26 0 0 0
SMALL
GASTEIGER

@<TRIPOS>ATOM
      1 C          -3.8700    1.0945    0.0072 C.3     1  UNL1       -0.0397
      2 C          -2.5986    0.3426    0.0640 C.ar    1  UNL1       -0.0499
      3 C          -2.5910   -1.0276    0.2635 C.ar    1  UNL1       -0.0582
      4 C          -1.4221   -1.7284    0.3172 C.ar    1  UNL1       -0.0537
      5 C          -0.2188   -1.0345    0.1661 C.ar    1  UNL1       -0.0144
      6 C           0.9574   -1.7575    0.2227 C.ar    1  UNL1       -0.0116
      7 C           2.1656   -1.1178    0.0793 C.ar    1  UNL1        0.1314
      8 O           3.3849   -1.7813    0.1255 O.3     1  UNL1       -0.5059
      9 C           2.2046    0.2450   -0.1209 C.ar    1  UNL1        0.1007
     10 C           3.4872    0.9354   -0.2748 C.2     1  UNL1        0.3404
     11 O           4.5706    0.2988   -0.2269 O.2     1  UNL1       -0.2450
     12 O           3.5718    2.3004   -0.4772 O.3     1  UNL1       -0.4770
     13 C           1.0237    0.9555   -0.1755 C.ar    1  UNL1       -0.0365
     14 C          -0.2019    0.3210   -0.0322 C.ar    1  UNL1       -0.0166
     15 C          -1.3951    0.9995   -0.0816 C.ar    1  UNL1       -0.0511
     16 H          -4.6008    0.5068   -0.6064 H       1  UNL1        0.0278
     17 H          -4.3158    1.2728    1.0068 H       1  UNL1        0.0278
     18 H          -3.7068    2.0542   -0.5519 H       1  UNL1        0.0278
     19 H          -3.5297   -1.5620    0.3803 H       1  UNL1        0.0620
     20 H          -1.3692   -2.8112    0.4728 H       1  UNL1        0.0624
     21 H           0.9637   -2.8375    0.3799 H       1  UNL1        0.0660
     22 H           3.5776   -2.6461   -0.3347 H       1  UNL1        0.2922
     23 H           4.2841    2.8677   -0.0318 H       1  UNL1        0.2954
     24 H           0.9945    2.0266   -0.3305 H       1  UNL1        0.0633
     25 H          -1.3659    2.0833   -0.2409 H       1  UNL1        0.0626
@<TRIPOS>BOND
     1     1     2    1
     2     2     3   ar
     3     3     4   ar
     4     4     5   ar
     5     5     6   ar
     6     6     7   ar
     7     7     8    1
     8     7     9   ar
     9     9    10    1
    10    10    11    2
    11    10    12    1
    12     9    13   ar
    13    13    14   ar
    14    14    15   ar
    15    15     2   ar
    16    14     5   ar
    17     1    16    1
    18     1    17    1
    19     1    18    1
    20     3    19    1
    21     4    20    1
    22     6    21    1
    23     8    22    1
    24    12    23    1
    25    13    24    1
    26    15    25    1
