
     RDKit          3D

 25 26  0  0  0  0  0  0  0  0999 V2000
   -3.8700    1.0945    0.0072 C   0  0  0  0  0  0  0  0  0  0  0  0
   -2.5986    0.3426    0.0640 C   0  0  0  0  0  0  0  0  0  0  0  0
   -2.5910   -1.0276    0.2635 C   0  0  0  0  0  0  0  0  0  0  0  0
   -1.4221   -1.7284    0.3172 C   0  0  0  0  0  0  0  0  0  0  0  0
   -0.2188   -1.0345    0.1661 C   0  0  0  0  0  0  0  0  0  0  0  0
    0.9574   -1.7575    0.2227 C   0  0  0  0  0  0  0  0  0  0  0  0
    2.1656   -1.1178    0.0793 C   0  0  0  0  0  0  0  0  0  0  0  0
    3.3849   -1.7813    0.1255 O   0  0  0  0  0  0  0  0  0  0  0  0
    2.2046    0.2450   -0.1209 C   0  0  0  0  0  0  0  0  0  0  0  0
    3.4872    0.9354   -0.2748 C   0  0  0  0  0  0  0  0  0  0  0  0
    4.5706    0.2988   -0.2269 O   0  0  0  0  0  0  0  0  0  0  0  0
    3.5718    2.3004   -0.4772 O   0  0  0  0  0  0  0  0  0  0  0  0
    1.0237    0.9555   -0.1755 C   0  0  0  0  0  0  0  0  0  0  0  0
   -0.2019    0.3210   -0.0322 C   0  0  0  0  0  0  0  0  0  0  0  0
   -1.3951    0.9995   -0.0816 C   0  0  0  0  0  0  0  0  0  0  0  0
   -4.6008    0.5068   -0.6064 H   0  0  0  0  0  0  0  0  0  0  0  0
   -4.3158    1.2728    1.0068 H   0  0  0  0  0  0  0  0  0  0  0  0
   -3.7068    2.0542   -0.5519 H   0  0  0  0  0  0  0  0  0  0  0  0
   -3.5297   -1.5620    0.3803 H   0  0  0  0  0  0  0  0  0  0  0  0
   -1.3692   -2.8112    0.4728 H   0  0  0  0  0  0  0  0  0  0  0  0
    0.9637   -2.8375    0.3799 H   0  0  0  0  0  0  0  0  0  0  0  0
    3.5776   -2.6461   -0.3347 H   0  0  0  0  0  0  0  0  0  0  0  0
    4.2841    2.8677   -0.0318 H   0  0  0  0  0  0  0  0  0  0  0  0
    0.9945    2.0266   -0.3305 H   0  0  0  0  0  0  0  0  0  0  0  0
   -1.3659    2.0833   -0.2409 H   0  0  0  0  0  0  0  0  0  0  0  0
  1  2  1  0
  2  3  2  0
  3  4  1  0
  4  5  2  0
  5  6  1  0
  6  7  2  0
  7  8  1  0
  7  9  1  0
  9 10  1  0
 10 11  2  0
 10 12  1  0
  9 13  2  0
 13 14  1  0
 14 15  2  0
 15  2  1  0
 14  5  1  0
  1 16  1  0
  1 17  1  0
  1 18  1  0
  3 19  1  0
  4 20  1  0
  6 21  1  0
  8 22  1  0
 12 23  1  0
 13 24  1  0
 15 25  1  0
M  END
$$$$
