@<TRIPOS>MOLECULE
*****
 25 28 0 0 0
SMALL
GASTEIGER

@<TRIPOS>ATOM
      1 O           0.4298   -2.8794    0.3476 O.2     1  UNL1       -0.2866
      2 C           0.3095   -1.6378    0.1957 C.2     1  UNL1        0.1945
      3 C          -1.0258   -1.0484    0.1625 C.ar    1  UNL1        0.0335
      4 C          -2.1897   -1.7877    0.2905 C.ar    1  UNL1       -0.0502
      5 C          -3.4008   -1.1270    0.2446 C.ar    1  UNL1       -0.0591
      6 C          -3.4965    0.2591    0.0739 C.ar    1  UNL1       -0.0362
      7 C          -2.3653    1.0234   -0.0563 C.ar    1  UNL1        0.0670
      8 C          -1.1665    0.3066   -0.0029 C.ar    1  UNL1        0.0382
      9 C          -0.1227    1.1978   -0.1463 C.ar    1  UNL1        0.1016
     10 N          -0.6633    2.4149   -0.2823 N.ar    1  UNL1       -0.1727
     11 N          -1.9991    2.2913   -0.2262 N.ar    1  UNL1       -0.2764
     12 C           1.2292    0.6269   -0.1159 C.ar    1  UNL1        0.0135
     13 C           1.4635   -0.7238    0.0462 C.ar    1  UNL1        0.0315
     14 C           2.7327   -1.2634    0.0752 C.ar    1  UNL1       -0.0503
     15 C           3.8113   -0.3895   -0.0671 C.ar    1  UNL1       -0.0610
     16 C           3.5503    0.9539   -0.2275 C.ar    1  UNL1       -0.0611
     17 C           2.2894    1.5063   -0.2583 C.ar    1  UNL1       -0.0518
     18 H          -2.1090   -2.8541    0.4217 H       1  UNL1        0.0625
     19 H          -4.3216   -1.7101    0.3456 H       1  UNL1        0.0618
     20 H          -4.4413    0.7862    0.0365 H       1  UNL1        0.0639
     21 H          -2.7517    3.0277   -0.2956 H       1  UNL1        0.1889
     22 H           2.8800   -2.3267    0.2039 H       1  UNL1        0.0625
     23 H           4.8106   -0.7942   -0.0468 H       1  UNL1        0.0618
     24 H           4.4096    1.5909   -0.3334 H       1  UNL1        0.0618
     25 H           2.1372    2.5571   -0.3853 H       1  UNL1        0.0624
@<TRIPOS>BOND
     1     1     2    2
     2     2     3    1
     3     3     4   ar
     4     4     5   ar
     5     5     6   ar
     6     6     7   ar
     7     7     8   ar
     8     8     9   ar
     9     9    10   ar
    10    10    11   ar
    11     9    12    1
    12    12    13   ar
    13    13    14   ar
    14    14    15   ar
    15    15    16   ar
    16    16    17   ar
    17    13     2    1
    18     8     3   ar
    19    17    12   ar
    20    11     7   ar
    21     4    18    1
    22     5    19    1
    23     6    20    1
    24    11    21    1
    25    14    22    1
    26    15    23    1
    27    16    24    1
    28    17    25    1
