
     RDKit          3D

 52 55  0  0  0  0  0  0  0  0999 V2000
   -5.3420   -1.4150    2.0323 C   0  0  0  0  0  0  0  0  0  0  0  0
   -4.8469   -2.3169    0.9213 C   0  0  0  0  0  0  0  0  0  0  0  0
   -3.9367   -1.6449    0.0724 O   0  0  0  0  0  0  0  0  0  0  0  0
   -2.7546   -1.1004    0.4805 C   0  0  0  0  0  0  0  0  0  0  0  0
   -2.4120   -1.1773    1.6789 O   0  0  0  0  0  0  0  0  0  0  0  0
   -1.8363   -0.3964   -0.4953 C   0  0  0  0  0  0  0  0  0  0  0  0
   -1.4862   -1.4077   -1.5052 C   0  0  0  0  0  0  0  0  0  0  0  0
   -2.6286   -2.0780   -2.2677 C   0  0  0  0  0  0  0  0  0  0  0  0
   -0.2888   -1.7376   -1.7617 N   0  0  0  0  0  0  0  0  0  0  0  0
    0.8078   -1.1570   -1.0978 C   0  0  0  0  0  0  0  0  0  0  0  0
    2.0855   -1.5809   -1.3942 N   0  0  0  0  0  0  0  0  0  0  0  0
    3.1198   -1.0329   -0.7222 C   0  0  0  0  0  0  0  0  0  0  0  0
    2.9536   -0.0794    0.2359 C   0  0  0  0  0  0  0  0  0  0  0  0
    1.6954    0.3486    0.5380 C   0  0  0  0  0  0  0  0  0  0  0  0
    1.5248    1.3322    1.5366 N   0  0  0  0  0  0  0  0  0  0  0  0
    0.5930   -0.1991   -0.1422 C   0  0  0  0  0  0  0  0  0  0  0  0
   -0.7359    0.3037    0.1853 C   0  0  0  0  0  0  0  0  0  0  0  0
   -0.8444    1.7854    0.0077 C   0  0  0  0  0  0  0  0  0  0  0  0
   -0.9837    2.6218    1.0824 C   0  0  0  0  0  0  0  0  0  0  0  0
   -1.0817    4.0107    0.9393 C   0  0  0  0  0  0  0  0  0  0  0  0
   -1.0341    4.5274   -0.3323 C   0  0  0  0  0  0  0  0  0  0  0  0
   -1.1241    5.8470   -0.5128 F   0  0  0  0  0  0  0  0  0  0  0  0
   -0.8945    3.6769   -1.3976 C   0  0  0  0  0  0  0  0  0  0  0  0
   -0.7977    2.3093   -1.2604 C   0  0  0  0  0  0  0  0  0  0  0  0
    4.1506    0.4473    0.9002 C   0  0  0  0  0  0  0  0  0  0  0  0
    5.1296   -0.6489    1.2297 C   0  0  0  0  0  0  0  0  0  0  0  0
    5.4085   -1.5791    0.1009 C   0  0  0  0  0  0  0  0  0  0  0  0
    4.4774   -1.5014   -1.0560 C   0  0  0  0  0  0  0  0  0  0  0  0
   -5.6319   -0.4362    1.5980 H   0  0  0  0  0  0  0  0  0  0  0  0
   -4.5512   -1.3239    2.7815 H   0  0  0  0  0  0  0  0  0  0  0  0
   -6.2126   -1.9239    2.5008 H   0  0  0  0  0  0  0  0  0  0  0  0
   -4.4461   -3.2466    1.3441 H   0  0  0  0  0  0  0  0  0  0  0  0
   -5.7296   -2.5837    0.3007 H   0  0  0  0  0  0  0  0  0  0  0  0
   -2.4997    0.3853   -0.9543 H   0  0  0  0  0  0  0  0  0  0  0  0
   -2.9400   -2.9155   -1.6182 H   0  0  0  0  0  0  0  0  0  0  0  0
   -3.3899   -1.3178   -2.4393 H   0  0  0  0  0  0  0  0  0  0  0  0
   -2.1980   -2.5227   -3.1837 H   0  0  0  0  0  0  0  0  0  0  0  0
    1.8538    2.3183    1.4695 H   0  0  0  0  0  0  0  0  0  0  0  0
    1.0343    1.0545    2.4141 H   0  0  0  0  0  0  0  0  0  0  0  0
   -0.8617    0.1200    1.3048 H   0  0  0  0  0  0  0  0  0  0  0  0
   -1.0303    2.2621    2.1010 H   0  0  0  0  0  0  0  0  0  0  0  0
   -1.1913    4.6382    1.8206 H   0  0  0  0  0  0  0  0  0  0  0  0
   -0.8621    4.1423   -2.3928 H   0  0  0  0  0  0  0  0  0  0  0  0
   -0.6899    1.6682   -2.1003 H   0  0  0  0  0  0  0  0  0  0  0  0
    4.6714    1.2098    0.2551 H   0  0  0  0  0  0  0  0  0  0  0  0
    3.8965    0.9847    1.8321 H   0  0  0  0  0  0  0  0  0  0  0  0
    6.0506   -0.1443    1.5968 H   0  0  0  0  0  0  0  0  0  0  0  0
    4.7167   -1.1899    2.1090 H   0  0  0  0  0  0  0  0  0  0  0  0
    6.4391   -1.3862   -0.2661 H   0  0  0  0  0  0  0  0  0  0  0  0
    5.4165   -2.6200    0.4871 H   0  0  0  0  0  0  0  0  0  0  0  0
    4.3738   -2.5007   -1.5257 H   0  0  0  0  0  0  0  0  0  0  0  0
    4.8638   -0.8296   -1.8575 H   0  0  0  0  0  0  0  0  0  0  0  0
  1  2  1  0
  2  3  1  0
  3  4  1  0
  4  5  2  0
  4  6  1  0
  6  7  1  0
  7  8  1  0
  7  9  2  0
  9 10  1  0
 10 11  2  0
 11 12  1  0
 12 13  2  0
 13 14  1  0
 14 15  1  0
 14 16  2  0
 16 17  1  0
 17 18  1  0
 18 19  2  0
 19 20  1  0
 20 21  2  0
 21 22  1  0
 21 23  1  0
 23 24  2  0
 13 25  1  0
 25 26  1  0
 26 27  1  0
 27 28  1  0
 17  6  1  0
 24 18  1  0
 16 10  1  0
 28 12  1  0
  1 29  1  0
  1 30  1  0
  1 31  1  0
  2 32  1  0
  2 33  1  0
  6 34  1  0
  8 35  1  0
  8 36  1  0
  8 37  1  0
 15 38  1  0
 15 39  1  0
 17 40  1  0
 19 41  1  0
 20 42  1  0
 23 43  1  0
 24 44  1  0
 25 45  1  0
 25 46  1  0
 26 47  1  0
 26 48  1  0
 27 49  1  0
 27 50  1  0
 28 51  1  0
 28 52  1  0
M  END
$$$$
