@<TRIPOS>MOLECULE
*****
 52 55 0 0 0
SMALL
GASTEIGER

@<TRIPOS>ATOM
      1 C          -5.3420   -1.4150    2.0323 C.3     1  UNL1       -0.0306
      2 C          -4.8469   -2.3169    0.9213 C.3     1  UNL1        0.0897
      3 O          -3.9367   -1.6449    0.0724 O.3     1  UNL1       -0.4644
      4 C          -2.7546   -1.1004    0.4805 C.2     1  UNL1        0.3167
      5 O          -2.4120   -1.1773    1.6789 O.2     1  UNL1       -0.2501
      6 C          -1.8363   -0.3964   -0.4953 C.3     1  UNL1        0.1052
      7 C          -1.4862   -1.4077   -1.5052 C.2     1  UNL1        0.0328
      8 C          -2.6286   -2.0780   -2.2677 C.3     1  UNL1       -0.0254
      9 N          -0.2888   -1.7376   -1.7617 N.2     1  UNL1       -0.2362
     10 C           0.8078   -1.1570   -1.0978 C.ar    1  UNL1        0.1583
     11 N           2.0855   -1.5809   -1.3942 N.ar    1  UNL1       -0.2322
     12 C           3.1198   -1.0329   -0.7222 C.ar    1  UNL1        0.0486
     13 C           2.9536   -0.0794    0.2359 C.ar    1  UNL1       -0.0050
     14 C           1.6954    0.3486    0.5380 C.ar    1  UNL1        0.0369
     15 N           1.5248    1.3322    1.5366 N.pl3   1  UNL1       -0.3574
     16 C           0.5930   -0.1991   -0.1422 C.ar    1  UNL1        0.0261
     17 C          -0.7359    0.3037    0.1853 C.3     1  UNL1        0.0326
     18 C          -0.8444    1.7854    0.0077 C.ar    1  UNL1       -0.0385
     19 C          -0.9837    2.6218    1.0824 C.ar    1  UNL1       -0.0552
     20 C          -1.0817    4.0107    0.9393 C.ar    1  UNL1       -0.0262
     21 C          -1.0341    4.5274   -0.3323 C.ar    1  UNL1        0.1234
     22 F          -1.1241    5.8470   -0.5128 F       1  UNL1       -0.2055
     23 C          -0.8945    3.6769   -1.3976 C.ar    1  UNL1       -0.0262
     24 C          -0.7977    2.3093   -1.2604 C.ar    1  UNL1       -0.0552
     25 C           4.1506    0.4473    0.9002 C.3     1  UNL1       -0.0242
     26 C           5.1296   -0.6489    1.2297 C.3     1  UNL1       -0.0486
     27 C           5.4085   -1.5791    0.1009 C.3     1  UNL1       -0.0473
     28 C           4.4774   -1.5014   -1.0560 C.3     1  UNL1       -0.0100
     29 H          -5.6319   -0.4362    1.5980 H       1  UNL1        0.0262
     30 H          -4.5512   -1.3239    2.7815 H       1  UNL1        0.0262
     31 H          -6.2126   -1.9239    2.5008 H       1  UNL1        0.0262
     32 H          -4.4461   -3.2466    1.3441 H       1  UNL1        0.0694
     33 H          -5.7296   -2.5837    0.3007 H       1  UNL1        0.0694
     34 H          -2.4997    0.3853   -0.9543 H       1  UNL1        0.0484
     35 H          -2.9400   -2.9155   -1.6182 H       1  UNL1        0.0290
     36 H          -3.3899   -1.3178   -2.4393 H       1  UNL1        0.0290
     37 H          -2.1980   -2.5227   -3.1837 H       1  UNL1        0.0290
     38 H           1.8538    2.3183    1.4695 H       1  UNL1        0.1423
     39 H           1.0343    1.0545    2.4141 H       1  UNL1        0.1423
     40 H          -0.8617    0.1200    1.3048 H       1  UNL1        0.0411
     41 H          -1.0303    2.2621    2.1010 H       1  UNL1        0.0621
     42 H          -1.1913    4.6382    1.8206 H       1  UNL1        0.0646
     43 H          -0.8621    4.1423   -2.3928 H       1  UNL1        0.0646
     44 H          -0.6899    1.6682   -2.1003 H       1  UNL1        0.0621
     45 H           4.6714    1.2098    0.2551 H       1  UNL1        0.0314
     46 H           3.8965    0.9847    1.8321 H       1  UNL1        0.0314
     47 H           6.0506   -0.1443    1.5968 H       1  UNL1        0.0269
     48 H           4.7167   -1.1899    2.1090 H       1  UNL1        0.0269
     49 H           6.4391   -1.3862   -0.2661 H       1  UNL1        0.0269
     50 H           5.4165   -2.6200    0.4871 H       1  UNL1        0.0269
     51 H           4.3738   -2.5007   -1.5257 H       1  UNL1        0.0328
     52 H           4.8638   -0.8296   -1.8575 H       1  UNL1        0.0328
@<TRIPOS>BOND
     1     1     2    1
     2     2     3    1
     3     3     4    1
     4     4     5    2
     5     4     6    1
     6     6     7    1
     7     7     8    1
     8     7     9    2
     9     9    10    1
    10    10    11   ar
    11    11    12   ar
    12    12    13   ar
    13    13    14   ar
    14    14    15    1
    15    14    16   ar
    16    16    17    1
    17    17    18    1
    18    18    19   ar
    19    19    20   ar
    20    20    21   ar
    21    21    22    1
    22    21    23   ar
    23    23    24   ar
    24    13    25    1
    25    25    26    1
    26    26    27    1
    27    27    28    1
    28    17     6    1
    29    24    18   ar
    30    16    10   ar
    31    28    12    1
    32     1    29    1
    33     1    30    1
    34     1    31    1
    35     2    32    1
    36     2    33    1
    37     6    34    1
    38     8    35    1
    39     8    36    1
    40     8    37    1
    41    15    38    1
    42    15    39    1
    43    17    40    1
    44    19    41    1
    45    20    42    1
    46    23    43    1
    47    24    44    1
    48    25    45    1
    49    25    46    1
    50    26    47    1
    51    26    48    1
    52    27    49    1
    53    27    50    1
    54    28    51    1
    55    28    52    1
