
     RDKit          3D

 54 59  0  0  0  0  0  0  0  0999 V2000
    3.9876    3.1826    1.1955 N   0  0  0  0  0  0  0  0  0  0  0  0
    3.5146    2.3616    0.5065 C   0  0  0  0  0  0  0  0  0  0  0  0
    2.9436    1.3305   -0.3394 C   0  0  0  0  0  0  0  0  0  0  0  0
    1.7033    0.8611   -0.0251 C   0  0  0  0  0  0  0  0  0  0  0  0
    1.0579   -0.0842   -0.7965 C   0  0  0  0  0  0  0  0  0  0  0  0
   -0.2625   -0.5478   -0.4038 C   0  0  0  0  0  0  0  0  0  0  0  0
   -0.6270   -0.6562    0.9377 C   0  0  0  0  0  0  0  0  0  0  0  0
   -1.8658   -1.0476    1.2677 N   0  0  0  0  0  0  0  0  0  0  0  0
   -2.7867   -1.3441    0.3646 C   0  0  0  0  0  0  0  0  0  0  0  0
   -4.1088   -1.7523    0.4881 C   0  0  0  0  0  0  0  0  0  0  0  0
   -4.8533   -2.0020    1.7150 C   0  0  0  0  0  0  0  0  0  0  0  0
   -4.9338   -3.3142    2.2311 C   0  0  0  0  0  0  0  0  0  0  0  0
   -5.6590   -3.5296    3.3928 C   0  0  0  0  0  0  0  0  0  0  0  0
   -6.2814   -2.5442    4.0419 N   0  0  0  0  0  0  0  0  0  0  0  0
   -6.2361   -1.2475    3.5857 C   0  0  0  0  0  0  0  0  0  0  0  0
   -6.8789   -0.2674    4.3058 C   0  0  0  0  0  0  0  0  0  0  0  0
   -6.7957    1.0199    3.8362 C   0  0  0  0  0  0  0  0  0  0  0  0
   -6.0942    1.3108    2.6866 C   0  0  0  0  0  0  0  0  0  0  0  0
   -5.4717    0.3007    2.0052 C   0  0  0  0  0  0  0  0  0  0  0  0
   -5.5149   -1.0484    2.4331 C   0  0  0  0  0  0  0  0  0  0  0  0
   -4.5403   -1.8881   -0.8201 C   0  0  0  0  0  0  0  0  0  0  0  0
   -3.5425   -1.5825   -1.6748 N   0  0  0  0  0  0  0  0  0  0  0  0
   -2.4806   -1.2534   -0.9573 N   0  0  0  0  0  0  0  0  0  0  0  0
   -1.2443   -0.8638   -1.3198 C   0  0  0  0  0  0  0  0  0  0  0  0
    1.7532   -0.5176   -1.9026 C   0  0  0  0  0  0  0  0  0  0  0  0
    3.0078   -0.0435   -2.2219 C   0  0  0  0  0  0  0  0  0  0  0  0
    3.6587    0.9109   -1.4425 C   0  0  0  0  0  0  0  0  0  0  0  0
    4.9324    1.3599   -1.8277 N   0  0  0  0  0  0  0  0  0  0  0  0
    6.1158    1.2734   -0.9954 C   0  0  0  0  0  0  0  0  0  0  0  0
    7.3053    0.7212   -1.7229 C   0  0  0  0  0  0  0  0  0  0  0  0
    7.3825    1.1968   -3.0921 N   0  0  0  0  0  0  0  0  0  0  0  0
    6.5359    2.3573   -3.2910 C   0  0  0  0  0  0  0  0  0  0  0  0
    5.1045    1.9493   -3.1470 C   0  0  0  0  0  0  0  0  0  0  0  0
    1.1520    1.2201    0.8636 H   0  0  0  0  0  0  0  0  0  0  0  0
    0.0900   -0.4265    1.6978 H   0  0  0  0  0  0  0  0  0  0  0  0
   -4.4402   -4.1090    1.7295 H   0  0  0  0  0  0  0  0  0  0  0  0
   -5.7439   -4.5279    3.8190 H   0  0  0  0  0  0  0  0  0  0  0  0
   -7.4172   -0.4921    5.1858 H   0  0  0  0  0  0  0  0  0  0  0  0
   -7.2786    1.8048    4.3687 H   0  0  0  0  0  0  0  0  0  0  0  0
   -6.0583    2.3391    2.3639 H   0  0  0  0  0  0  0  0  0  0  0  0
   -4.9133    0.4734    1.0980 H   0  0  0  0  0  0  0  0  0  0  0  0
   -5.5401   -2.1962   -1.1292 H   0  0  0  0  0  0  0  0  0  0  0  0
   -0.9788   -0.7837   -2.3862 H   0  0  0  0  0  0  0  0  0  0  0  0
    1.2804   -1.2588   -2.5374 H   0  0  0  0  0  0  0  0  0  0  0  0
    3.5278   -0.4090   -3.1112 H   0  0  0  0  0  0  0  0  0  0  0  0
    5.8753    0.5312   -0.1849 H   0  0  0  0  0  0  0  0  0  0  0  0
    6.3715    2.2626   -0.5479 H   0  0  0  0  0  0  0  0  0  0  0  0
    7.3525   -0.3739   -1.6240 H   0  0  0  0  0  0  0  0  0  0  0  0
    8.2145    1.1235   -1.2080 H   0  0  0  0  0  0  0  0  0  0  0  0
    6.9874    0.4289   -3.6943 H   0  0  0  0  0  0  0  0  0  0  0  0
    6.7534    3.1807   -2.6021 H   0  0  0  0  0  0  0  0  0  0  0  0
    6.7012    2.7163   -4.3280 H   0  0  0  0  0  0  0  0  0  0  0  0
    4.3907    2.7794   -3.2638 H   0  0  0  0  0  0  0  0  0  0  0  0
    4.8481    1.1152   -3.8636 H   0  0  0  0  0  0  0  0  0  0  0  0
  1  2  3  0
  2  3  1  0
  3  4  2  0
  4  5  1  0
  5  6  1  0
  6  7  1  0
  7  8  2  0
  8  9  1  0
  9 10  2  0
 10 11  1  0
 11 12  2  0
 12 13  1  0
 13 14  2  0
 14 15  1  0
 15 16  2  0
 16 17  1  0
 17 18  2  0
 18 19  1  0
 19 20  2  0
 10 21  1  0
 21 22  2  0
 22 23  1  0
 23 24  1  0
  5 25  2  0
 25 26  1  0
 26 27  2  0
 27 28  1  0
 28 29  1  0
 29 30  1  0
 30 31  1  0
 31 32  1  0
 32 33  1  0
 27  3  1  0
 33 28  1  0
 24  6  2  0
 23  9  1  0
 20 11  1  0
 20 15  1  0
  4 34  1  0
  7 35  1  0
 12 36  1  0
 13 37  1  0
 16 38  1  0
 17 39  1  0
 18 40  1  0
 19 41  1  0
 21 42  1  0
 24 43  1  0
 25 44  1  0
 26 45  1  0
 29 46  1  0
 29 47  1  0
 30 48  1  0
 30 49  1  0
 31 50  1  0
 32 51  1  0
 32 52  1  0
 33 53  1  0
 33 54  1  0
M  END
$$$$
