@<TRIPOS>MOLECULE
*****
 54 59 0 0 0
SMALL
GASTEIGER

@<TRIPOS>ATOM
      1 N           3.9876    3.1826    1.1955 N.1     1  UNL1       -0.1908
      2 C           3.5146    2.3616    0.5065 C.1     1  UNL1        0.1010
      3 C           2.9436    1.3305   -0.3394 C.ar    1  UNL1        0.0733
      4 C           1.7033    0.8611   -0.0251 C.ar    1  UNL1       -0.0347
      5 C           1.0579   -0.0842   -0.7965 C.ar    1  UNL1       -0.0137
      6 C          -0.2625   -0.5478   -0.4038 C.ar    1  UNL1        0.0185
      7 C          -0.6270   -0.6562    0.9377 C.ar    1  UNL1        0.0391
      8 N          -1.8658   -1.0476    1.2677 N.ar    1  UNL1       -0.2350
      9 C          -2.7867   -1.3441    0.3646 C.ar    1  UNL1        0.1632
     10 C          -4.1088   -1.7523    0.4881 C.ar    1  UNL1        0.0467
     11 C          -4.8533   -2.0020    1.7150 C.ar    1  UNL1       -0.0022
     12 C          -4.9338   -3.3142    2.2311 C.ar    1  UNL1       -0.0351
     13 C          -5.6590   -3.5296    3.3928 C.ar    1  UNL1        0.0288
     14 N          -6.2814   -2.5442    4.0419 N.ar    1  UNL1       -0.2549
     15 C          -6.2361   -1.2475    3.5857 C.ar    1  UNL1        0.0715
     16 C          -6.8789   -0.2674    4.3058 C.ar    1  UNL1       -0.0357
     17 C          -6.7957    1.0199    3.8362 C.ar    1  UNL1       -0.0597
     18 C          -6.0942    1.3108    2.6866 C.ar    1  UNL1       -0.0611
     19 C          -5.4717    0.3007    2.0052 C.ar    1  UNL1       -0.0520
     20 C          -5.5149   -1.0484    2.4331 C.ar    1  UNL1        0.0082
     21 C          -4.5403   -1.8881   -0.8201 C.ar    1  UNL1        0.0597
     22 N          -3.5425   -1.5825   -1.6748 N.ar    1  UNL1       -0.1727
     23 N          -2.4806   -1.2534   -0.9573 N.ar    1  UNL1       -0.2206
     24 C          -1.2443   -0.8638   -1.3198 C.ar    1  UNL1        0.0406
     25 C           1.7532   -0.5176   -1.9026 C.ar    1  UNL1       -0.0521
     26 C           3.0078   -0.0435   -2.2219 C.ar    1  UNL1       -0.0388
     27 C           3.6587    0.9109   -1.4425 C.ar    1  UNL1        0.0474
     28 N           4.9324    1.3599   -1.8277 N.pl3   1  UNL1       -0.3265
     29 C           6.1158    1.2734   -0.9954 C.3     1  UNL1        0.0248
     30 C           7.3053    0.7212   -1.7229 C.3     1  UNL1        0.0117
     31 N           7.3825    1.1968   -3.0921 N.3     1  UNL1       -0.3130
     32 C           6.5359    2.3573   -3.2910 C.3     1  UNL1        0.0117
     33 C           5.1045    1.9493   -3.1470 C.3     1  UNL1        0.0248
     34 H           1.1520    1.2201    0.8636 H       1  UNL1        0.0637
     35 H           0.0900   -0.4265    1.6978 H       1  UNL1        0.0837
     36 H          -4.4402   -4.1090    1.7295 H       1  UNL1        0.0639
     37 H          -5.7439   -4.5279    3.8190 H       1  UNL1        0.0830
     38 H          -7.4172   -0.4921    5.1858 H       1  UNL1        0.0639
     39 H          -7.2786    1.8048    4.3687 H       1  UNL1        0.0618
     40 H          -6.0583    2.3391    2.3639 H       1  UNL1        0.0618
     41 H          -4.9133    0.4734    1.0980 H       1  UNL1        0.0624
     42 H          -5.5401   -2.1962   -1.1292 H       1  UNL1        0.0855
     43 H          -0.9788   -0.7837   -2.3862 H       1  UNL1        0.0837
     44 H           1.2804   -1.2588   -2.5374 H       1  UNL1        0.0624
     45 H           3.5278   -0.4090   -3.1112 H       1  UNL1        0.0637
     46 H           5.8753    0.5312   -0.1849 H       1  UNL1        0.0476
     47 H           6.3715    2.2626   -0.5479 H       1  UNL1        0.0476
     48 H           7.3525   -0.3739   -1.6240 H       1  UNL1        0.0439
     49 H           8.2145    1.1235   -1.2080 H       1  UNL1        0.0439
     50 H           6.9874    0.4289   -3.6943 H       1  UNL1        0.1220
     51 H           6.7534    3.1807   -2.6021 H       1  UNL1        0.0439
     52 H           6.7012    2.7163   -4.3280 H       1  UNL1        0.0439
     53 H           4.3907    2.7794   -3.2638 H       1  UNL1        0.0476
     54 H           4.8481    1.1152   -3.8636 H       1  UNL1        0.0476
@<TRIPOS>BOND
     1     1     2    3
     2     2     3    1
     3     3     4   ar
     4     4     5   ar
     5     5     6    1
     6     6     7   ar
     7     7     8   ar
     8     8     9   ar
     9     9    10   ar
    10    10    11    1
    11    11    12   ar
    12    12    13   ar
    13    13    14   ar
    14    14    15   ar
    15    15    16   ar
    16    16    17   ar
    17    17    18   ar
    18    18    19   ar
    19    19    20   ar
    20    10    21   ar
    21    21    22   ar
    22    22    23   ar
    23    23    24   ar
    24     5    25   ar
    25    25    26   ar
    26    26    27   ar
    27    27    28    1
    28    28    29    1
    29    29    30    1
    30    30    31    1
    31    31    32    1
    32    32    33    1
    33    27     3   ar
    34    33    28    1
    35    24     6   ar
    36    23     9   ar
    37    20    11   ar
    38    20    15   ar
    39     4    34    1
    40     7    35    1
    41    12    36    1
    42    13    37    1
    43    16    38    1
    44    17    39    1
    45    18    40    1
    46    19    41    1
    47    21    42    1
    48    24    43    1
    49    25    44    1
    50    26    45    1
    51    29    46    1
    52    29    47    1
    53    30    48    1
    54    30    49    1
    55    31    50    1
    56    32    51    1
    57    32    52    1
    58    33    53    1
    59    33    54    1
