@<TRIPOS>MOLECULE
*****
 42 45 0 0 0
SMALL
GASTEIGER

@<TRIPOS>ATOM
      1 C           5.1280    0.9877    0.1552 C.3     1  UNL1       -0.0125
      2 N           3.7552    0.6316    0.1790 N.3     1  UNL1       -0.2982
      3 C           3.1846    0.3052   -1.0958 C.3     1  UNL1        0.0348
      4 C           2.0418   -0.6819   -0.7448 C.3     1  UNL1        0.0933
      5 N           1.2060   -0.0877    0.2621 N.pl3   1  UNL1       -0.2176
      6 C          -0.2035   -0.1014    0.0934 C.2     1  UNL1        0.3231
      7 N          -0.7483    1.0537   -0.2068 N.2     1  UNL1       -0.0395
      8 C          -2.1033    1.3680   -0.4366 C.ar    1  UNL1        0.1988
      9 C          -2.3354    2.7338   -0.3771 C.ar    1  UNL1        0.0093
     10 C          -3.6201    3.1760   -0.5959 C.ar    1  UNL1        0.0452
     11 CL         -4.0221    4.8971   -0.5425 Cl      1  UNL1       -0.0834
     12 C          -4.6391    2.2887   -0.8646 C.ar    1  UNL1       -0.0414
     13 C          -4.3809    0.9331   -0.9179 C.ar    1  UNL1       -0.0349
     14 C          -3.1264    0.4606   -0.7073 C.ar    1  UNL1        0.0829
     15 N          -3.0750   -0.9616   -0.7984 N.pl3   1  UNL1       -0.3104
     16 C          -2.1013   -1.7755   -0.1438 C.ar    1  UNL1        0.0464
     17 C          -2.5523   -3.0577    0.0848 C.ar    1  UNL1       -0.0397
     18 C          -1.7100   -3.9377    0.7264 C.ar    1  UNL1       -0.0600
     19 C          -0.4483   -3.5823    1.1415 C.ar    1  UNL1       -0.0608
     20 C           0.0133   -2.2820    0.9112 C.ar    1  UNL1       -0.0451
     21 C          -0.8159   -1.4146    0.2785 C.ar    1  UNL1        0.0867
     22 C           1.7512    0.5683    1.4346 C.3     1  UNL1        0.0933
     23 C           2.9180    1.4810    0.9818 C.3     1  UNL1        0.0348
     24 H           5.4475    1.5702   -0.7319 H       1  UNL1        0.0391
     25 H           5.7449    0.0572    0.1516 H       1  UNL1        0.0391
     26 H           5.3584    1.5292    1.1037 H       1  UNL1        0.0391
     27 H           2.7015    1.1768   -1.5544 H       1  UNL1        0.0463
     28 H           3.8995   -0.2255   -1.7203 H       1  UNL1        0.0463
     29 H           1.5303   -0.8799   -1.6809 H       1  UNL1        0.0739
     30 H           2.5822   -1.5863   -0.4145 H       1  UNL1        0.0739
     31 H          -1.5299    3.4249   -0.1655 H       1  UNL1        0.0676
     32 H          -5.6615    2.6409   -1.0388 H       1  UNL1        0.0633
     33 H          -5.1672    0.2093   -1.1293 H       1  UNL1        0.0638
     34 H          -3.7828   -1.4447   -1.3630 H       1  UNL1        0.1523
     35 H          -3.5601   -3.3176   -0.2555 H       1  UNL1        0.0636
     36 H          -2.0936   -4.9390    0.8916 H       1  UNL1        0.0618
     37 H           0.2140   -4.2864    1.6503 H       1  UNL1        0.0618
     38 H           1.0022   -2.0094    1.2459 H       1  UNL1        0.0627
     39 H           1.0234    1.1846    1.9588 H       1  UNL1        0.0739
     40 H           2.2480   -0.2099    2.0414 H       1  UNL1        0.0739
     41 H           3.4646    1.7867    1.8757 H       1  UNL1        0.0463
     42 H           2.4623    2.3165    0.4448 H       1  UNL1        0.0463
@<TRIPOS>BOND
     1     1     2    1
     2     2     3    1
     3     3     4    1
     4     4     5    1
     5     5     6    1
     6     6     7    2
     7     7     8    1
     8     8     9   ar
     9     9    10   ar
    10    10    11    1
    11    10    12   ar
    12    12    13   ar
    13    13    14   ar
    14    14    15    1
    15    15    16    1
    16    16    17   ar
    17    17    18   ar
    18    18    19   ar
    19    19    20   ar
    20    20    21   ar
    21     5    22    1
    22    22    23    1
    23    23     2    1
    24    21     6    1
    25    14     8   ar
    26    21    16   ar
    27     1    24    1
    28     1    25    1
    29     1    26    1
    30     3    27    1
    31     3    28    1
    32     4    29    1
    33     4    30    1
    34     9    31    1
    35    12    32    1
    36    13    33    1
    37    15    34    1
    38    17    35    1
    39    18    36    1
    40    19    37    1
    41    20    38    1
    42    22    39    1
    43    22    40    1
    44    23    41    1
    45    23    42    1
