
     RDKit          3D

 42 45  0  0  0  0  0  0  0  0999 V2000
    5.1280    0.9877    0.1552 C   0  0  0  0  0  0  0  0  0  0  0  0
    3.7552    0.6316    0.1790 N   0  0  0  0  0  0  0  0  0  0  0  0
    3.1846    0.3052   -1.0958 C   0  0  0  0  0  0  0  0  0  0  0  0
    2.0418   -0.6819   -0.7448 C   0  0  0  0  0  0  0  0  0  0  0  0
    1.2060   -0.0877    0.2621 N   0  0  0  0  0  0  0  0  0  0  0  0
   -0.2035   -0.1014    0.0934 C   0  0  0  0  0  0  0  0  0  0  0  0
   -0.7483    1.0537   -0.2068 N   0  0  0  0  0  0  0  0  0  0  0  0
   -2.1033    1.3680   -0.4366 C   0  0  0  0  0  0  0  0  0  0  0  0
   -2.3354    2.7338   -0.3771 C   0  0  0  0  0  0  0  0  0  0  0  0
   -3.6201    3.1760   -0.5959 C   0  0  0  0  0  0  0  0  0  0  0  0
   -4.0221    4.8971   -0.5425 Cl  0  0  0  0  0  0  0  0  0  0  0  0
   -4.6391    2.2887   -0.8646 C   0  0  0  0  0  0  0  0  0  0  0  0
   -4.3809    0.9331   -0.9179 C   0  0  0  0  0  0  0  0  0  0  0  0
   -3.1264    0.4606   -0.7073 C   0  0  0  0  0  0  0  0  0  0  0  0
   -3.0750   -0.9616   -0.7984 N   0  0  0  0  0  0  0  0  0  0  0  0
   -2.1013   -1.7755   -0.1438 C   0  0  0  0  0  0  0  0  0  0  0  0
   -2.5523   -3.0577    0.0848 C   0  0  0  0  0  0  0  0  0  0  0  0
   -1.7100   -3.9377    0.7264 C   0  0  0  0  0  0  0  0  0  0  0  0
   -0.4483   -3.5823    1.1415 C   0  0  0  0  0  0  0  0  0  0  0  0
    0.0133   -2.2820    0.9112 C   0  0  0  0  0  0  0  0  0  0  0  0
   -0.8159   -1.4146    0.2785 C   0  0  0  0  0  0  0  0  0  0  0  0
    1.7512    0.5683    1.4346 C   0  0  0  0  0  0  0  0  0  0  0  0
    2.9180    1.4810    0.9818 C   0  0  0  0  0  0  0  0  0  0  0  0
    5.4475    1.5702   -0.7319 H   0  0  0  0  0  0  0  0  0  0  0  0
    5.7449    0.0572    0.1516 H   0  0  0  0  0  0  0  0  0  0  0  0
    5.3584    1.5292    1.1037 H   0  0  0  0  0  0  0  0  0  0  0  0
    2.7015    1.1768   -1.5544 H   0  0  0  0  0  0  0  0  0  0  0  0
    3.8995   -0.2255   -1.7203 H   0  0  0  0  0  0  0  0  0  0  0  0
    1.5303   -0.8799   -1.6809 H   0  0  0  0  0  0  0  0  0  0  0  0
    2.5822   -1.5863   -0.4145 H   0  0  0  0  0  0  0  0  0  0  0  0
   -1.5299    3.4249   -0.1655 H   0  0  0  0  0  0  0  0  0  0  0  0
   -5.6615    2.6409   -1.0388 H   0  0  0  0  0  0  0  0  0  0  0  0
   -5.1672    0.2093   -1.1293 H   0  0  0  0  0  0  0  0  0  0  0  0
   -3.7828   -1.4447   -1.3630 H   0  0  0  0  0  0  0  0  0  0  0  0
   -3.5601   -3.3176   -0.2555 H   0  0  0  0  0  0  0  0  0  0  0  0
   -2.0936   -4.9390    0.8916 H   0  0  0  0  0  0  0  0  0  0  0  0
    0.2140   -4.2864    1.6503 H   0  0  0  0  0  0  0  0  0  0  0  0
    1.0022   -2.0094    1.2459 H   0  0  0  0  0  0  0  0  0  0  0  0
    1.0234    1.1846    1.9588 H   0  0  0  0  0  0  0  0  0  0  0  0
    2.2480   -0.2099    2.0414 H   0  0  0  0  0  0  0  0  0  0  0  0
    3.4646    1.7867    1.8757 H   0  0  0  0  0  0  0  0  0  0  0  0
    2.4623    2.3165    0.4448 H   0  0  0  0  0  0  0  0  0  0  0  0
  1  2  1  0
  2  3  1  0
  3  4  1  0
  4  5  1  0
  5  6  1  0
  6  7  2  0
  7  8  1  0
  8  9  2  0
  9 10  1  0
 10 11  1  0
 10 12  2  0
 12 13  1  0
 13 14  2  0
 14 15  1  0
 15 16  1  0
 16 17  2  0
 17 18  1  0
 18 19  2  0
 19 20  1  0
 20 21  2  0
  5 22  1  0
 22 23  1  0
 23  2  1  0
 21  6  1  0
 14  8  1  0
 21 16  1  0
  1 24  1  0
  1 25  1  0
  1 26  1  0
  3 27  1  0
  3 28  1  0
  4 29  1  0
  4 30  1  0
  9 31  1  0
 12 32  1  0
 13 33  1  0
 15 34  1  0
 17 35  1  0
 18 36  1  0
 19 37  1  0
 20 38  1  0
 22 39  1  0
 22 40  1  0
 23 41  1  0
 23 42  1  0
M  END
$$$$
