@<TRIPOS>MOLECULE
*****
 49 52 0 0 0
SMALL
GASTEIGER

@<TRIPOS>ATOM
      1 C          -1.8980   -1.4867   -0.4846 C.3     1  UNL1       -0.0165
      2 C          -1.8571   -0.0399   -0.0288 C.3     1  UNL1        0.1799
      3 C          -2.0509   -0.0671    1.4870 C.3     1  UNL1       -0.0165
      4 O          -2.9443    0.6460   -0.5698 O.3     1  UNL1       -0.4770
      5 C          -4.2647    0.3518   -0.3658 C.ar    1  UNL1        0.1221
      6 C          -5.0326    0.8794    0.6611 C.ar    1  UNL1       -0.0185
      7 C          -6.3598    0.5528    0.8261 C.ar    1  UNL1       -0.0399
      8 C          -6.9852   -0.3241   -0.0359 C.ar    1  UNL1        0.0412
      9 CL         -8.6819   -0.7504    0.1636 Cl      1  UNL1       -0.0835
     10 C          -6.2371   -0.8581   -1.0622 C.ar    1  UNL1       -0.0399
     11 C          -4.9033   -0.5245   -1.2210 C.ar    1  UNL1       -0.0185
     12 C          -0.5874    0.5862   -0.4082 C.2     1  UNL1        0.2566
     13 O          -0.5644    1.6130   -1.1345 O.2     1  UNL1       -0.2714
     14 N           0.6775    0.0903    0.0072 N.am    1  UNL1       -0.3087
     15 C           1.9153    0.6839   -0.3508 C.3     1  UNL1        0.0294
     16 C           2.5702    1.1747    0.9426 C.3     1  UNL1       -0.0151
     17 C           3.8046    1.9883    0.6576 C.3     1  UNL1       -0.0218
     18 C           4.7905    1.0925   -0.0542 C.3     1  UNL1        0.0626
     19 C           4.1454    0.5980   -1.3171 C.3     1  UNL1       -0.0218
     20 C           2.8986   -0.2365   -1.0162 C.3     1  UNL1       -0.0151
     21 C           3.3423   -1.3744   -0.1415 C.3     1  UNL1        0.0058
     22 C           4.0390   -0.7760    1.0792 C.3     1  UNL1        0.1681
     23 O           4.4969   -1.7878    1.9140 O.3     1  UNL1       -0.3644
     24 C           2.9539    0.0178    1.8150 C.3     1  UNL1        0.0058
     25 O           5.1093    0.0110    0.7345 O.3     1  UNL1       -0.3456
     26 H          -2.0379   -1.4739   -1.5840 H       1  UNL1        0.0273
     27 H          -2.6816   -2.0573    0.0442 H       1  UNL1        0.0273
     28 H          -0.9297   -1.9646   -0.2663 H       1  UNL1        0.0273
     29 H          -3.1176   -0.3428    1.6443 H       1  UNL1        0.0273
     30 H          -1.8252    0.9016    1.9458 H       1  UNL1        0.0273
     31 H          -1.4478   -0.9074    1.8862 H       1  UNL1        0.0273
     32 H          -4.5392    1.5667    1.3352 H       1  UNL1        0.0654
     33 H          -6.9535    0.9721    1.6347 H       1  UNL1        0.0633
     34 H          -6.7319   -1.5578   -1.7517 H       1  UNL1        0.0633
     35 H          -4.3832   -0.9832   -2.0481 H       1  UNL1        0.0654
     36 H           0.6756   -0.7602    0.6096 H       1  UNL1        0.1491
     37 H           1.8176    1.5799   -0.9908 H       1  UNL1        0.0504
     38 H           1.8292    1.7854    1.5212 H       1  UNL1        0.0321
     39 H           3.5061    2.8333    0.0066 H       1  UNL1        0.0293
     40 H           4.1744    2.3871    1.6016 H       1  UNL1        0.0293
     41 H           5.7088    1.6217   -0.3264 H       1  UNL1        0.0597
     42 H           3.8699    1.4932   -1.9375 H       1  UNL1        0.0293
     43 H           4.8657   -0.0088   -1.9044 H       1  UNL1        0.0293
     44 H           2.5542   -0.5786   -2.0163 H       1  UNL1        0.0321
     45 H           4.0928   -1.9541   -0.7063 H       1  UNL1        0.0320
     46 H           2.5135   -1.9895    0.2443 H       1  UNL1        0.0320
     47 H           5.1045   -2.3699    1.3862 H       1  UNL1        0.2128
     48 H           2.1425   -0.6870    2.0249 H       1  UNL1        0.0320
     49 H           3.4154    0.4340    2.7338 H       1  UNL1        0.0320
@<TRIPOS>BOND
     1     1     2    1
     2     2     3    1
     3     2     4    1
     4     4     5    1
     5     5     6   ar
     6     6     7   ar
     7     7     8   ar
     8     8     9    1
     9     8    10   ar
    10    10    11   ar
    11     2    12    1
    12    12    13    2
    13    12    14   am
    14    14    15    1
    15    15    16    1
    16    16    17    1
    17    17    18    1
    18    18    19    1
    19    19    20    1
    20    20    21    1
    21    21    22    1
    22    22    23    1
    23    22    24    1
    24    22    25    1
    25    11     5   ar
    26    20    15    1
    27    24    16    1
    28    25    18    1
    29     1    26    1
    30     1    27    1
    31     1    28    1
    32     3    29    1
    33     3    30    1
    34     3    31    1
    35     6    32    1
    36     7    33    1
    37    10    34    1
    38    11    35    1
    39    14    36    1
    40    15    37    1
    41    16    38    1
    42    17    39    1
    43    17    40    1
    44    18    41    1
    45    19    42    1
    46    19    43    1
    47    20    44    1
    48    21    45    1
    49    21    46    1
    50    23    47    1
    51    24    48    1
    52    24    49    1
