@<TRIPOS>MOLECULE
*****
 27 28 0 0 0
SMALL
GASTEIGER

@<TRIPOS>ATOM
      1 N          -2.2168    0.2270    2.7636 N.3     1  TRP1       -0.3181
      2 CA         -1.6112    0.1661    1.4470 C.3     1  TRP1        0.1073
      3 CB         -0.3101   -0.5707    1.5873 C.3     1  TRP1       -0.0001
      4 CG          0.3804   -0.6800    0.2721 C.ar    1  TRP1       -0.0204
      5 CD1         0.3887   -1.8635   -0.4388 C.ar    1  TRP1        0.0060
      6 NE1         1.0673   -1.6860   -1.5629 N.ar    1  TRP1       -0.3604
      7 CE2         1.5012   -0.3980   -1.5916 C.ar    1  TRP1        0.0467
      8 CZ2         2.2494    0.3562   -2.5018 C.ar    1  TRP1       -0.0378
      9 CH2         2.5527    1.6809   -2.2713 C.ar    1  TRP1       -0.0598
     10 CZ3         2.0937    2.2540   -1.1037 C.ar    1  TRP1       -0.0611
     11 CE3         1.3587    1.5747   -0.1731 C.ar    1  TRP1       -0.0523
     12 CD2         1.0838    0.2577   -0.4505 C.ar    1  TRP1        0.0029
     13 C          -2.5703   -0.5326    0.5479 C.2     1  TRP1        0.3220
     14 O          -3.8108   -1.0024    1.0217 O.3     1  TRP1       -0.4795
     15 OXT        -2.3556   -0.7535   -0.6737 O.2     1  TRP1       -0.2492
     16 H1         -1.4598    0.1849    3.4831 H       1  TRP1        0.1190
     17 H2         -2.8110   -0.6251    2.8652 H       1  TRP1        0.1190
     18 HA         -1.4301    1.2128    1.0957 H       1  TRP1        0.0577
     19 HB1         0.3266    0.0647    2.2600 H       1  TRP1        0.0334
     20 HB2        -0.4766   -1.5367    2.0571 H       1  TRP1        0.0334
     21 HD1        -0.0617   -2.7975   -0.1741 H       1  TRP1        0.0810
     22 HE1         1.2866   -2.3404   -2.3448 H       1  TRP1        0.1653
     23 HZ2         2.5764   -0.1713   -3.4035 H       1  TRP1        0.0638
     24 HH2         3.1440    2.2010   -3.0340 H       1  TRP1        0.0618
     25 HZ3         2.3477    3.2965   -0.9495 H       1  TRP1        0.0618
     26 HE3         1.0067    2.0406    0.7377 H       1  TRP1        0.0624
     27 H          -4.2499   -1.7701    0.5350 H       1  TRP1        0.2951
@<TRIPOS>BOND
     1     1     2    1
     2     2     3    1
     3     3     4    1
     4     4     5   ar
     5     5     6   ar
     6     6     7   ar
     7     7     8   ar
     8     8     9   ar
     9     9    10   ar
    10    10    11   ar
    11    11    12   ar
    12     2    13    1
    13    13    14    1
    14    13    15    2
    15    12     4   ar
    16    12     7   ar
    17     1    16    1
    18     1    17    1
    19     2    18    1
    20     3    19    1
    21     3    20    1
    22     5    21    1
    23     6    22    1
    24     8    23    1
    25     9    24    1
    26    10    25    1
    27    11    26    1
    28    14    27    1
