@<TRIPOS>MOLECULE
*****
 67 72 0 0 0
SMALL
GASTEIGER

@<TRIPOS>ATOM
      1 C          -8.8024   -0.8621    1.1812 C.3     1  UNL1       -0.0127
      2 N          -7.8316   -1.6352    0.5486 N.3     1  UNL1       -0.3029
      3 C          -7.4042   -2.8608    1.0737 C.3     1  UNL1        0.0114
      4 C          -5.9313   -2.9319    1.2601 C.3     1  UNL1        0.0122
      5 N          -5.1938   -1.9183    0.5076 N.3     1  UNL1       -0.2916
      6 C          -4.8368   -0.8191    1.3178 C.3     1  UNL1        0.0761
      7 C          -4.0754    0.2757    0.7320 C.2     1  UNL1        0.2313
      8 O          -3.7348    0.3236   -0.4725 O.2     1  UNL1       -0.2741
      9 N          -3.6446    1.4100    1.5069 N.am    1  UNL1       -0.2842
     10 C          -2.9175    2.4526    0.8790 C.ar    1  UNL1        0.0376
     11 C          -3.5909    3.5735    0.4307 C.ar    1  UNL1       -0.0402
     12 C          -2.8771    4.5742   -0.1885 C.ar    1  UNL1       -0.0594
     13 C          -1.5191    4.5042   -0.3807 C.ar    1  UNL1       -0.0521
     14 C          -0.8711    3.3594    0.0824 C.ar    1  UNL1        0.0076
     15 C          -1.5494    2.3365    0.7083 C.ar    1  UNL1       -0.0125
     16 C          -0.5790    1.2495    1.0926 C.3     1  UNL1        0.0041
     17 C           0.7113    1.7059    0.5662 C.ar    1  UNL1        0.0099
     18 C           0.5398    2.9492    0.0012 C.ar    1  UNL1        0.0969
     19 N           1.7263    3.3354   -0.4601 N.ar    1  UNL1       -0.1730
     20 N           2.6075    2.4047   -0.2130 N.ar    1  UNL1       -0.2761
     21 C           2.0384    1.3761    0.4169 C.ar    1  UNL1        0.0704
     22 C           2.6969    0.0766    0.8065 C.ar    1  UNL1        0.0083
     23 C           2.0277   -0.8065    1.5988 C.ar    1  UNL1       -0.0140
     24 S           3.2104   -2.2093    1.6516 S.2     1  UNL1       -0.0876
     25 C           4.4018   -1.4856    0.6556 C.ar    1  UNL1        0.0627
     26 C           5.6569   -2.0913    0.2035 C.1     1  UNL1       -0.0558
     27 C           6.7152   -2.5925   -0.1577 C.1     1  UNL1       -0.0557
     28 C           7.9797   -3.1966   -0.5639 C.3     1  UNL1        0.1502
     29 O           8.6116   -2.5345   -1.6229 O.3     1  UNL1       -0.4795
     30 C           9.0261   -1.2246   -1.6442 C.ar    1  UNL1        0.1219
     31 C           9.6347   -0.6951   -2.7329 C.ar    1  UNL1       -0.0199
     32 C          10.0610    0.6231   -2.7779 C.ar    1  UNL1       -0.0583
     33 C           9.8509    1.4243   -1.6601 C.ar    1  UNL1       -0.0615
     34 C           9.2420    0.8893   -0.5758 C.ar    1  UNL1       -0.0583
     35 C           8.8149   -0.4377   -0.5342 C.ar    1  UNL1       -0.0199
     36 C           3.9023   -0.2807    0.3362 C.ar    1  UNL1       -0.0300
     37 C          -5.7920   -1.6641   -0.7579 C.3     1  UNL1        0.0122
     38 C          -7.2131   -1.1359   -0.6230 C.3     1  UNL1        0.0114
     39 H          -8.5471    0.2343    1.0962 H       1  UNL1        0.0391
     40 H          -9.8299   -0.9333    0.7637 H       1  UNL1        0.0391
     41 H          -8.8124   -1.0585    2.2889 H       1  UNL1        0.0391
     42 H          -7.9020   -3.0173    2.0589 H       1  UNL1        0.0439
     43 H          -7.7382   -3.6850    0.3898 H       1  UNL1        0.0439
     44 H          -5.5665   -3.9145    0.9006 H       1  UNL1        0.0439
     45 H          -5.6631   -2.8890    2.3408 H       1  UNL1        0.0439
     46 H          -4.3157   -1.2286    2.2359 H       1  UNL1        0.0522
     47 H          -5.7923   -0.4013    1.7608 H       1  UNL1        0.0522
     48 H          -3.8807    1.4324    2.5221 H       1  UNL1        0.1549
     49 H          -4.6590    3.6149    0.5880 H       1  UNL1        0.0636
     50 H          -3.4227    5.4517   -0.5348 H       1  UNL1        0.0618
     51 H          -0.9381    5.2692   -0.8579 H       1  UNL1        0.0624
     52 H          -0.5278    1.1571    2.1946 H       1  UNL1        0.0364
     53 H          -0.9217    0.3003    0.6453 H       1  UNL1        0.0364
     54 H           3.6452    2.4055   -0.4530 H       1  UNL1        0.1889
     55 H           1.0639   -0.8007    2.1130 H       1  UNL1        0.0700
     56 H           7.7610   -4.2365   -0.9264 H       1  UNL1        0.0837
     57 H           8.6150   -3.2468    0.3464 H       1  UNL1        0.0837
     58 H           9.8251   -1.2716   -3.6401 H       1  UNL1        0.0654
     59 H          10.5394    1.0573   -3.6213 H       1  UNL1        0.0619
     60 H          10.1968    2.4622   -1.7203 H       1  UNL1        0.0618
     61 H           9.0863    1.5249    0.2888 H       1  UNL1        0.0619
     62 H           8.3384   -0.8279    0.3376 H       1  UNL1        0.0654
     63 H           4.5197    0.3936   -0.3191 H       1  UNL1        0.0642
     64 H          -5.8893   -2.6607   -1.2862 H       1  UNL1        0.0439
     65 H          -5.2114   -1.0332   -1.4007 H       1  UNL1        0.0439
     66 H          -7.7808   -1.5128   -1.4991 H       1  UNL1        0.0439
     67 H          -7.2836   -0.0476   -0.6598 H       1  UNL1        0.0439
@<TRIPOS>BOND
     1     1     2    1
     2     2     3    1
     3     3     4    1
     4     4     5    1
     5     5     6    1
     6     6     7    1
     7     7     8    2
     8     7     9   am
     9     9    10    1
    10    10    11   ar
    11    11    12   ar
    12    12    13   ar
    13    13    14   ar
    14    14    15   ar
    15    15    16    1
    16    16    17    1
    17    17    18   ar
    18    18    19   ar
    19    19    20   ar
    20    20    21   ar
    21    21    22    1
    22    22    23   ar
    23    23    24   ar
    24    24    25   ar
    25    25    26    1
    26    26    27    3
    27    27    28    1
    28    28    29    1
    29    29    30    1
    30    30    31   ar
    31    31    32   ar
    32    32    33   ar
    33    33    34   ar
    34    34    35   ar
    35    25    36   ar
    36     5    37    1
    37    37    38    1
    38    38     2    1
    39    15    10   ar
    40    21    17   ar
    41    36    22   ar
    42    18    14    1
    43    35    30   ar
    44     1    39    1
    45     1    40    1
    46     1    41    1
    47     3    42    1
    48     3    43    1
    49     4    44    1
    50     4    45    1
    51     6    46    1
    52     6    47    1
    53     9    48    1
    54    11    49    1
    55    12    50    1
    56    13    51    1
    57    16    52    1
    58    16    53    1
    59    20    54    1
    60    23    55    1
    61    28    56    1
    62    28    57    1
    63    31    58    1
    64    32    59    1
    65    33    60    1
    66    34    61    1
    67    35    62    1
    68    36    63    1
    69    37    64    1
    70    37    65    1
    71    38    66    1
    72    38    67    1
