
     RDKit          3D

 67 72  0  0  0  0  0  0  0  0999 V2000
   -8.8024   -0.8621    1.1812 C   0  0  0  0  0  0  0  0  0  0  0  0
   -7.8316   -1.6352    0.5486 N   0  0  0  0  0  0  0  0  0  0  0  0
   -7.4042   -2.8608    1.0737 C   0  0  0  0  0  0  0  0  0  0  0  0
   -5.9313   -2.9319    1.2601 C   0  0  0  0  0  0  0  0  0  0  0  0
   -5.1938   -1.9183    0.5076 N   0  0  0  0  0  0  0  0  0  0  0  0
   -4.8368   -0.8191    1.3178 C   0  0  0  0  0  0  0  0  0  0  0  0
   -4.0754    0.2757    0.7320 C   0  0  0  0  0  0  0  0  0  0  0  0
   -3.7348    0.3236   -0.4725 O   0  0  0  0  0  0  0  0  0  0  0  0
   -3.6446    1.4100    1.5069 N   0  0  0  0  0  0  0  0  0  0  0  0
   -2.9175    2.4526    0.8790 C   0  0  0  0  0  0  0  0  0  0  0  0
   -3.5909    3.5735    0.4307 C   0  0  0  0  0  0  0  0  0  0  0  0
   -2.8771    4.5742   -0.1885 C   0  0  0  0  0  0  0  0  0  0  0  0
   -1.5191    4.5042   -0.3807 C   0  0  0  0  0  0  0  0  0  0  0  0
   -0.8711    3.3594    0.0824 C   0  0  0  0  0  0  0  0  0  0  0  0
   -1.5494    2.3365    0.7083 C   0  0  0  0  0  0  0  0  0  0  0  0
   -0.5790    1.2495    1.0926 C   0  0  0  0  0  0  0  0  0  0  0  0
    0.7113    1.7059    0.5662 C   0  0  0  0  0  0  0  0  0  0  0  0
    0.5398    2.9492    0.0012 C   0  0  0  0  0  0  0  0  0  0  0  0
    1.7263    3.3354   -0.4601 N   0  0  0  0  0  0  0  0  0  0  0  0
    2.6075    2.4047   -0.2130 N   0  0  0  0  0  0  0  0  0  0  0  0
    2.0384    1.3761    0.4169 C   0  0  0  0  0  0  0  0  0  0  0  0
    2.6969    0.0766    0.8065 C   0  0  0  0  0  0  0  0  0  0  0  0
    2.0277   -0.8065    1.5988 C   0  0  0  0  0  0  0  0  0  0  0  0
    3.2104   -2.2093    1.6516 S   0  0  0  0  0  0  0  0  0  0  0  0
    4.4018   -1.4856    0.6556 C   0  0  0  0  0  0  0  0  0  0  0  0
    5.6569   -2.0913    0.2035 C   0  0  0  0  0  0  0  0  0  0  0  0
    6.7152   -2.5925   -0.1577 C   0  0  0  0  0  0  0  0  0  0  0  0
    7.9797   -3.1966   -0.5639 C   0  0  0  0  0  0  0  0  0  0  0  0
    8.6116   -2.5345   -1.6229 O   0  0  0  0  0  0  0  0  0  0  0  0
    9.0261   -1.2246   -1.6442 C   0  0  0  0  0  0  0  0  0  0  0  0
    9.6347   -0.6951   -2.7329 C   0  0  0  0  0  0  0  0  0  0  0  0
   10.0610    0.6231   -2.7779 C   0  0  0  0  0  0  0  0  0  0  0  0
    9.8509    1.4243   -1.6601 C   0  0  0  0  0  0  0  0  0  0  0  0
    9.2420    0.8893   -0.5758 C   0  0  0  0  0  0  0  0  0  0  0  0
    8.8149   -0.4377   -0.5342 C   0  0  0  0  0  0  0  0  0  0  0  0
    3.9023   -0.2807    0.3362 C   0  0  0  0  0  0  0  0  0  0  0  0
   -5.7920   -1.6641   -0.7579 C   0  0  0  0  0  0  0  0  0  0  0  0
   -7.2131   -1.1359   -0.6230 C   0  0  0  0  0  0  0  0  0  0  0  0
   -8.5471    0.2343    1.0962 H   0  0  0  0  0  0  0  0  0  0  0  0
   -9.8299   -0.9333    0.7637 H   0  0  0  0  0  0  0  0  0  0  0  0
   -8.8124   -1.0585    2.2889 H   0  0  0  0  0  0  0  0  0  0  0  0
   -7.9020   -3.0173    2.0589 H   0  0  0  0  0  0  0  0  0  0  0  0
   -7.7382   -3.6850    0.3898 H   0  0  0  0  0  0  0  0  0  0  0  0
   -5.5665   -3.9145    0.9006 H   0  0  0  0  0  0  0  0  0  0  0  0
   -5.6631   -2.8890    2.3408 H   0  0  0  0  0  0  0  0  0  0  0  0
   -4.3157   -1.2286    2.2359 H   0  0  0  0  0  0  0  0  0  0  0  0
   -5.7923   -0.4013    1.7608 H   0  0  0  0  0  0  0  0  0  0  0  0
   -3.8807    1.4324    2.5221 H   0  0  0  0  0  0  0  0  0  0  0  0
   -4.6590    3.6149    0.5880 H   0  0  0  0  0  0  0  0  0  0  0  0
   -3.4227    5.4517   -0.5348 H   0  0  0  0  0  0  0  0  0  0  0  0
   -0.9381    5.2692   -0.8579 H   0  0  0  0  0  0  0  0  0  0  0  0
   -0.5278    1.1571    2.1946 H   0  0  0  0  0  0  0  0  0  0  0  0
   -0.9217    0.3003    0.6453 H   0  0  0  0  0  0  0  0  0  0  0  0
    3.6452    2.4055   -0.4530 H   0  0  0  0  0  0  0  0  0  0  0  0
    1.0639   -0.8007    2.1130 H   0  0  0  0  0  0  0  0  0  0  0  0
    7.7610   -4.2365   -0.9264 H   0  0  0  0  0  0  0  0  0  0  0  0
    8.6150   -3.2468    0.3464 H   0  0  0  0  0  0  0  0  0  0  0  0
    9.8251   -1.2716   -3.6401 H   0  0  0  0  0  0  0  0  0  0  0  0
   10.5394    1.0573   -3.6213 H   0  0  0  0  0  0  0  0  0  0  0  0
   10.1968    2.4622   -1.7203 H   0  0  0  0  0  0  0  0  0  0  0  0
    9.0863    1.5249    0.2888 H   0  0  0  0  0  0  0  0  0  0  0  0
    8.3384   -0.8279    0.3376 H   0  0  0  0  0  0  0  0  0  0  0  0
    4.5197    0.3936   -0.3191 H   0  0  0  0  0  0  0  0  0  0  0  0
   -5.8893   -2.6607   -1.2862 H   0  0  0  0  0  0  0  0  0  0  0  0
   -5.2114   -1.0332   -1.4007 H   0  0  0  0  0  0  0  0  0  0  0  0
   -7.7808   -1.5128   -1.4991 H   0  0  0  0  0  0  0  0  0  0  0  0
   -7.2836   -0.0476   -0.6598 H   0  0  0  0  0  0  0  0  0  0  0  0
  1  2  1  0
  2  3  1  0
  3  4  1  0
  4  5  1  0
  5  6  1  0
  6  7  1  0
  7  8  2  0
  7  9  1  0
  9 10  1  0
 10 11  2  0
 11 12  1  0
 12 13  2  0
 13 14  1  0
 14 15  2  0
 15 16  1  0
 16 17  1  0
 17 18  1  0
 18 19  2  0
 19 20  1  0
 20 21  1  0
 21 22  1  0
 22 23  2  0
 23 24  1  0
 24 25  1  0
 25 26  1  0
 26 27  3  0
 27 28  1  0
 28 29  1  0
 29 30  1  0
 30 31  2  0
 31 32  1  0
 32 33  2  0
 33 34  1  0
 34 35  2  0
 25 36  2  0
  5 37  1  0
 37 38  1  0
 38  2  1  0
 15 10  1  0
 21 17  2  0
 36 22  1  0
 18 14  1  0
 35 30  1  0
  1 39  1  0
  1 40  1  0
  1 41  1  0
  3 42  1  0
  3 43  1  0
  4 44  1  0
  4 45  1  0
  6 46  1  0
  6 47  1  0
  9 48  1  0
 11 49  1  0
 12 50  1  0
 13 51  1  0
 16 52  1  0
 16 53  1  0
 20 54  1  0
 23 55  1  0
 28 56  1  0
 28 57  1  0
 31 58  1  0
 32 59  1  0
 33 60  1  0
 34 61  1  0
 35 62  1  0
 36 63  1  0
 37 64  1  0
 37 65  1  0
 38 66  1  0
 38 67  1  0
M  END
$$$$
