
     RDKit          3D

 56 63  0  0  0  0  0  0  0  0999 V2000
    1.3482    1.6876    0.2857 C   0  0  1  0  0  0  0  0  0  0  0  0
    2.0368    0.8010    1.2912 C   0  0  0  0  0  0  0  0  0  0  0  0
    2.4013   -0.4157    0.4778 C   0  0  2  0  0  0  0  0  0  0  0  0
    1.9172   -1.5405    1.1506 O   0  0  0  0  0  0  0  0  0  0  0  0
    3.8776   -0.5703    0.3171 C   0  0  0  0  0  0  0  0  0  0  0  0
    4.7227    0.2309   -0.1693 O   0  0  0  0  0  0  0  0  0  0  0  0
    4.7704    0.3298   -0.2205 O   0  0  0  0  0  0  0  0  0  0  0  0
    6.1434    0.1195   -0.3418 C   0  0  0  0  0  0  0  0  0  0  0  0
    1.7096   -0.2405   -0.8314 C   0  0  2  0  0  0  0  0  0  0  0  0
    2.5632   -0.5558   -2.0353 C   0  0  0  0  0  0  0  0  0  0  0  0
    1.4431    1.1373   -0.9532 O   0  0  0  0  0  0  0  0  0  0  0  0
    0.4285   -0.9050   -0.8250 N   0  0  0  0  0  0  0  0  0  0  0  0
    0.0488   -2.0992   -1.3068 C   0  0  0  0  0  0  0  0  0  0  0  0
   -1.2934   -2.3521   -1.1454 C   0  0  0  0  0  0  0  0  0  0  0  0
   -1.8923   -3.5178   -1.5597 C   0  0  0  0  0  0  0  0  0  0  0  0
   -1.1461   -4.5260   -2.1798 C   0  0  0  0  0  0  0  0  0  0  0  0
    0.1969   -4.2538   -2.3316 C   0  0  0  0  0  0  0  0  0  0  0  0
    0.7833   -3.0821   -1.9119 C   0  0  0  0  0  0  0  0  0  0  0  0
   -1.8158   -1.2437   -0.5123 C   0  0  0  0  0  0  0  0  0  0  0  0
   -3.0752   -0.8858   -0.0797 C   0  0  0  0  0  0  0  0  0  0  0  0
   -4.3416   -1.6909   -0.1980 C   0  0  0  0  0  0  0  0  0  0  0  0
   -5.3187   -0.8069    0.4220 N   0  0  0  0  0  0  0  0  0  0  0  0
   -4.6686    0.3721    0.8474 C   0  0  0  0  0  0  0  0  0  0  0  0
   -5.3948    1.2089    1.3957 O   0  0  0  0  0  0  0  0  0  0  0  0
   -3.2793    0.3253    0.5378 C   0  0  0  0  0  0  0  0  0  0  0  0
   -2.2232    1.1557    0.7130 C   0  0  0  0  0  0  0  0  0  0  0  0
   -2.1265    2.3722    1.2892 C   0  0  0  0  0  0  0  0  0  0  0  0
   -2.9366    3.2799    1.8948 C   0  0  0  0  0  0  0  0  0  0  0  0
   -2.5205    4.4895    2.4018 C   0  0  0  0  0  0  0  0  0  0  0  0
   -1.1746    4.8504    2.3074 C   0  0  0  0  0  0  0  0  0  0  0  0
   -0.3299    3.9333    1.6898 C   0  0  0  0  0  0  0  0  0  0  0  0
   -0.8078    2.7355    1.2012 C   0  0  0  0  0  0  0  0  0  0  0  0
   -0.0944    1.7777    0.5877 N   0  0  0  0  0  0  0  0  0  0  0  0
   -0.9891    0.7903    0.2819 C   0  0  0  0  0  0  0  0  0  0  0  0
   -0.7568   -0.4206   -0.3445 C   0  0  0  0  0  0  0  0  0  0  0  0
    1.7408    2.7160    0.2951 H   0  0  0  0  0  0  0  0  0  0  0  0
    2.9746    1.2925    1.5880 H   0  0  0  0  0  0  0  0  0  0  0  0
    1.3805    0.5512    2.1490 H   0  0  0  0  0  0  0  0  0  0  0  0
    1.8070   -1.3222    2.0988 H   0  0  0  0  0  0  0  0  0  0  0  0
    6.4075   -0.5061   -1.2267 H   0  0  0  0  0  0  0  0  0  0  0  0
    6.6267    1.1198   -0.5411 H   0  0  0  0  0  0  0  0  0  0  0  0
    6.6494   -0.2426    0.5801 H   0  0  0  0  0  0  0  0  0  0  0  0
    3.3844   -1.2511   -1.7822 H   0  0  0  0  0  0  0  0  0  0  0  0
    1.9853   -0.8124   -2.9428 H   0  0  0  0  0  0  0  0  0  0  0  0
    3.1298    0.3808   -2.3638 H   0  0  0  0  0  0  0  0  0  0  0  0
   -2.9487   -3.6832   -1.4178 H   0  0  0  0  0  0  0  0  0  0  0  0
   -1.6528   -5.4230   -2.4879 H   0  0  0  0  0  0  0  0  0  0  0  0
    0.8171   -5.0035   -2.8071 H   0  0  0  0  0  0  0  0  0  0  0  0
    1.8226   -2.9581   -2.0562 H   0  0  0  0  0  0  0  0  0  0  0  0
   -4.6281   -1.8484   -1.2457 H   0  0  0  0  0  0  0  0  0  0  0  0
   -4.2236   -2.6319    0.3732 H   0  0  0  0  0  0  0  0  0  0  0  0
   -6.2864   -1.1602    0.4529 H   0  0  0  0  0  0  0  0  0  0  0  0
   -3.9760    3.1189    2.0241 H   0  0  0  0  0  0  0  0  0  0  0  0
   -3.1619    5.2087    2.8828 H   0  0  0  0  0  0  0  0  0  0  0  0
   -0.7664    5.7619    2.6707 H   0  0  0  0  0  0  0  0  0  0  0  0
    0.7125    4.2024    1.6109 H   0  0  0  0  0  0  0  0  0  0  0  0
  1  2  1  0
  2  3  1  0
  3  4  1  1
  3  5  1  0
  5  6  2  0
  5  7  1  0
  7  8  1  0
  3  9  1  0
  9 10  1  6
  9 11  1  0
  9 12  1  0
 12 13  1  0
 13 14  2  0
 14 15  1  0
 15 16  2  0
 16 17  1  0
 17 18  2  0
 14 19  1  0
 19 20  2  0
 20 21  1  0
 21 22  1  0
 22 23  1  0
 23 24  2  0
 23 25  1  0
 25 26  2  0
 26 27  1  0
 27 28  2  0
 28 29  1  0
 29 30  2  0
 30 31  1  0
 31 32  2  0
 32 33  1  0
 33 34  1  0
 34 35  2  0
 11  1  1  0
 35 12  1  0
 33  1  1  0
 18 13  1  0
 35 19  1  0
 25 20  1  0
 34 26  1  0
 32 27  1  0
  1 36  1  6
  2 37  1  0
  2 38  1  0
  4 39  1  0
  8 40  1  0
  8 41  1  0
  8 42  1  0
 10 43  1  0
 10 44  1  0
 10 45  1  0
 15 46  1  0
 16 47  1  0
 17 48  1  0
 18 49  1  0
 21 50  1  0
 21 51  1  0
 22 52  1  0
 28 53  1  0
 29 54  1  0
 30 55  1  0
 31 56  1  0
M  END
$$$$
