@<TRIPOS>MOLECULE
*****
 91 97 0 0 0
SMALL
GASTEIGER

@<TRIPOS>ATOM
      1 C          13.2966    0.4138   -0.6599 C.3     1  UNL1       -0.0497
      2 C          12.3350    0.8220    0.4338 C.3     1  UNL1        0.0049
      3 C          12.3244   -0.2902    1.4688 C.3     1  UNL1       -0.0497
      4 N          11.0276    0.9239   -0.1294 N.3     1  UNL1       -0.2969
      5 C          10.8966    1.8839   -1.1804 C.3     1  UNL1        0.0150
      6 C           9.5482    1.8253   -1.8281 C.3     1  UNL1        0.0278
      7 N           8.4659    1.4370   -0.9858 N.am    1  UNL1       -0.2951
      8 C           7.1509    1.8976   -1.2699 C.2     1  UNL1        0.2467
      9 O           6.9746    2.6454   -2.2634 O.2     1  UNL1       -0.2700
     10 C           6.0369    1.4916   -0.4031 C.ar    1  UNL1        0.0370
     11 C           5.7427    0.1496   -0.3422 C.ar    1  UNL1       -0.0479
     12 C           4.6950   -0.3078    0.4614 C.ar    1  UNL1       -0.0397
     13 C           3.9746    0.6153    1.1816 C.ar    1  UNL1        0.0348
     14 N           2.8995    0.2011    2.0196 N.am    1  UNL1       -0.2692
     15 C           1.5594    0.0657    1.5721 C.2     1  UNL1        0.3081
     16 O           1.3329    0.3285    0.3524 O.2     1  UNL1       -0.2522
     17 N           0.5067   -0.3486    2.4532 N.am    1  UNL1       -0.2692
     18 C          -0.8222   -0.4751    1.9512 C.ar    1  UNL1        0.0348
     19 C          -1.7176    0.5710    1.9448 C.ar    1  UNL1       -0.0398
     20 C          -3.0153    0.4036    1.4405 C.ar    1  UNL1       -0.0493
     21 C          -3.4217   -0.8141    0.9399 C.ar    1  UNL1        0.0194
     22 C          -4.7580   -1.0214    0.4061 C.ar    1  UNL1        0.1652
     23 N          -5.1431   -2.2170   -0.0748 N.ar    1  UNL1       -0.2122
     24 C          -6.3815   -2.4190   -0.5812 C.ar    1  UNL1        0.1382
     25 C          -6.8387   -3.7174   -1.1152 C.3     1  UNL1        0.0233
     26 C          -7.9604   -4.3040   -0.2583 C.3     1  UNL1       -0.0197
     27 C          -9.3206   -3.8834   -0.7300 C.3     1  UNL1        0.0483
     28 O          -9.3233   -2.7382   -1.5008 O.3     1  UNL1       -0.3797
     29 C          -8.6143   -2.8703   -2.6771 C.3     1  UNL1        0.0483
     30 C          -7.3383   -3.6480   -2.5224 C.3     1  UNL1       -0.0197
     31 N          -7.2213   -1.3704   -0.5865 N.ar    1  UNL1       -0.1991
     32 C          -6.8990   -0.1414   -0.1189 C.ar    1  UNL1        0.2220
     33 N          -7.8122    0.9215   -0.1594 N.pl3   1  UNL1       -0.2891
     34 C          -7.6538    2.2360    0.4109 C.3     1  UNL1        0.0500
     35 C          -8.2829    3.1302   -0.6539 C.3     1  UNL1       -0.0304
     36 C          -8.9909    2.1943   -1.6296 C.3     1  UNL1       -0.0304
     37 C          -9.1060    0.9249   -0.7954 C.3     1  UNL1        0.0500
     38 C         -10.1424    1.2115    0.2730 C.3     1  UNL1        0.0663
     39 O          -9.5533    1.2480    1.5453 O.3     1  UNL1       -0.3761
     40 C          -8.5847    2.2529    1.6345 C.3     1  UNL1        0.0663
     41 N          -5.6354   -0.0020    0.3792 N.ar    1  UNL1       -0.1945
     42 C          -2.5289   -1.8584    0.9462 C.ar    1  UNL1       -0.0493
     43 C          -1.2563   -1.6887    1.4423 C.ar    1  UNL1       -0.0398
     44 C           4.2493    1.9590    1.1365 C.ar    1  UNL1       -0.0397
     45 C           5.3011    2.3892    0.3263 C.ar    1  UNL1       -0.0479
     46 C           8.7039    0.5769    0.1509 C.3     1  UNL1        0.0278
     47 C           9.9626    1.0602    0.8411 C.3     1  UNL1        0.0150
     48 H          12.7910   -0.3092   -1.3563 H       1  UNL1        0.0245
     49 H          13.5822    1.2872   -1.2831 H       1  UNL1        0.0245
     50 H          14.2053   -0.0777   -0.2505 H       1  UNL1        0.0245
     51 H          12.6092    1.7970    0.8828 H       1  UNL1        0.0457
     52 H          13.2948   -0.8386    1.4683 H       1  UNL1        0.0245
     53 H          11.5486   -1.0432    1.2228 H       1  UNL1        0.0245
     54 H          12.0756    0.1040    2.4830 H       1  UNL1        0.0245
     55 H          11.6620    1.7257   -1.9790 H       1  UNL1        0.0442
     56 H          11.0403    2.9078   -0.7535 H       1  UNL1        0.0442
     57 H           9.3542    2.7799   -2.3755 H       1  UNL1        0.0477
     58 H           9.6159    1.0556   -2.6455 H       1  UNL1        0.0477
     59 H           6.3018   -0.5686   -0.9013 H       1  UNL1        0.0626
     60 H           4.4879   -1.3707    0.4884 H       1  UNL1        0.0636
     61 H           3.1025   -0.0202    3.0354 H       1  UNL1        0.1564
     62 H           0.6990   -0.5575    3.4523 H       1  UNL1        0.1564
     63 H          -1.3966    1.5315    2.3397 H       1  UNL1        0.0636
     64 H          -3.7175    1.2323    1.4377 H       1  UNL1        0.0625
     65 H          -5.9964   -4.4178   -1.0582 H       1  UNL1        0.0381
     66 H          -7.7450   -3.9576    0.7936 H       1  UNL1        0.0294
     67 H          -7.8445   -5.4039   -0.2623 H       1  UNL1        0.0294
     68 H          -9.8107   -4.7306   -1.2462 H       1  UNL1        0.0560
     69 H          -9.9361   -3.6639    0.1817 H       1  UNL1        0.0560
     70 H          -9.2788   -3.3117   -3.4699 H       1  UNL1        0.0560
     71 H          -8.3578   -1.8553   -3.0321 H       1  UNL1        0.0560
     72 H          -6.5293   -3.3119   -3.1734 H       1  UNL1        0.0294
     73 H          -7.5749   -4.7022   -2.8396 H       1  UNL1        0.0294
     74 H          -6.6307    2.5127    0.6564 H       1  UNL1        0.0523
     75 H          -9.0031    3.8440   -0.2054 H       1  UNL1        0.0284
     76 H          -7.5066    3.6527   -1.2487 H       1  UNL1        0.0284
     77 H          -8.3844    2.0260   -2.5442 H       1  UNL1        0.0284
     78 H         -10.0158    2.5434   -1.8276 H       1  UNL1        0.0284
     79 H          -9.3307    0.0396   -1.3838 H       1  UNL1        0.0523
     80 H         -10.9231    0.4265    0.3149 H       1  UNL1        0.0578
     81 H         -10.6460    2.1893    0.1310 H       1  UNL1        0.0578
     82 H          -7.9825    2.0702    2.5414 H       1  UNL1        0.0578
     83 H          -9.0971    3.2201    1.7351 H       1  UNL1        0.0578
     84 H          -2.8468   -2.8314    0.5492 H       1  UNL1        0.0625
     85 H          -0.5562   -2.5346    1.4390 H       1  UNL1        0.0636
     86 H           3.6952    2.7006    1.6945 H       1  UNL1        0.0636
     87 H           5.5186    3.4467    0.2899 H       1  UNL1        0.0626
     88 H           7.8442    0.5408    0.8525 H       1  UNL1        0.0477
     89 H           8.9375   -0.4547   -0.2448 H       1  UNL1        0.0477
     90 H          10.2066    0.4745    1.7411 H       1  UNL1        0.0442
     91 H           9.8761    2.1473    1.1046 H       1  UNL1        0.0442
@<TRIPOS>BOND
     1     1     2    1
     2     2     3    1
     3     2     4    1
     4     4     5    1
     5     5     6    1
     6     6     7    1
     7     7     8   am
     8     8     9    2
     9     8    10    1
    10    10    11   ar
    11    11    12   ar
    12    12    13   ar
    13    13    14    1
    14    14    15   am
    15    15    16    2
    16    15    17   am
    17    17    18    1
    18    18    19   ar
    19    19    20   ar
    20    20    21   ar
    21    21    22    1
    22    22    23   ar
    23    23    24   ar
    24    24    25    1
    25    25    26    1
    26    26    27    1
    27    27    28    1
    28    28    29    1
    29    29    30    1
    30    24    31   ar
    31    31    32   ar
    32    32    33    1
    33    33    34    1
    34    34    35    1
    35    35    36    1
    36    36    37    1
    37    37    38    1
    38    38    39    1
    39    39    40    1
    40    32    41   ar
    41    21    42   ar
    42    42    43   ar
    43    13    44   ar
    44    44    45   ar
    45     7    46    1
    46    46    47    1
    47    47     4    1
    48    45    10   ar
    49    43    18   ar
    50    41    22   ar
    51    30    25    1
    52    37    33    1
    53    40    34    1
    54     1    48    1
    55     1    49    1
    56     1    50    1
    57     2    51    1
    58     3    52    1
    59     3    53    1
    60     3    54    1
    61     5    55    1
    62     5    56    1
    63     6    57    1
    64     6    58    1
    65    11    59    1
    66    12    60    1
    67    14    61    1
    68    17    62    1
    69    19    63    1
    70    20    64    1
    71    25    65    1
    72    26    66    1
    73    26    67    1
    74    27    68    1
    75    27    69    1
    76    29    70    1
    77    29    71    1
    78    30    72    1
    79    30    73    1
    80    34    74    1
    81    35    75    1
    82    35    76    1
    83    36    77    1
    84    36    78    1
    85    37    79    1
    86    38    80    1
    87    38    81    1
    88    40    82    1
    89    40    83    1
    90    42    84    1
    91    43    85    1
    92    44    86    1
    93    45    87    1
    94    46    88    1
    95    46    89    1
    96    47    90    1
    97    47    91    1
