
     RDKit          3D

 91 97  0  0  0  0  0  0  0  0999 V2000
   13.2966    0.4138   -0.6599 C   0  0  0  0  0  0  0  0  0  0  0  0
   12.3350    0.8220    0.4338 C   0  0  0  0  0  0  0  0  0  0  0  0
   12.3244   -0.2902    1.4688 C   0  0  0  0  0  0  0  0  0  0  0  0
   11.0276    0.9239   -0.1294 N   0  0  0  0  0  0  0  0  0  0  0  0
   10.8966    1.8839   -1.1804 C   0  0  0  0  0  0  0  0  0  0  0  0
    9.5482    1.8253   -1.8281 C   0  0  0  0  0  0  0  0  0  0  0  0
    8.4659    1.4370   -0.9858 N   0  0  0  0  0  0  0  0  0  0  0  0
    7.1509    1.8976   -1.2699 C   0  0  0  0  0  0  0  0  0  0  0  0
    6.9746    2.6454   -2.2634 O   0  0  0  0  0  0  0  0  0  0  0  0
    6.0369    1.4916   -0.4031 C   0  0  0  0  0  0  0  0  0  0  0  0
    5.7427    0.1496   -0.3422 C   0  0  0  0  0  0  0  0  0  0  0  0
    4.6950   -0.3078    0.4614 C   0  0  0  0  0  0  0  0  0  0  0  0
    3.9746    0.6153    1.1816 C   0  0  0  0  0  0  0  0  0  0  0  0
    2.8995    0.2011    2.0196 N   0  0  0  0  0  0  0  0  0  0  0  0
    1.5594    0.0657    1.5721 C   0  0  0  0  0  0  0  0  0  0  0  0
    1.3329    0.3285    0.3524 O   0  0  0  0  0  0  0  0  0  0  0  0
    0.5067   -0.3486    2.4532 N   0  0  0  0  0  0  0  0  0  0  0  0
   -0.8222   -0.4751    1.9512 C   0  0  0  0  0  0  0  0  0  0  0  0
   -1.7176    0.5710    1.9448 C   0  0  0  0  0  0  0  0  0  0  0  0
   -3.0153    0.4036    1.4405 C   0  0  0  0  0  0  0  0  0  0  0  0
   -3.4217   -0.8141    0.9399 C   0  0  0  0  0  0  0  0  0  0  0  0
   -4.7580   -1.0214    0.4061 C   0  0  0  0  0  0  0  0  0  0  0  0
   -5.1431   -2.2170   -0.0748 N   0  0  0  0  0  0  0  0  0  0  0  0
   -6.3815   -2.4190   -0.5812 C   0  0  0  0  0  0  0  0  0  0  0  0
   -6.8387   -3.7174   -1.1152 C   0  0  0  0  0  0  0  0  0  0  0  0
   -7.9604   -4.3040   -0.2583 C   0  0  0  0  0  0  0  0  0  0  0  0
   -9.3206   -3.8834   -0.7300 C   0  0  0  0  0  0  0  0  0  0  0  0
   -9.3233   -2.7382   -1.5008 O   0  0  0  0  0  0  0  0  0  0  0  0
   -8.6143   -2.8703   -2.6771 C   0  0  0  0  0  0  0  0  0  0  0  0
   -7.3383   -3.6480   -2.5224 C   0  0  0  0  0  0  0  0  0  0  0  0
   -7.2213   -1.3704   -0.5865 N   0  0  0  0  0  0  0  0  0  0  0  0
   -6.8990   -0.1414   -0.1189 C   0  0  0  0  0  0  0  0  0  0  0  0
   -7.8122    0.9215   -0.1594 N   0  0  0  0  0  0  0  0  0  0  0  0
   -7.6538    2.2360    0.4109 C   0  0  0  0  0  0  0  0  0  0  0  0
   -8.2829    3.1302   -0.6539 C   0  0  0  0  0  0  0  0  0  0  0  0
   -8.9909    2.1943   -1.6296 C   0  0  0  0  0  0  0  0  0  0  0  0
   -9.1060    0.9249   -0.7954 C   0  0  0  0  0  0  0  0  0  0  0  0
  -10.1424    1.2115    0.2730 C   0  0  0  0  0  0  0  0  0  0  0  0
   -9.5533    1.2480    1.5453 O   0  0  0  0  0  0  0  0  0  0  0  0
   -8.5847    2.2529    1.6345 C   0  0  0  0  0  0  0  0  0  0  0  0
   -5.6354   -0.0020    0.3792 N   0  0  0  0  0  0  0  0  0  0  0  0
   -2.5289   -1.8584    0.9462 C   0  0  0  0  0  0  0  0  0  0  0  0
   -1.2563   -1.6887    1.4423 C   0  0  0  0  0  0  0  0  0  0  0  0
    4.2493    1.9590    1.1365 C   0  0  0  0  0  0  0  0  0  0  0  0
    5.3011    2.3892    0.3263 C   0  0  0  0  0  0  0  0  0  0  0  0
    8.7039    0.5769    0.1509 C   0  0  0  0  0  0  0  0  0  0  0  0
    9.9626    1.0602    0.8411 C   0  0  0  0  0  0  0  0  0  0  0  0
   12.7910   -0.3092   -1.3563 H   0  0  0  0  0  0  0  0  0  0  0  0
   13.5822    1.2872   -1.2831 H   0  0  0  0  0  0  0  0  0  0  0  0
   14.2053   -0.0777   -0.2505 H   0  0  0  0  0  0  0  0  0  0  0  0
   12.6092    1.7970    0.8828 H   0  0  0  0  0  0  0  0  0  0  0  0
   13.2948   -0.8386    1.4683 H   0  0  0  0  0  0  0  0  0  0  0  0
   11.5486   -1.0432    1.2228 H   0  0  0  0  0  0  0  0  0  0  0  0
   12.0756    0.1040    2.4830 H   0  0  0  0  0  0  0  0  0  0  0  0
   11.6620    1.7257   -1.9790 H   0  0  0  0  0  0  0  0  0  0  0  0
   11.0403    2.9078   -0.7535 H   0  0  0  0  0  0  0  0  0  0  0  0
    9.3542    2.7799   -2.3755 H   0  0  0  0  0  0  0  0  0  0  0  0
    9.6159    1.0556   -2.6455 H   0  0  0  0  0  0  0  0  0  0  0  0
    6.3018   -0.5686   -0.9013 H   0  0  0  0  0  0  0  0  0  0  0  0
    4.4879   -1.3707    0.4884 H   0  0  0  0  0  0  0  0  0  0  0  0
    3.1025   -0.0202    3.0354 H   0  0  0  0  0  0  0  0  0  0  0  0
    0.6990   -0.5575    3.4523 H   0  0  0  0  0  0  0  0  0  0  0  0
   -1.3966    1.5315    2.3397 H   0  0  0  0  0  0  0  0  0  0  0  0
   -3.7175    1.2323    1.4377 H   0  0  0  0  0  0  0  0  0  0  0  0
   -5.9964   -4.4178   -1.0582 H   0  0  0  0  0  0  0  0  0  0  0  0
   -7.7450   -3.9576    0.7936 H   0  0  0  0  0  0  0  0  0  0  0  0
   -7.8445   -5.4039   -0.2623 H   0  0  0  0  0  0  0  0  0  0  0  0
   -9.8107   -4.7306   -1.2462 H   0  0  0  0  0  0  0  0  0  0  0  0
   -9.9361   -3.6639    0.1817 H   0  0  0  0  0  0  0  0  0  0  0  0
   -9.2788   -3.3117   -3.4699 H   0  0  0  0  0  0  0  0  0  0  0  0
   -8.3578   -1.8553   -3.0321 H   0  0  0  0  0  0  0  0  0  0  0  0
   -6.5293   -3.3119   -3.1734 H   0  0  0  0  0  0  0  0  0  0  0  0
   -7.5749   -4.7022   -2.8396 H   0  0  0  0  0  0  0  0  0  0  0  0
   -6.6307    2.5127    0.6564 H   0  0  0  0  0  0  0  0  0  0  0  0
   -9.0031    3.8440   -0.2054 H   0  0  0  0  0  0  0  0  0  0  0  0
   -7.5066    3.6527   -1.2487 H   0  0  0  0  0  0  0  0  0  0  0  0
   -8.3844    2.0260   -2.5442 H   0  0  0  0  0  0  0  0  0  0  0  0
  -10.0158    2.5434   -1.8276 H   0  0  0  0  0  0  0  0  0  0  0  0
   -9.3307    0.0396   -1.3838 H   0  0  0  0  0  0  0  0  0  0  0  0
  -10.9231    0.4265    0.3149 H   0  0  0  0  0  0  0  0  0  0  0  0
  -10.6460    2.1893    0.1310 H   0  0  0  0  0  0  0  0  0  0  0  0
   -7.9825    2.0702    2.5414 H   0  0  0  0  0  0  0  0  0  0  0  0
   -9.0971    3.2201    1.7351 H   0  0  0  0  0  0  0  0  0  0  0  0
   -2.8468   -2.8314    0.5492 H   0  0  0  0  0  0  0  0  0  0  0  0
   -0.5562   -2.5346    1.4390 H   0  0  0  0  0  0  0  0  0  0  0  0
    3.6952    2.7006    1.6945 H   0  0  0  0  0  0  0  0  0  0  0  0
    5.5186    3.4467    0.2899 H   0  0  0  0  0  0  0  0  0  0  0  0
    7.8442    0.5408    0.8525 H   0  0  0  0  0  0  0  0  0  0  0  0
    8.9375   -0.4547   -0.2448 H   0  0  0  0  0  0  0  0  0  0  0  0
   10.2066    0.4745    1.7411 H   0  0  0  0  0  0  0  0  0  0  0  0
    9.8761    2.1473    1.1046 H   0  0  0  0  0  0  0  0  0  0  0  0
  1  2  1  0
  2  3  1  0
  2  4  1  0
  4  5  1  0
  5  6  1  0
  6  7  1  0
  7  8  1  0
  8  9  2  0
  8 10  1  0
 10 11  2  0
 11 12  1  0
 12 13  2  0
 13 14  1  0
 14 15  1  0
 15 16  2  0
 15 17  1  0
 17 18  1  0
 18 19  2  0
 19 20  1  0
 20 21  2  0
 21 22  1  0
 22 23  2  0
 23 24  1  0
 24 25  1  0
 25 26  1  0
 26 27  1  0
 27 28  1  0
 28 29  1  0
 29 30  1  0
 24 31  2  0
 31 32  1  0
 32 33  1  0
 33 34  1  0
 34 35  1  0
 35 36  1  0
 36 37  1  0
 37 38  1  0
 38 39  1  0
 39 40  1  0
 32 41  2  0
 21 42  1  0
 42 43  2  0
 13 44  1  0
 44 45  2  0
  7 46  1  0
 46 47  1  0
 47  4  1  0
 45 10  1  0
 43 18  1  0
 41 22  1  0
 30 25  1  0
 37 33  1  0
 40 34  1  0
  1 48  1  0
  1 49  1  0
  1 50  1  0
  2 51  1  0
  3 52  1  0
  3 53  1  0
  3 54  1  0
  5 55  1  0
  5 56  1  0
  6 57  1  0
  6 58  1  0
 11 59  1  0
 12 60  1  0
 14 61  1  0
 17 62  1  0
 19 63  1  0
 20 64  1  0
 25 65  1  0
 26 66  1  0
 26 67  1  0
 27 68  1  0
 27 69  1  0
 29 70  1  0
 29 71  1  0
 30 72  1  0
 30 73  1  0
 34 74  1  0
 35 75  1  0
 35 76  1  0
 36 77  1  0
 36 78  1  0
 37 79  1  0
 38 80  1  0
 38 81  1  0
 40 82  1  0
 40 83  1  0
 42 84  1  0
 43 85  1  0
 44 86  1  0
 45 87  1  0
 46 88  1  0
 46 89  1  0
 47 90  1  0
 47 91  1  0
M  END
$$$$
