@<TRIPOS>MOLECULE
*****
 41 44 0 0 0
SMALL
GASTEIGER

@<TRIPOS>ATOM
      1 O           7.1654    1.4553    0.9456 O.3     1  UNL1       -0.4771
      2 C           5.9354    1.8987    1.4121 C.2     1  UNL1        0.3368
      3 O           5.9713    2.8462    2.2454 O.2     1  UNL1       -0.2451
      4 C           4.7012    1.2961    0.9565 C.ar    1  UNL1        0.0589
      5 C           4.7475    0.2644    0.0439 C.ar    1  UNL1       -0.0472
      6 C           3.5706   -0.3031   -0.3843 C.ar    1  UNL1       -0.0518
      7 C           2.3468    0.1226    0.0663 C.ar    1  UNL1        0.0004
      8 C           2.3638    1.1557    0.9761 C.ar    1  UNL1       -0.0518
      9 C           3.4974    1.7773    1.4547 C.ar    1  UNL1       -0.0472
     10 C           1.0671   -0.4242   -0.3372 C.ar    1  UNL1        0.0724
     11 N          -0.0975    0.0518    0.1540 N.ar    1  UNL1       -0.2445
     12 C          -1.2918   -0.4474   -0.2128 C.ar    1  UNL1        0.0977
     13 C          -2.5107    0.1161    0.3590 C.ar    1  UNL1        0.0089
     14 C          -3.5046   -0.7581    0.8077 C.ar    1  UNL1       -0.0521
     15 C          -4.6811   -0.3117    1.3584 C.ar    1  UNL1       -0.0547
     16 C          -4.9147    1.0471    1.4844 C.ar    1  UNL1        0.0156
     17 C          -3.9309    1.9228    1.0403 C.ar    1  UNL1        0.2738
     18 C          -2.7360    1.4729    0.4811 C.ar    1  UNL1        0.0248
     19 N          -4.1625    3.3275    1.1660 N.pl3   1  UNL1        0.0796
     20 O          -5.3291    3.8087    1.7125 O.co2   1  UNL1       -0.5760
     21 O          -3.2988    4.1359    0.7767 O.2     1  UNL1        0.0414
     22 C          -1.4199   -1.4776   -1.1131 C.ar    1  UNL1        0.0969
     23 N          -2.5964   -2.0128   -1.5127 N.ar    1  UNL1       -0.2528
     24 C          -2.6242   -3.0251   -2.4035 C.ar    1  UNL1        0.0284
     25 C          -1.5034   -3.5934   -2.9734 C.ar    1  UNL1       -0.0430
     26 C          -0.3004   -3.0509   -2.5690 C.ar    1  UNL1       -0.0510
     27 C          -0.2581   -2.0125   -1.6561 C.ar    1  UNL1        0.0045
     28 C           0.9383   -1.4563   -1.2392 C.ar    1  UNL1       -0.0265
     29 H           8.0552    1.6328    1.3766 H       1  UNL1        0.2954
     30 H           5.7108   -0.1030   -0.3392 H       1  UNL1        0.0626
     31 H           3.5973   -1.1096   -1.0970 H       1  UNL1        0.0624
     32 H           1.4244    1.5252    1.3596 H       1  UNL1        0.0624
     33 H           3.4298    2.5745    2.1618 H       1  UNL1        0.0626
     34 H          -3.4075   -1.8369    0.7486 H       1  UNL1        0.0624
     35 H          -5.4410   -0.9752    1.7015 H       1  UNL1        0.0620
     36 H          -5.8162    1.4329    1.9069 H       1  UNL1        0.0685
     37 H          -1.9642    2.1543    0.1327 H       1  UNL1        0.0692
     38 H          -3.6134   -3.3811   -2.6565 H       1  UNL1        0.0830
     39 H          -1.5594   -4.4041   -3.6846 H       1  UNL1        0.0633
     40 H           0.6277   -3.4351   -2.9647 H       1  UNL1        0.0625
     41 H           1.8118   -1.9010   -1.6850 H       1  UNL1        0.0645
@<TRIPOS>UNITY_ATOM_ATTR
19 1
charge 1
20 1
charge -1
@<TRIPOS>BOND
     1     1     2    1
     2     2     3    2
     3     2     4    1
     4     4     5   ar
     5     5     6   ar
     6     6     7   ar
     7     7     8   ar
     8     8     9   ar
     9     7    10    1
    10    10    11   ar
    11    11    12   ar
    12    12    13    1
    13    13    14   ar
    14    14    15   ar
    15    15    16   ar
    16    16    17   ar
    17    17    18   ar
    18    17    19    1
    19    19    20    1
    20    19    21    2
    21    12    22   ar
    22    22    23   ar
    23    23    24   ar
    24    24    25   ar
    25    25    26   ar
    26    26    27   ar
    27    27    28   ar
    28     9     4   ar
    29    28    10   ar
    30    18    13   ar
    31    27    22   ar
    32     1    29    1
    33     5    30    1
    34     6    31    1
    35     8    32    1
    36     9    33    1
    37    14    34    1
    38    15    35    1
    39    16    36    1
    40    18    37    1
    41    24    38    1
    42    25    39    1
    43    26    40    1
    44    28    41    1
