@<TRIPOS>MOLECULE
*****
 77 79 0 0 0
SMALL
GASTEIGER

@<TRIPOS>ATOM
      1 C          -1.4586   -3.6199   -0.6667 C.3     1  UNL1       -0.0634
      2 C          -2.7888   -2.9441   -0.7740 C.3     1  UNL1       -0.0319
      3 CA         -2.7522   -1.4278   -0.7767 C.3     1  UNL1        0.0853
      4 N          -4.1443   -0.9566   -0.8965 N.3     1  UNL1       -0.2935
      5 CA         -5.0072   -1.3327    0.1600 C.3     1  UNL1        0.1066
      6 C          -4.5940   -0.9486    1.5284 C.3     1  UNL1       -0.0232
      7 C          -4.3997    0.4847    1.8296 C.3     1  UNL1       -0.0258
      8 C          -5.6135    1.2870    1.6536 C.ar    1  UNL1       -0.0473
      9 C          -5.8661    1.9758    0.4967 C.ar    1  UNL1       -0.0586
     10 C          -7.0304    2.7185    0.3816 C.ar    1  UNL1       -0.0615
     11 C          -7.9039    2.7381    1.4489 C.ar    1  UNL1       -0.0617
     12 C          -7.6780    2.0593    2.6188 C.ar    1  UNL1       -0.0615
     13 C          -6.5152    1.3232    2.7212 C.ar    1  UNL1       -0.0586
     14 C          -6.3895   -0.8972   -0.2191 C.2     1  UNL1        0.3219
     15 O          -6.6517   -0.4032   -1.3689 O.2     1  UNL1       -0.2492
     16 OXT        -7.4237   -1.0177    0.6666 O.3     1  UNL1       -0.4795
     17 C          -2.0757   -0.8599   -1.9677 C.2     1  UNL1        0.2333
     18 O          -2.8261   -0.5108   -2.9387 O.2     1  UNL1       -0.2739
     19 N          -0.6945   -0.6703   -2.1130 N.am    1  UNL1       -0.2849
     20 C           0.3075   -0.9445   -1.1050 C.3     1  UNL1        0.0341
     21 C           1.4283    0.0459   -1.4874 C.3     1  UNL1        0.0411
     22 N           2.6525   -0.2929   -0.8461 N.am    1  UNL1       -0.3108
     23 C           3.3243    0.6437   -0.0179 C.2     1  UNL1        0.2148
     24 O           2.7880    1.7712    0.1148 O.2     1  UNL1       -0.2758
     25 C           4.6284    0.2781    0.6657 C.3     1  UNL1        0.0394
     26 C           5.0352    1.4968    1.4307 C.3     1  UNL1        0.0172
     27 N           5.2117    2.6309    0.5319 N.3     1  UNL1       -0.3265
     28 C           6.1989    1.3690    2.3414 C.3     1  UNL1       -0.0092
     29 C           7.4398    0.9932    1.6588 C.ar    1  UNL1       -0.0078
     30 C           8.3499    1.9843    1.3331 C.ar    1  UNL1       -0.0176
     31 C           9.5156    1.6981    0.6790 C.ar    1  UNL1        0.1588
     32 F          10.3990    2.6502    0.3616 F       1  UNL1       -0.2025
     33 C           9.8062    0.3817    0.3261 C.ar    1  UNL1        0.1611
     34 F          10.9476    0.0590   -0.3209 F       1  UNL1       -0.2024
     35 C           8.9254   -0.6118    0.6365 C.ar    1  UNL1        0.0119
     36 C           7.7490   -0.2851    1.3029 C.ar    1  UNL1        0.1295
     37 F           6.9110   -1.2991    1.6144 F       1  UNL1       -0.2051
     38 C           1.4245   -0.1940   -2.9796 C.3     1  UNL1       -0.0039
     39 CA         -0.0333   -0.1435   -3.3117 C.3     1  UNL1        0.1246
     40 C          -0.3837   -0.9227   -4.5079 C.2     1  UNL1        0.3255
     41 O          -1.1420   -1.9059   -4.3834 O.2     1  UNL1       -0.2489
     42 OXT         0.0923   -0.6116   -5.7671 O.3     1  UNL1       -0.4793
     43 H          -1.5934   -4.7231   -0.4481 H       1  UNL1        0.0230
     44 H          -0.8531   -3.1808    0.1448 H       1  UNL1        0.0230
     45 H          -0.9168   -3.4886   -1.6232 H       1  UNL1        0.0230
     46 H          -3.3565   -3.2768   -1.6670 H       1  UNL1        0.0282
     47 H          -3.3510   -3.2488    0.1501 H       1  UNL1        0.0282
     48 HA         -2.3316   -1.0967    0.1770 H       1  UNL1        0.0556
     49 H          -4.4973   -1.1973   -1.8450 H       1  UNL1        0.1234
     50 HA         -5.1192   -2.4831    0.1158 H       1  UNL1        0.0576
     51 H          -3.6141   -1.4940    1.7419 H       1  UNL1        0.0289
     52 H          -5.3007   -1.4444    2.2544 H       1  UNL1        0.0289
     53 H          -3.6246    0.9579    1.1522 H       1  UNL1        0.0314
     54 H          -3.9658    0.6471    2.8570 H       1  UNL1        0.0314
     55 H          -5.1550    1.9435   -0.3362 H       1  UNL1        0.0620
     56 H          -7.2184    3.2609   -0.5430 H       1  UNL1        0.0618
     57 H          -8.8145    3.3345    1.3261 H       1  UNL1        0.0618
     58 H          -8.4038    2.1150    3.4207 H       1  UNL1        0.0618
     59 H          -6.3442    0.7931    3.6417 H       1  UNL1        0.0620
     60 HXT        -8.3580   -1.1980    0.3146 H       1  UNL1        0.2951
     61 H           0.7857   -1.9283   -1.1990 H       1  UNL1        0.0483
     62 H          -0.0147   -0.7660   -0.0803 H       1  UNL1        0.0483
     63 H           1.0355    1.0405   -1.2969 H       1  UNL1        0.0514
     64 H           3.0515   -1.2450   -0.9945 H       1  UNL1        0.1490
     65 H           4.4093   -0.5753    1.3433 H       1  UNL1        0.0374
     66 H           5.3524    0.0027   -0.1223 H       1  UNL1        0.0374
     67 H           4.1479    1.7823    2.0708 H       1  UNL1        0.0466
     68 H           5.3829    3.5014    1.0689 H       1  UNL1        0.1185
     69 H           6.0526    2.5091   -0.0916 H       1  UNL1        0.1185
     70 H           5.9654    0.6597    3.1757 H       1  UNL1        0.0329
     71 H           6.3444    2.3914    2.8105 H       1  UNL1        0.0329
     72 H           8.1572    3.0191    1.5920 H       1  UNL1        0.0651
     73 H           9.1257   -1.6280    0.3766 H       1  UNL1        0.0676
     74 H           1.9948    0.5858   -3.5272 H       1  UNL1        0.0307
     75 H           1.7852   -1.2149   -3.2330 H       1  UNL1        0.0307
     76 HA         -0.2860    0.9467   -3.4309 H       1  UNL1        0.0617
     77 HXT        -0.2344   -1.0906   -6.6098 H       1  UNL1        0.2951
@<TRIPOS>BOND
     1     1     2    1
     2     2     3    1
     3     3     4    1
     4     4     5    1
     5     5     6    1
     6     6     7    1
     7     7     8    1
     8     8     9   ar
     9     9    10   ar
    10    10    11   ar
    11    11    12   ar
    12    12    13   ar
    13     5    14    1
    14    14    15    2
    15    14    16    1
    16     3    17    1
    17    17    18    2
    18    17    19   am
    19    19    20    1
    20    20    21    1
    21    21    22    1
    22    22    23   am
    23    23    24    2
    24    23    25    1
    25    25    26    1
    26    26    27    1
    27    26    28    1
    28    28    29    1
    29    29    30   ar
    30    30    31   ar
    31    31    32    1
    32    31    33   ar
    33    33    34    1
    34    33    35   ar
    35    35    36   ar
    36    36    37    1
    37    21    38    1
    38    38    39    1
    39    39    40    1
    40    40    41    2
    41    40    42    1
    42    13     8   ar
    43    39    19    1
    44    36    29   ar
    45     1    43    1
    46     1    44    1
    47     1    45    1
    48     2    46    1
    49     2    47    1
    50     3    48    1
    51     4    49    1
    52     5    50    1
    53     6    51    1
    54     6    52    1
    55     7    53    1
    56     7    54    1
    57     9    55    1
    58    10    56    1
    59    11    57    1
    60    12    58    1
    61    13    59    1
    62    16    60    1
    63    20    61    1
    64    20    62    1
    65    21    63    1
    66    22    64    1
    67    25    65    1
    68    25    66    1
    69    26    67    1
    70    27    68    1
    71    27    69    1
    72    28    70    1
    73    28    71    1
    74    30    72    1
    75    35    73    1
    76    38    74    1
    77    38    75    1
    78    39    76    1
    79    42    77    1
