
     RDKit          3D

 77 79  0  0  0  0  0  0  0  0999 V2000
   -1.4586   -3.6199   -0.6667 C   0  0  0  0  0  0  0  0  0  0  0  0
   -2.7888   -2.9441   -0.7740 C   0  0  0  0  0  0  0  0  0  0  0  0
   -2.7522   -1.4278   -0.7767 C   0  0  2  0  0  0  0  0  0  0  0  0
   -4.1443   -0.9566   -0.8965 N   0  0  0  0  0  0  0  0  0  0  0  0
   -5.0072   -1.3327    0.1600 C   0  0  1  0  0  0  0  0  0  0  0  0
   -4.5940   -0.9486    1.5284 C   0  0  0  0  0  0  0  0  0  0  0  0
   -4.3997    0.4847    1.8296 C   0  0  0  0  0  0  0  0  0  0  0  0
   -5.6135    1.2870    1.6536 C   0  0  0  0  0  0  0  0  0  0  0  0
   -5.8661    1.9758    0.4967 C   0  0  0  0  0  0  0  0  0  0  0  0
   -7.0304    2.7185    0.3816 C   0  0  0  0  0  0  0  0  0  0  0  0
   -7.9039    2.7381    1.4489 C   0  0  0  0  0  0  0  0  0  0  0  0
   -7.6780    2.0593    2.6188 C   0  0  0  0  0  0  0  0  0  0  0  0
   -6.5152    1.3232    2.7212 C   0  0  0  0  0  0  0  0  0  0  0  0
   -6.3895   -0.8972   -0.2191 C   0  0  0  0  0  0  0  0  0  0  0  0
   -6.6517   -0.4032   -1.3689 O   0  0  0  0  0  0  0  0  0  0  0  0
   -7.4237   -1.0177    0.6666 O   0  0  0  0  0  0  0  0  0  0  0  0
   -2.0757   -0.8599   -1.9677 C   0  0  0  0  0  0  0  0  0  0  0  0
   -2.8261   -0.5108   -2.9387 O   0  0  0  0  0  0  0  0  0  0  0  0
   -0.6945   -0.6703   -2.1130 N   0  0  0  0  0  0  0  0  0  0  0  0
    0.3075   -0.9445   -1.1050 C   0  0  0  0  0  0  0  0  0  0  0  0
    1.4283    0.0459   -1.4874 C   0  0  1  0  0  0  0  0  0  0  0  0
    2.6525   -0.2929   -0.8461 N   0  0  0  0  0  0  0  0  0  0  0  0
    3.3243    0.6437   -0.0179 C   0  0  0  0  0  0  0  0  0  0  0  0
    2.7880    1.7712    0.1148 O   0  0  0  0  0  0  0  0  0  0  0  0
    4.6284    0.2781    0.6657 C   0  0  0  0  0  0  0  0  0  0  0  0
    5.0352    1.4968    1.4307 C   0  0  2  0  0  0  0  0  0  0  0  0
    5.2117    2.6309    0.5319 N   0  0  0  0  0  0  0  0  0  0  0  0
    6.1989    1.3690    2.3414 C   0  0  0  0  0  0  0  0  0  0  0  0
    7.4398    0.9932    1.6588 C   0  0  0  0  0  0  0  0  0  0  0  0
    8.3499    1.9843    1.3331 C   0  0  0  0  0  0  0  0  0  0  0  0
    9.5156    1.6981    0.6790 C   0  0  0  0  0  0  0  0  0  0  0  0
   10.3990    2.6502    0.3616 F   0  0  0  0  0  0  0  0  0  0  0  0
    9.8062    0.3817    0.3261 C   0  0  0  0  0  0  0  0  0  0  0  0
   10.9476    0.0590   -0.3209 F   0  0  0  0  0  0  0  0  0  0  0  0
    8.9254   -0.6118    0.6365 C   0  0  0  0  0  0  0  0  0  0  0  0
    7.7490   -0.2851    1.3029 C   0  0  0  0  0  0  0  0  0  0  0  0
    6.9110   -1.2991    1.6144 F   0  0  0  0  0  0  0  0  0  0  0  0
    1.4245   -0.1940   -2.9796 C   0  0  0  0  0  0  0  0  0  0  0  0
   -0.0333   -0.1435   -3.3117 C   0  0  1  0  0  0  0  0  0  0  0  0
   -0.3837   -0.9227   -4.5079 C   0  0  0  0  0  0  0  0  0  0  0  0
   -1.1420   -1.9059   -4.3834 O   0  0  0  0  0  0  0  0  0  0  0  0
    0.0923   -0.6116   -5.7671 O   0  0  0  0  0  0  0  0  0  0  0  0
   -1.5934   -4.7231   -0.4481 H   0  0  0  0  0  0  0  0  0  0  0  0
   -0.8531   -3.1808    0.1448 H   0  0  0  0  0  0  0  0  0  0  0  0
   -0.9168   -3.4886   -1.6232 H   0  0  0  0  0  0  0  0  0  0  0  0
   -3.3565   -3.2768   -1.6670 H   0  0  0  0  0  0  0  0  0  0  0  0
   -3.3510   -3.2488    0.1501 H   0  0  0  0  0  0  0  0  0  0  0  0
   -2.3316   -1.0967    0.1770 H   0  0  0  0  0  0  0  0  0  0  0  0
   -4.4973   -1.1973   -1.8450 H   0  0  0  0  0  0  0  0  0  0  0  0
   -5.1192   -2.4831    0.1158 H   0  0  0  0  0  0  0  0  0  0  0  0
   -3.6141   -1.4940    1.7419 H   0  0  0  0  0  0  0  0  0  0  0  0
   -5.3007   -1.4444    2.2544 H   0  0  0  0  0  0  0  0  0  0  0  0
   -3.6246    0.9579    1.1522 H   0  0  0  0  0  0  0  0  0  0  0  0
   -3.9658    0.6471    2.8570 H   0  0  0  0  0  0  0  0  0  0  0  0
   -5.1550    1.9435   -0.3362 H   0  0  0  0  0  0  0  0  0  0  0  0
   -7.2184    3.2609   -0.5430 H   0  0  0  0  0  0  0  0  0  0  0  0
   -8.8145    3.3345    1.3261 H   0  0  0  0  0  0  0  0  0  0  0  0
   -8.4038    2.1150    3.4207 H   0  0  0  0  0  0  0  0  0  0  0  0
   -6.3442    0.7931    3.6417 H   0  0  0  0  0  0  0  0  0  0  0  0
   -8.3580   -1.1980    0.3146 H   0  0  0  0  0  0  0  0  0  0  0  0
    0.7857   -1.9283   -1.1990 H   0  0  0  0  0  0  0  0  0  0  0  0
   -0.0147   -0.7660   -0.0803 H   0  0  0  0  0  0  0  0  0  0  0  0
    1.0355    1.0405   -1.2969 H   0  0  0  0  0  0  0  0  0  0  0  0
    3.0515   -1.2450   -0.9945 H   0  0  0  0  0  0  0  0  0  0  0  0
    4.4093   -0.5753    1.3433 H   0  0  0  0  0  0  0  0  0  0  0  0
    5.3524    0.0027   -0.1223 H   0  0  0  0  0  0  0  0  0  0  0  0
    4.1479    1.7823    2.0708 H   0  0  0  0  0  0  0  0  0  0  0  0
    5.3829    3.5014    1.0689 H   0  0  0  0  0  0  0  0  0  0  0  0
    6.0526    2.5091   -0.0916 H   0  0  0  0  0  0  0  0  0  0  0  0
    5.9654    0.6597    3.1757 H   0  0  0  0  0  0  0  0  0  0  0  0
    6.3444    2.3914    2.8105 H   0  0  0  0  0  0  0  0  0  0  0  0
    8.1572    3.0191    1.5920 H   0  0  0  0  0  0  0  0  0  0  0  0
    9.1257   -1.6280    0.3766 H   0  0  0  0  0  0  0  0  0  0  0  0
    1.9948    0.5858   -3.5272 H   0  0  0  0  0  0  0  0  0  0  0  0
    1.7852   -1.2149   -3.2330 H   0  0  0  0  0  0  0  0  0  0  0  0
   -0.2860    0.9467   -3.4309 H   0  0  0  0  0  0  0  0  0  0  0  0
   -0.2344   -1.0906   -6.6098 H   0  0  0  0  0  0  0  0  0  0  0  0
  1  2  1  0
  2  3  1  0
  3  4  1  0
  4  5  1  0
  5  6  1  0
  6  7  1  0
  7  8  1  0
  8  9  2  0
  9 10  1  0
 10 11  2  0
 11 12  1  0
 12 13  2  0
  5 14  1  0
 14 15  2  0
 14 16  1  0
  3 17  1  0
 17 18  2  0
 17 19  1  0
 19 20  1  0
 20 21  1  0
 21 22  1  0
 22 23  1  0
 23 24  2  0
 23 25  1  0
 25 26  1  0
 26 27  1  0
 26 28  1  0
 28 29  1  0
 29 30  2  0
 30 31  1  0
 31 32  1  0
 31 33  2  0
 33 34  1  0
 33 35  1  0
 35 36  2  0
 36 37  1  0
 21 38  1  0
 38 39  1  0
 39 40  1  0
 40 41  2  0
 40 42  1  0
 13  8  1  0
 39 19  1  0
 36 29  1  0
  1 43  1  0
  1 44  1  0
  1 45  1  0
  2 46  1  0
  2 47  1  0
  3 48  1  1
  4 49  1  0
  5 50  1  1
  6 51  1  0
  6 52  1  0
  7 53  1  0
  7 54  1  0
  9 55  1  0
 10 56  1  0
 11 57  1  0
 12 58  1  0
 13 59  1  0
 16 60  1  0
 20 61  1  0
 20 62  1  0
 21 63  1  6
 22 64  1  0
 25 65  1  0
 25 66  1  0
 26 67  1  1
 27 68  1  0
 27 69  1  0
 28 70  1  0
 28 71  1  0
 30 72  1  0
 35 73  1  0
 38 74  1  0
 38 75  1  0
 39 76  1  6
 42 77  1  0
M  END
$$$$
