
     RDKit          3D

 45 46  0  0  0  0  0  0  0  0999 V2000
   -5.1035    1.9309    0.7155 C   0  0  0  0  0  0  0  0  0  0  0  0
   -5.4888    0.6104    0.0578 C   0  0  0  0  0  0  0  0  0  0  0  0
   -6.8118    0.7472   -0.6412 C   0  0  0  0  0  0  0  0  0  0  0  0
   -4.5052    0.2200   -0.8823 O   0  0  0  0  0  0  0  0  0  0  0  0
   -3.1816   -0.0166   -0.5563 C   0  0  0  0  0  0  0  0  0  0  0  0
   -2.6961   -1.2500   -0.1754 C   0  0  0  0  0  0  0  0  0  0  0  0
   -1.3553   -1.4141    0.1376 C   0  0  0  0  0  0  0  0  0  0  0  0
   -0.4848   -0.3382    0.0713 C   0  0  0  0  0  0  0  0  0  0  0  0
    0.9797   -0.4541    0.3988 C   0  0  0  0  0  0  0  0  0  0  0  0
    1.6776   -0.8065   -0.9136 C   0  0  0  0  0  0  0  0  0  0  0  0
    3.1022   -0.9526   -0.7595 N   0  0  0  0  0  0  0  0  0  0  0  0
    3.9024    0.1097   -0.3007 C   0  0  0  0  0  0  0  0  0  0  0  0
    3.4040    1.2428   -0.0027 O   0  0  0  0  0  0  0  0  0  0  0  0
    5.3428   -0.0038   -0.1337 C   0  0  0  0  0  0  0  0  0  0  0  0
    6.0589    1.0841    0.3217 C   0  0  0  0  0  0  0  0  0  0  0  0
    7.4445    1.0436    0.5047 C   0  0  0  0  0  0  0  0  0  0  0  0
    8.0919   -0.1454    0.2095 C   0  0  0  0  0  0  0  0  0  0  0  0
    9.8453   -0.2070    0.4376 Cl  0  0  0  0  0  0  0  0  0  0  0  0
    7.4220   -1.2694   -0.2512 C   0  0  0  0  0  0  0  0  0  0  0  0
    6.0514   -1.1558   -0.4082 C   0  0  0  0  0  0  0  0  0  0  0  0
   -0.9589    0.9207   -0.3131 C   0  0  0  0  0  0  0  0  0  0  0  0
   -2.3038    1.0596   -0.6212 C   0  0  0  0  0  0  0  0  0  0  0  0
   -5.5590   -0.4182    1.1393 C   0  0  0  0  0  0  0  0  0  0  0  0
   -5.2681   -1.5797    1.8656 O   0  0  0  0  0  0  0  0  0  0  0  0
   -6.3421   -0.3720    2.1421 O   0  0  0  0  0  0  0  0  0  0  0  0
   -4.0256    1.9364    0.9890 H   0  0  0  0  0  0  0  0  0  0  0  0
   -5.3057    2.7447    0.0187 H   0  0  0  0  0  0  0  0  0  0  0  0
   -5.6516    2.0753    1.6650 H   0  0  0  0  0  0  0  0  0  0  0  0
   -7.5981    0.1043   -0.1888 H   0  0  0  0  0  0  0  0  0  0  0  0
   -6.7212    0.5157   -1.7249 H   0  0  0  0  0  0  0  0  0  0  0  0
   -7.2252    1.7923   -0.5336 H   0  0  0  0  0  0  0  0  0  0  0  0
   -3.3776   -2.0885   -0.1244 H   0  0  0  0  0  0  0  0  0  0  0  0
   -0.9575   -2.3702    0.4372 H   0  0  0  0  0  0  0  0  0  0  0  0
    1.3606    0.4722    0.8306 H   0  0  0  0  0  0  0  0  0  0  0  0
    1.0858   -1.2887    1.1202 H   0  0  0  0  0  0  0  0  0  0  0  0
    1.4675    0.0777   -1.5836 H   0  0  0  0  0  0  0  0  0  0  0  0
    1.2073   -1.6863   -1.3522 H   0  0  0  0  0  0  0  0  0  0  0  0
    3.5194   -1.8755   -1.0007 H   0  0  0  0  0  0  0  0  0  0  0  0
    5.5997    2.0259    0.5631 H   0  0  0  0  0  0  0  0  0  0  0  0
    8.0036    1.8967    0.8614 H   0  0  0  0  0  0  0  0  0  0  0  0
    7.9458   -2.2018   -0.4804 H   0  0  0  0  0  0  0  0  0  0  0  0
    5.5402   -2.0237   -0.7631 H   0  0  0  0  0  0  0  0  0  0  0  0
   -0.2455    1.7433   -0.3539 H   0  0  0  0  0  0  0  0  0  0  0  0
   -2.5588    2.0735   -0.9048 H   0  0  0  0  0  0  0  0  0  0  0  0
   -5.3268   -2.5089    1.4238 H   0  0  0  0  0  0  0  0  0  0  0  0
  1  2  1  0
  2  3  1  0
  2  4  1  0
  4  5  1  0
  5  6  2  0
  6  7  1  0
  7  8  2  0
  8  9  1  0
  9 10  1  0
 10 11  1  0
 11 12  1  0
 12 13  2  0
 12 14  1  0
 14 15  2  0
 15 16  1  0
 16 17  2  0
 17 18  1  0
 17 19  1  0
 19 20  2  0
  8 21  1  0
 21 22  2  0
  2 23  1  0
 23 24  1  0
 23 25  2  0
 22  5  1  0
 20 14  1  0
  1 26  1  0
  1 27  1  0
  1 28  1  0
  3 29  1  0
  3 30  1  0
  3 31  1  0
  6 32  1  0
  7 33  1  0
  9 34  1  0
  9 35  1  0
 10 36  1  0
 10 37  1  0
 11 38  1  0
 15 39  1  0
 16 40  1  0
 19 41  1  0
 20 42  1  0
 21 43  1  0
 22 44  1  0
 24 45  1  0
M  END
$$$$
