@<TRIPOS>MOLECULE
*****
 63 65 0 0 0
SMALL
GASTEIGER

@<TRIPOS>ATOM
      1 O          -4.9368   -2.3548   -1.9187 O.3     1  UNL1       -0.3934
      2 C          -4.0579   -1.8557   -0.9395 C.3     1  UNL1        0.0622
      3 C          -4.2136   -0.3669   -0.7803 C.3     1  UNL1        0.0621
      4 C          -5.6511   -0.0753   -0.4394 C.3     1  UNL1        0.1011
      5 O          -6.5351   -0.6992   -1.2938 O.3     1  UNL1       -0.3875
      6 C          -5.8805   -0.4472    1.0077 C.3     1  UNL1        0.1095
      7 O          -7.2456   -0.4374    1.3247 O.3     1  UNL1       -0.3866
      8 C          -5.1332    0.5877    1.8337 C.3     1  UNL1        0.0962
      9 O          -4.7760    0.0827    3.0797 O.3     1  UNL1       -0.3879
     10 C          -3.9909    1.1345    1.0625 C.3     1  UNL1        0.0279
     11 N          -3.3106    0.1166    0.2485 N.3     1  UNL1       -0.2923
     12 C          -2.2462    0.9036   -0.4021 C.3     1  UNL1       -0.0006
     13 C          -1.3037    0.0896   -1.2102 C.3     1  UNL1       -0.0401
     14 C          -0.5425   -0.9409   -0.4425 C.3     1  UNL1       -0.0498
     15 C           0.3003   -0.2689    0.6321 C.3     1  UNL1       -0.0294
     16 C           1.2992    0.7068    0.0527 C.3     1  UNL1        0.0481
     17 O           2.1453    0.0370   -0.8038 O.3     1  UNL1       -0.3752
     18 C           3.1110    0.8506   -1.3928 C.3     1  UNL1        0.0732
     19 C           3.9901    1.4996   -0.4308 C.ar    1  UNL1       -0.0142
     20 C           3.7775    2.8251   -0.1370 C.ar    1  UNL1       -0.0558
     21 C           4.5270    3.5242    0.7798 C.ar    1  UNL1       -0.0614
     22 C           5.5329    2.8391    1.4202 C.ar    1  UNL1       -0.0612
     23 C           5.7653    1.5163    1.1441 C.ar    1  UNL1       -0.0537
     24 C           4.9904    0.8155    0.2032 C.ar    1  UNL1       -0.0125
     25 C           5.3338   -0.5775   -0.0530 C.ar    1  UNL1       -0.0176
     26 C           5.2500   -1.5263    0.9246 C.ar    1  UNL1       -0.0540
     27 C           5.6011   -2.8429    0.7172 C.ar    1  UNL1       -0.0612
     28 C           6.0502   -3.2016   -0.5221 C.ar    1  UNL1       -0.0617
     29 C           6.1523   -2.2815   -1.5389 C.ar    1  UNL1       -0.0612
     30 C           5.7857   -0.9499   -1.2890 C.ar    1  UNL1       -0.0540
     31 H          -4.6588   -2.0012   -2.8195 H       1  UNL1        0.2095
     32 H          -3.0508   -2.1530   -1.3093 H       1  UNL1        0.0573
     33 H          -4.2340   -2.4230   -0.0226 H       1  UNL1        0.0573
     34 H          -3.9637    0.1462   -1.7567 H       1  UNL1        0.0511
     35 H          -5.8351    1.0285   -0.5467 H       1  UNL1        0.0636
     36 H          -7.1115   -0.0674   -1.8034 H       1  UNL1        0.2100
     37 H          -5.4277   -1.4218    1.2623 H       1  UNL1        0.0646
     38 H          -7.6484   -1.1760    0.7929 H       1  UNL1        0.2100
     39 H          -5.8497    1.4138    2.0247 H       1  UNL1        0.0633
     40 H          -5.6140   -0.0604    3.6117 H       1  UNL1        0.2099
     41 H          -3.2222    1.5027    1.7758 H       1  UNL1        0.0453
     42 H          -4.2339    1.9908    0.4075 H       1  UNL1        0.0453
     43 H          -2.6978    1.6848   -1.0527 H       1  UNL1        0.0427
     44 H          -1.6922    1.4134    0.4070 H       1  UNL1        0.0427
     45 H          -1.7612   -0.3193   -2.1440 H       1  UNL1        0.0278
     46 H          -0.5399    0.8222   -1.6074 H       1  UNL1        0.0278
     47 H           0.1614   -1.4476   -1.1504 H       1  UNL1        0.0266
     48 H          -1.1734   -1.7072    0.0232 H       1  UNL1        0.0266
     49 H           0.8300   -1.0655    1.2338 H       1  UNL1        0.0287
     50 H          -0.3283    0.2876    1.3536 H       1  UNL1        0.0287
     51 H           0.8337    1.6086   -0.3485 H       1  UNL1        0.0560
     52 H           1.9455    1.0036    0.9342 H       1  UNL1        0.0560
     53 H           3.6867    0.2226   -2.0804 H       1  UNL1        0.0610
     54 H           2.5645    1.6042   -2.0399 H       1  UNL1        0.0610
     55 H           2.9759    3.3755   -0.6455 H       1  UNL1        0.0621
     56 H           4.3826    4.5656    1.0301 H       1  UNL1        0.0618
     57 H           6.1401    3.3794    2.1538 H       1  UNL1        0.0618
     58 H           6.5686    0.9678    1.6549 H       1  UNL1        0.0624
     59 H           4.8841   -1.1887    1.9017 H       1  UNL1        0.0624
     60 H           5.5260   -3.5843    1.5164 H       1  UNL1        0.0618
     61 H           6.3266   -4.2286   -0.6940 H       1  UNL1        0.0618
     62 H           6.5147   -2.5874   -2.5257 H       1  UNL1        0.0618
     63 H           5.9139   -0.2890   -2.1318 H       1  UNL1        0.0624
@<TRIPOS>BOND
     1     1     2    1
     2     2     3    1
     3     3     4    1
     4     4     5    1
     5     4     6    1
     6     6     7    1
     7     6     8    1
     8     8     9    1
     9     8    10    1
    10    10    11    1
    11    11    12    1
    12    12    13    1
    13    13    14    1
    14    14    15    1
    15    15    16    1
    16    16    17    1
    17    17    18    1
    18    18    19    1
    19    19    20   ar
    20    20    21   ar
    21    21    22   ar
    22    22    23   ar
    23    23    24   ar
    24    24    25    1
    25    25    26   ar
    26    26    27   ar
    27    27    28   ar
    28    28    29   ar
    29    29    30   ar
    30    11     3    1
    31    24    19   ar
    32    30    25   ar
    33     1    31    1
    34     2    32    1
    35     2    33    1
    36     3    34    1
    37     4    35    1
    38     5    36    1
    39     6    37    1
    40     7    38    1
    41     8    39    1
    42     9    40    1
    43    10    41    1
    44    10    42    1
    45    12    43    1
    46    12    44    1
    47    13    45    1
    48    13    46    1
    49    14    47    1
    50    14    48    1
    51    15    49    1
    52    15    50    1
    53    16    51    1
    54    16    52    1
    55    18    53    1
    56    18    54    1
    57    20    55    1
    58    21    56    1
    59    22    57    1
    60    23    58    1
    61    26    59    1
    62    27    60    1
    63    28    61    1
    64    29    62    1
    65    30    63    1
