
     RDKit          3D

 63 65  0  0  0  0  0  0  0  0999 V2000
   -4.9368   -2.3548   -1.9187 O   0  0  0  0  0  0  0  0  0  0  0  0
   -4.0579   -1.8557   -0.9395 C   0  0  0  0  0  0  0  0  0  0  0  0
   -4.2136   -0.3669   -0.7803 C   0  0  1  0  0  0  0  0  0  0  0  0
   -5.6511   -0.0753   -0.4394 C   0  0  1  0  0  0  0  0  0  0  0  0
   -6.5351   -0.6992   -1.2938 O   0  0  0  0  0  0  0  0  0  0  0  0
   -5.8805   -0.4472    1.0077 C   0  0  2  0  0  0  0  0  0  0  0  0
   -7.2456   -0.4374    1.3247 O   0  0  0  0  0  0  0  0  0  0  0  0
   -5.1332    0.5877    1.8337 C   0  0  1  0  0  0  0  0  0  0  0  0
   -4.7760    0.0827    3.0797 O   0  0  0  0  0  0  0  0  0  0  0  0
   -3.9909    1.1345    1.0625 C   0  0  0  0  0  0  0  0  0  0  0  0
   -3.3106    0.1166    0.2485 N   0  0  0  0  0  0  0  0  0  0  0  0
   -2.2462    0.9036   -0.4021 C   0  0  0  0  0  0  0  0  0  0  0  0
   -1.3037    0.0896   -1.2102 C   0  0  0  0  0  0  0  0  0  0  0  0
   -0.5425   -0.9409   -0.4425 C   0  0  0  0  0  0  0  0  0  0  0  0
    0.3003   -0.2689    0.6321 C   0  0  0  0  0  0  0  0  0  0  0  0
    1.2992    0.7068    0.0527 C   0  0  0  0  0  0  0  0  0  0  0  0
    2.1453    0.0370   -0.8038 O   0  0  0  0  0  0  0  0  0  0  0  0
    3.1110    0.8506   -1.3928 C   0  0  0  0  0  0  0  0  0  0  0  0
    3.9901    1.4996   -0.4308 C   0  0  0  0  0  0  0  0  0  0  0  0
    3.7775    2.8251   -0.1370 C   0  0  0  0  0  0  0  0  0  0  0  0
    4.5270    3.5242    0.7798 C   0  0  0  0  0  0  0  0  0  0  0  0
    5.5329    2.8391    1.4202 C   0  0  0  0  0  0  0  0  0  0  0  0
    5.7653    1.5163    1.1441 C   0  0  0  0  0  0  0  0  0  0  0  0
    4.9904    0.8155    0.2032 C   0  0  0  0  0  0  0  0  0  0  0  0
    5.3338   -0.5775   -0.0530 C   0  0  0  0  0  0  0  0  0  0  0  0
    5.2500   -1.5263    0.9246 C   0  0  0  0  0  0  0  0  0  0  0  0
    5.6011   -2.8429    0.7172 C   0  0  0  0  0  0  0  0  0  0  0  0
    6.0502   -3.2016   -0.5221 C   0  0  0  0  0  0  0  0  0  0  0  0
    6.1523   -2.2815   -1.5389 C   0  0  0  0  0  0  0  0  0  0  0  0
    5.7857   -0.9499   -1.2890 C   0  0  0  0  0  0  0  0  0  0  0  0
   -4.6588   -2.0012   -2.8195 H   0  0  0  0  0  0  0  0  0  0  0  0
   -3.0508   -2.1530   -1.3093 H   0  0  0  0  0  0  0  0  0  0  0  0
   -4.2340   -2.4230   -0.0226 H   0  0  0  0  0  0  0  0  0  0  0  0
   -3.9637    0.1462   -1.7567 H   0  0  0  0  0  0  0  0  0  0  0  0
   -5.8351    1.0285   -0.5467 H   0  0  0  0  0  0  0  0  0  0  0  0
   -7.1115   -0.0674   -1.8034 H   0  0  0  0  0  0  0  0  0  0  0  0
   -5.4277   -1.4218    1.2623 H   0  0  0  0  0  0  0  0  0  0  0  0
   -7.6484   -1.1760    0.7929 H   0  0  0  0  0  0  0  0  0  0  0  0
   -5.8497    1.4138    2.0247 H   0  0  0  0  0  0  0  0  0  0  0  0
   -5.6140   -0.0604    3.6117 H   0  0  0  0  0  0  0  0  0  0  0  0
   -3.2222    1.5027    1.7758 H   0  0  0  0  0  0  0  0  0  0  0  0
   -4.2339    1.9908    0.4075 H   0  0  0  0  0  0  0  0  0  0  0  0
   -2.6978    1.6848   -1.0527 H   0  0  0  0  0  0  0  0  0  0  0  0
   -1.6922    1.4134    0.4070 H   0  0  0  0  0  0  0  0  0  0  0  0
   -1.7612   -0.3193   -2.1440 H   0  0  0  0  0  0  0  0  0  0  0  0
   -0.5399    0.8222   -1.6074 H   0  0  0  0  0  0  0  0  0  0  0  0
    0.1614   -1.4476   -1.1504 H   0  0  0  0  0  0  0  0  0  0  0  0
   -1.1734   -1.7072    0.0232 H   0  0  0  0  0  0  0  0  0  0  0  0
    0.8300   -1.0655    1.2338 H   0  0  0  0  0  0  0  0  0  0  0  0
   -0.3283    0.2876    1.3536 H   0  0  0  0  0  0  0  0  0  0  0  0
    0.8337    1.6086   -0.3485 H   0  0  0  0  0  0  0  0  0  0  0  0
    1.9455    1.0036    0.9342 H   0  0  0  0  0  0  0  0  0  0  0  0
    3.6867    0.2226   -2.0804 H   0  0  0  0  0  0  0  0  0  0  0  0
    2.5645    1.6042   -2.0399 H   0  0  0  0  0  0  0  0  0  0  0  0
    2.9759    3.3755   -0.6455 H   0  0  0  0  0  0  0  0  0  0  0  0
    4.3826    4.5656    1.0301 H   0  0  0  0  0  0  0  0  0  0  0  0
    6.1401    3.3794    2.1538 H   0  0  0  0  0  0  0  0  0  0  0  0
    6.5686    0.9678    1.6549 H   0  0  0  0  0  0  0  0  0  0  0  0
    4.8841   -1.1887    1.9017 H   0  0  0  0  0  0  0  0  0  0  0  0
    5.5260   -3.5843    1.5164 H   0  0  0  0  0  0  0  0  0  0  0  0
    6.3266   -4.2286   -0.6940 H   0  0  0  0  0  0  0  0  0  0  0  0
    6.5147   -2.5874   -2.5257 H   0  0  0  0  0  0  0  0  0  0  0  0
    5.9139   -0.2890   -2.1318 H   0  0  0  0  0  0  0  0  0  0  0  0
  1  2  1  0
  2  3  1  0
  3  4  1  0
  4  5  1  0
  4  6  1  0
  6  7  1  0
  6  8  1  0
  8  9  1  0
  8 10  1  0
 10 11  1  0
 11 12  1  0
 12 13  1  0
 13 14  1  0
 14 15  1  0
 15 16  1  0
 16 17  1  0
 17 18  1  0
 18 19  1  0
 19 20  2  0
 20 21  1  0
 21 22  2  0
 22 23  1  0
 23 24  2  0
 24 25  1  0
 25 26  2  0
 26 27  1  0
 27 28  2  0
 28 29  1  0
 29 30  2  0
 11  3  1  0
 24 19  1  0
 30 25  1  0
  1 31  1  0
  2 32  1  0
  2 33  1  0
  3 34  1  6
  4 35  1  1
  5 36  1  0
  6 37  1  6
  7 38  1  0
  8 39  1  1
  9 40  1  0
 10 41  1  0
 10 42  1  0
 12 43  1  0
 12 44  1  0
 13 45  1  0
 13 46  1  0
 14 47  1  0
 14 48  1  0
 15 49  1  0
 15 50  1  0
 16 51  1  0
 16 52  1  0
 18 53  1  0
 18 54  1  0
 20 55  1  0
 21 56  1  0
 22 57  1  0
 23 58  1  0
 26 59  1  0
 27 60  1  0
 28 61  1  0
 29 62  1  0
 30 63  1  0
M  END
$$$$
