@<TRIPOS>MOLECULE
*****
 66 70 0 0 0
SMALL
GASTEIGER

@<TRIPOS>ATOM
      1 C           8.1113   -2.6385    0.8184 C.3     1  UNL1       -0.0188
      2 C           8.3810   -1.2289    0.4487 C.ar    1  UNL1        0.0811
      3 N           9.5948   -0.6778    0.3153 N.ar    1  UNL1       -0.1748
      4 N           9.4821    0.5980   -0.0240 N.ar    1  UNL1       -0.2724
      5 C          10.6004    1.4924   -0.2488 C.3     1  UNL1        0.0303
      6 C           8.1540    0.8663   -0.1092 C.ar    1  UNL1        0.0467
      7 C           7.4249   -0.2645    0.1831 C.ar    1  UNL1        0.0744
      8 N           6.0309   -0.4982    0.2317 N.pl3   1  UNL1       -0.2809
      9 C           5.0417    0.4942   -0.0516 C.ar    1  UNL1        0.2201
     10 N           5.4006    1.7299   -0.3963 N.ar    1  UNL1       -0.2226
     11 C           4.5235    2.7087   -0.6768 C.ar    1  UNL1        0.0332
     12 C           3.1786    2.4259   -0.6055 C.ar    1  UNL1       -0.0173
     13 C           2.7976    1.1480   -0.2493 C.ar    1  UNL1        0.0780
     14 C           1.3814    0.8290   -0.1619 C.ar    1  UNL1        0.0256
     15 C           0.3226    1.6607   -0.4266 C.ar    1  UNL1        0.0120
     16 N          -0.8211    0.9828   -0.2178 N.ar    1  UNL1       -0.3586
     17 C          -0.5049   -0.2624    0.1745 C.ar    1  UNL1        0.0686
     18 C          -1.3340   -1.3095    0.5050 C.ar    1  UNL1        0.0576
     19 N          -2.7532   -1.1752    0.4557 N.am    1  UNL1       -0.2825
     20 C          -3.4873   -1.5247   -0.6999 C.2     1  UNL1        0.2342
     21 O          -2.7639   -1.9720   -1.6634 O.2     1  UNL1       -0.2738
     22 C          -4.9290   -1.4350   -0.8936 C.3     1  UNL1        0.0848
     23 C          -5.6856   -2.4562   -0.0487 C.3     1  UNL1       -0.0409
     24 N          -5.4586   -0.1281   -0.7692 N.3     1  UNL1       -0.2893
     25 C          -5.2410    0.6088    0.4060 C.3     1  UNL1        0.0124
     26 C          -6.1801    1.8111    0.4118 C.3     1  UNL1        0.0114
     27 N          -7.5459    1.3804    0.6254 N.3     1  UNL1       -0.3029
     28 C          -8.4953    2.4428    0.4485 C.3     1  UNL1       -0.0127
     29 C          -7.8401    0.1869   -0.1315 C.3     1  UNL1        0.0114
     30 C          -6.8138   -0.0869   -1.1930 C.3     1  UNL1        0.0124
     31 C          -0.7512   -2.5015    0.8856 C.ar    1  UNL1       -0.0384
     32 C           0.6147   -2.6744    0.9442 C.ar    1  UNL1       -0.0593
     33 C           1.4265   -1.6075    0.6078 C.ar    1  UNL1       -0.0518
     34 C           0.8776   -0.3946    0.2204 C.ar    1  UNL1        0.0107
     35 N           3.7279    0.2189    0.0177 N.ar    1  UNL1       -0.2142
     36 H           8.9438   -3.0622    1.4104 H       1  UNL1        0.0294
     37 H           8.0094   -3.2693   -0.0865 H       1  UNL1        0.0294
     38 H           7.1806   -2.7432    1.4219 H       1  UNL1        0.0294
     39 H          10.8380    1.5216   -1.3270 H       1  UNL1        0.0473
     40 H          10.2749    2.4992    0.1136 H       1  UNL1        0.0473
     41 H          11.4476    1.1653    0.3759 H       1  UNL1        0.0473
     42 H           7.7463    1.8216   -0.3661 H       1  UNL1        0.0845
     43 H           5.6816   -1.4640    0.4914 H       1  UNL1        0.1551
     44 H           4.8084    3.7129   -0.9564 H       1  UNL1        0.0831
     45 H           2.4397    3.1995   -0.8287 H       1  UNL1        0.0654
     46 H           0.4578    2.6972   -0.7518 H       1  UNL1        0.0814
     47 H          -1.7908    1.3467   -0.3346 H       1  UNL1        0.1654
     48 H          -3.2708   -0.8285    1.2875 H       1  UNL1        0.1549
     49 H          -5.1515   -1.7619   -1.9580 H       1  UNL1        0.0556
     50 H          -5.0329   -3.3730   -0.0138 H       1  UNL1        0.0249
     51 H          -5.8150   -2.1315    0.9860 H       1  UNL1        0.0249
     52 H          -6.6244   -2.7759   -0.5418 H       1  UNL1        0.0249
     53 H          -5.4555    0.0815    1.3509 H       1  UNL1        0.0439
     54 H          -4.2176    1.0614    0.3585 H       1  UNL1        0.0439
     55 H          -5.9088    2.5402    1.1718 H       1  UNL1        0.0439
     56 H          -6.1199    2.2665   -0.5945 H       1  UNL1        0.0439
     57 H          -8.9795    2.4625   -0.5319 H       1  UNL1        0.0391
     58 H          -8.0326    3.4171    0.6779 H       1  UNL1        0.0391
     59 H          -9.2893    2.3024    1.2309 H       1  UNL1        0.0391
     60 H          -8.8139    0.3355   -0.6299 H       1  UNL1        0.0439
     61 H          -7.9513   -0.6506    0.5757 H       1  UNL1        0.0439
     62 H          -7.0737   -1.0980   -1.6350 H       1  UNL1        0.0439
     63 H          -6.8999    0.6106   -2.0589 H       1  UNL1        0.0439
     64 H          -1.4317   -3.3158    1.1412 H       1  UNL1        0.0637
     65 H           1.0721   -3.6261    1.2471 H       1  UNL1        0.0618
     66 H           2.4917   -1.6908    0.6374 H       1  UNL1        0.0624
@<TRIPOS>BOND
     1     1     2    1
     2     2     3   ar
     3     3     4   ar
     4     4     5    1
     5     4     6   ar
     6     6     7   ar
     7     7     8    1
     8     8     9    1
     9     9    10   ar
    10    10    11   ar
    11    11    12   ar
    12    12    13   ar
    13    13    14    1
    14    14    15   ar
    15    15    16   ar
    16    16    17   ar
    17    17    18   ar
    18    18    19    1
    19    19    20   am
    20    20    21    2
    21    20    22    1
    22    22    23    1
    23    22    24    1
    24    24    25    1
    25    25    26    1
    26    26    27    1
    27    27    28    1
    28    27    29    1
    29    29    30    1
    30    18    31   ar
    31    31    32   ar
    32    32    33   ar
    33    33    34   ar
    34    13    35   ar
    35     7     2   ar
    36    35     9   ar
    37    34    14   ar
    38    34    17   ar
    39    30    24    1
    40     1    36    1
    41     1    37    1
    42     1    38    1
    43     5    39    1
    44     5    40    1
    45     5    41    1
    46     6    42    1
    47     8    43    1
    48    11    44    1
    49    12    45    1
    50    15    46    1
    51    16    47    1
    52    19    48    1
    53    22    49    1
    54    23    50    1
    55    23    51    1
    56    23    52    1
    57    25    53    1
    58    25    54    1
    59    26    55    1
    60    26    56    1
    61    28    57    1
    62    28    58    1
    63    28    59    1
    64    29    60    1
    65    29    61    1
    66    30    62    1
    67    30    63    1
    68    31    64    1
    69    32    65    1
    70    33    66    1
