
     RDKit          3D

 66 70  0  0  0  0  0  0  0  0999 V2000
    8.1113   -2.6385    0.8184 C   0  0  0  0  0  0  0  0  0  0  0  0
    8.3810   -1.2289    0.4487 C   0  0  0  0  0  0  0  0  0  0  0  0
    9.5948   -0.6778    0.3153 N   0  0  0  0  0  0  0  0  0  0  0  0
    9.4821    0.5980   -0.0240 N   0  0  0  0  0  0  0  0  0  0  0  0
   10.6004    1.4924   -0.2488 C   0  0  0  0  0  0  0  0  0  0  0  0
    8.1540    0.8663   -0.1092 C   0  0  0  0  0  0  0  0  0  0  0  0
    7.4249   -0.2645    0.1831 C   0  0  0  0  0  0  0  0  0  0  0  0
    6.0309   -0.4982    0.2317 N   0  0  0  0  0  0  0  0  0  0  0  0
    5.0417    0.4942   -0.0516 C   0  0  0  0  0  0  0  0  0  0  0  0
    5.4006    1.7299   -0.3963 N   0  0  0  0  0  0  0  0  0  0  0  0
    4.5235    2.7087   -0.6768 C   0  0  0  0  0  0  0  0  0  0  0  0
    3.1786    2.4259   -0.6055 C   0  0  0  0  0  0  0  0  0  0  0  0
    2.7976    1.1480   -0.2493 C   0  0  0  0  0  0  0  0  0  0  0  0
    1.3814    0.8290   -0.1619 C   0  0  0  0  0  0  0  0  0  0  0  0
    0.3226    1.6607   -0.4266 C   0  0  0  0  0  0  0  0  0  0  0  0
   -0.8211    0.9828   -0.2178 N   0  0  0  0  0  0  0  0  0  0  0  0
   -0.5049   -0.2624    0.1745 C   0  0  0  0  0  0  0  0  0  0  0  0
   -1.3340   -1.3095    0.5050 C   0  0  0  0  0  0  0  0  0  0  0  0
   -2.7532   -1.1752    0.4557 N   0  0  0  0  0  0  0  0  0  0  0  0
   -3.4873   -1.5247   -0.6999 C   0  0  0  0  0  0  0  0  0  0  0  0
   -2.7639   -1.9720   -1.6634 O   0  0  0  0  0  0  0  0  0  0  0  0
   -4.9290   -1.4350   -0.8936 C   0  0  1  0  0  0  0  0  0  0  0  0
   -5.6856   -2.4562   -0.0487 C   0  0  0  0  0  0  0  0  0  0  0  0
   -5.4586   -0.1281   -0.7692 N   0  0  0  0  0  0  0  0  0  0  0  0
   -5.2410    0.6088    0.4060 C   0  0  0  0  0  0  0  0  0  0  0  0
   -6.1801    1.8111    0.4118 C   0  0  0  0  0  0  0  0  0  0  0  0
   -7.5459    1.3804    0.6254 N   0  0  0  0  0  0  0  0  0  0  0  0
   -8.4953    2.4428    0.4485 C   0  0  0  0  0  0  0  0  0  0  0  0
   -7.8401    0.1869   -0.1315 C   0  0  0  0  0  0  0  0  0  0  0  0
   -6.8138   -0.0869   -1.1930 C   0  0  0  0  0  0  0  0  0  0  0  0
   -0.7512   -2.5015    0.8856 C   0  0  0  0  0  0  0  0  0  0  0  0
    0.6147   -2.6744    0.9442 C   0  0  0  0  0  0  0  0  0  0  0  0
    1.4265   -1.6075    0.6078 C   0  0  0  0  0  0  0  0  0  0  0  0
    0.8776   -0.3946    0.2204 C   0  0  0  0  0  0  0  0  0  0  0  0
    3.7279    0.2189    0.0177 N   0  0  0  0  0  0  0  0  0  0  0  0
    8.9438   -3.0622    1.4104 H   0  0  0  0  0  0  0  0  0  0  0  0
    8.0094   -3.2693   -0.0865 H   0  0  0  0  0  0  0  0  0  0  0  0
    7.1806   -2.7432    1.4219 H   0  0  0  0  0  0  0  0  0  0  0  0
   10.8380    1.5216   -1.3270 H   0  0  0  0  0  0  0  0  0  0  0  0
   10.2749    2.4992    0.1136 H   0  0  0  0  0  0  0  0  0  0  0  0
   11.4476    1.1653    0.3759 H   0  0  0  0  0  0  0  0  0  0  0  0
    7.7463    1.8216   -0.3661 H   0  0  0  0  0  0  0  0  0  0  0  0
    5.6816   -1.4640    0.4914 H   0  0  0  0  0  0  0  0  0  0  0  0
    4.8084    3.7129   -0.9564 H   0  0  0  0  0  0  0  0  0  0  0  0
    2.4397    3.1995   -0.8287 H   0  0  0  0  0  0  0  0  0  0  0  0
    0.4578    2.6972   -0.7518 H   0  0  0  0  0  0  0  0  0  0  0  0
   -1.7908    1.3467   -0.3346 H   0  0  0  0  0  0  0  0  0  0  0  0
   -3.2708   -0.8285    1.2875 H   0  0  0  0  0  0  0  0  0  0  0  0
   -5.1515   -1.7619   -1.9580 H   0  0  0  0  0  0  0  0  0  0  0  0
   -5.0329   -3.3730   -0.0138 H   0  0  0  0  0  0  0  0  0  0  0  0
   -5.8150   -2.1315    0.9860 H   0  0  0  0  0  0  0  0  0  0  0  0
   -6.6244   -2.7759   -0.5418 H   0  0  0  0  0  0  0  0  0  0  0  0
   -5.4555    0.0815    1.3509 H   0  0  0  0  0  0  0  0  0  0  0  0
   -4.2176    1.0614    0.3585 H   0  0  0  0  0  0  0  0  0  0  0  0
   -5.9088    2.5402    1.1718 H   0  0  0  0  0  0  0  0  0  0  0  0
   -6.1199    2.2665   -0.5945 H   0  0  0  0  0  0  0  0  0  0  0  0
   -8.9795    2.4625   -0.5319 H   0  0  0  0  0  0  0  0  0  0  0  0
   -8.0326    3.4171    0.6779 H   0  0  0  0  0  0  0  0  0  0  0  0
   -9.2893    2.3024    1.2309 H   0  0  0  0  0  0  0  0  0  0  0  0
   -8.8139    0.3355   -0.6299 H   0  0  0  0  0  0  0  0  0  0  0  0
   -7.9513   -0.6506    0.5757 H   0  0  0  0  0  0  0  0  0  0  0  0
   -7.0737   -1.0980   -1.6350 H   0  0  0  0  0  0  0  0  0  0  0  0
   -6.8999    0.6106   -2.0589 H   0  0  0  0  0  0  0  0  0  0  0  0
   -1.4317   -3.3158    1.1412 H   0  0  0  0  0  0  0  0  0  0  0  0
    1.0721   -3.6261    1.2471 H   0  0  0  0  0  0  0  0  0  0  0  0
    2.4917   -1.6908    0.6374 H   0  0  0  0  0  0  0  0  0  0  0  0
  1  2  1  0
  2  3  2  0
  3  4  1  0
  4  5  1  0
  4  6  1  0
  6  7  2  0
  7  8  1  0
  8  9  1  0
  9 10  2  0
 10 11  1  0
 11 12  2  0
 12 13  1  0
 13 14  1  0
 14 15  2  0
 15 16  1  0
 16 17  1  0
 17 18  2  0
 18 19  1  0
 19 20  1  0
 20 21  2  0
 20 22  1  0
 22 23  1  0
 22 24  1  0
 24 25  1  0
 25 26  1  0
 26 27  1  0
 27 28  1  0
 27 29  1  0
 29 30  1  0
 18 31  1  0
 31 32  2  0
 32 33  1  0
 33 34  2  0
 13 35  2  0
  7  2  1  0
 35  9  1  0
 34 14  1  0
 34 17  1  0
 30 24  1  0
  1 36  1  0
  1 37  1  0
  1 38  1  0
  5 39  1  0
  5 40  1  0
  5 41  1  0
  6 42  1  0
  8 43  1  0
 11 44  1  0
 12 45  1  0
 15 46  1  0
 16 47  1  0
 19 48  1  0
 22 49  1  6
 23 50  1  0
 23 51  1  0
 23 52  1  0
 25 53  1  0
 25 54  1  0
 26 55  1  0
 26 56  1  0
 28 57  1  0
 28 58  1  0
 28 59  1  0
 29 60  1  0
 29 61  1  0
 30 62  1  0
 30 63  1  0
 31 64  1  0
 32 65  1  0
 33 66  1  0
M  END
$$$$
