@<TRIPOS>MOLECULE
*****
 58 61 0 0 0
SMALL
GASTEIGER

@<TRIPOS>ATOM
      1 C          -2.4616   -0.1232   -1.8346 C.3     1  UNL1       -0.0374
      2 C          -3.1274   -0.5086   -0.5711 C.ar    1  UNL1       -0.0165
      3 C          -4.5071   -0.2311   -0.4896 C.ar    1  UNL1       -0.0133
      4 C          -5.1780   -0.5183    0.6715 C.ar    1  UNL1        0.1388
      5 O          -6.4949   -0.3100    0.9034 O.3     1  UNL1       -0.4902
      6 C          -7.5161    0.2106    0.1570 C.3     1  UNL1        0.0925
      7 C          -7.2236    1.6522   -0.2054 C.3     1  UNL1       -0.0068
      8 C          -7.0301    2.6233    0.9528 C.3     1  UNL1       -0.0468
      9 C          -8.2314    2.7005    0.1251 C.3     1  UNL1       -0.0468
     10 C          -4.4498   -1.0813    1.7340 C.ar    1  UNL1        0.0701
     11 N          -3.1500   -1.3209    1.5964 N.ar    1  UNL1       -0.2465
     12 C          -2.4346   -1.0501    0.4499 C.ar    1  UNL1        0.1288
     13 C          -1.0430   -1.4247    0.4268 C.2     1  UNL1        0.2668
     14 O          -0.4351   -1.5428    1.5709 O.2     1  UNL1       -0.2682
     15 N          -0.2177   -1.6956   -0.6714 N.am    1  UNL1       -0.2801
     16 C           1.1757   -2.0531   -0.5264 C.ar    1  UNL1        0.0369
     17 C           1.5462   -3.3732   -0.3993 C.ar    1  UNL1       -0.0023
     18 C           2.8966   -3.6950   -0.2605 C.ar    1  UNL1        0.1605
     19 F           3.2902   -4.9865   -0.1335 F       1  UNL1       -0.2024
     20 C           3.8523   -2.6748   -0.2526 C.ar    1  UNL1        0.1640
     21 F           5.1340   -3.0195   -0.1181 F       1  UNL1       -0.2021
     22 C           3.4866   -1.3477   -0.3798 C.ar    1  UNL1        0.0197
     23 C           4.4547   -0.2520   -0.3762 C.3     1  UNL1        0.0952
     24 C           5.3390   -0.4044   -1.6107 C.3     1  UNL1       -0.0352
     25 C           5.2999   -0.2472    0.8744 C.3     1  UNL1        0.0223
     26 C           5.9376    1.0622    1.1745 C.3     1  UNL1        0.1997
     27 C           7.4617    0.9978    1.0821 C.3     1  UNL1        0.4266
     28 F           7.8053    0.6237   -0.2009 F       1  UNL1       -0.1669
     29 F           7.9442    2.2575    1.3890 F       1  UNL1       -0.1669
     30 F           7.9106    0.0925    2.0280 F       1  UNL1       -0.1669
     31 O           5.5193    2.1258    0.3759 O.2     1  UNL1       -0.4534
     32 C           4.2490    2.1348   -0.1739 C.2     1  UNL1        0.2765
     33 N           3.5116    3.3581   -0.3443 N.pl3   1  UNL1       -0.3134
     34 N           3.7523    1.0059   -0.5272 N.2     1  UNL1       -0.2257
     35 C           2.1406   -1.0877   -0.5137 C.ar    1  UNL1       -0.0321
     36 H          -1.4932    0.3884   -1.7042 H       1  UNL1        0.0278
     37 H          -2.4894   -0.9020   -2.6104 H       1  UNL1        0.0278
     38 H          -3.1117    0.7091   -2.2933 H       1  UNL1        0.0278
     39 H          -5.0251    0.1945   -1.3319 H       1  UNL1        0.0658
     40 H          -7.7835   -0.3875   -0.7386 H       1  UNL1        0.0699
     41 H          -8.4475    0.2016    0.7972 H       1  UNL1        0.0699
     42 H          -6.7136    1.7942   -1.1559 H       1  UNL1        0.0334
     43 H          -7.0839    2.1885    1.9712 H       1  UNL1        0.0269
     44 H          -6.1511    3.2834    0.8106 H       1  UNL1        0.0269
     45 H          -8.4146    3.5235   -0.5955 H       1  UNL1        0.0269
     46 H          -9.1746    2.3208    0.5755 H       1  UNL1        0.0269
     47 H          -4.9697   -1.3176    2.6700 H       1  UNL1        0.0867
     48 H          -0.5834   -1.6758   -1.6248 H       1  UNL1        0.1552
     49 H           0.7821   -4.1407   -0.4091 H       1  UNL1        0.0666
     50 H           6.1625   -1.1183   -1.4483 H       1  UNL1        0.0256
     51 H           4.7169   -0.7679   -2.4739 H       1  UNL1        0.0256
     52 H           5.7149    0.5835   -1.9090 H       1  UNL1        0.0256
     53 H           4.6936   -0.6342    1.7209 H       1  UNL1        0.0330
     54 H           6.1322   -1.0006    0.7500 H       1  UNL1        0.0330
     55 H           5.6872    1.3418    2.2398 H       1  UNL1        0.0826
     56 H           3.9193    4.0796   -0.9792 H       1  UNL1        0.1466
     57 H           2.6046    3.4950    0.1595 H       1  UNL1        0.1466
     58 H           1.8210   -0.0561   -0.6156 H       1  UNL1        0.0640
@<TRIPOS>BOND
     1     1     2    1
     2     2     3   ar
     3     3     4   ar
     4     4     5    1
     5     5     6    1
     6     6     7    1
     7     7     8    1
     8     8     9    1
     9     4    10   ar
    10    10    11   ar
    11    11    12   ar
    12    12    13    1
    13    13    14    2
    14    13    15   am
    15    15    16    1
    16    16    17   ar
    17    17    18   ar
    18    18    19    1
    19    18    20   ar
    20    20    21    1
    21    20    22   ar
    22    22    23    1
    23    23    24    1
    24    23    25    1
    25    25    26    1
    26    26    27    1
    27    27    28    1
    28    27    29    1
    29    27    30    1
    30    26    31    1
    31    31    32    1
    32    32    33    1
    33    32    34    2
    34    22    35   ar
    35    12     2   ar
    36    35    16   ar
    37     9     7    1
    38    34    23    1
    39     1    36    1
    40     1    37    1
    41     1    38    1
    42     3    39    1
    43     6    40    1
    44     6    41    1
    45     7    42    1
    46     8    43    1
    47     8    44    1
    48     9    45    1
    49     9    46    1
    50    10    47    1
    51    15    48    1
    52    17    49    1
    53    24    50    1
    54    24    51    1
    55    24    52    1
    56    25    53    1
    57    25    54    1
    58    26    55    1
    59    33    56    1
    60    33    57    1
    61    35    58    1
