
     RDKit          3D

 58 61  0  0  0  0  0  0  0  0999 V2000
   -2.4616   -0.1232   -1.8346 C   0  0  0  0  0  0  0  0  0  0  0  0
   -3.1274   -0.5086   -0.5711 C   0  0  0  0  0  0  0  0  0  0  0  0
   -4.5071   -0.2311   -0.4896 C   0  0  0  0  0  0  0  0  0  0  0  0
   -5.1780   -0.5183    0.6715 C   0  0  0  0  0  0  0  0  0  0  0  0
   -6.4949   -0.3100    0.9034 O   0  0  0  0  0  0  0  0  0  0  0  0
   -7.5161    0.2106    0.1570 C   0  0  0  0  0  0  0  0  0  0  0  0
   -7.2236    1.6522   -0.2054 C   0  0  0  0  0  0  0  0  0  0  0  0
   -7.0301    2.6233    0.9528 C   0  0  0  0  0  0  0  0  0  0  0  0
   -8.2314    2.7005    0.1251 C   0  0  0  0  0  0  0  0  0  0  0  0
   -4.4498   -1.0813    1.7340 C   0  0  0  0  0  0  0  0  0  0  0  0
   -3.1500   -1.3209    1.5964 N   0  0  0  0  0  0  0  0  0  0  0  0
   -2.4346   -1.0501    0.4499 C   0  0  0  0  0  0  0  0  0  0  0  0
   -1.0430   -1.4247    0.4268 C   0  0  0  0  0  0  0  0  0  0  0  0
   -0.4351   -1.5428    1.5709 O   0  0  0  0  0  0  0  0  0  0  0  0
   -0.2177   -1.6956   -0.6714 N   0  0  0  0  0  0  0  0  0  0  0  0
    1.1757   -2.0531   -0.5264 C   0  0  0  0  0  0  0  0  0  0  0  0
    1.5462   -3.3732   -0.3993 C   0  0  0  0  0  0  0  0  0  0  0  0
    2.8966   -3.6950   -0.2605 C   0  0  0  0  0  0  0  0  0  0  0  0
    3.2902   -4.9865   -0.1335 F   0  0  0  0  0  0  0  0  0  0  0  0
    3.8523   -2.6748   -0.2526 C   0  0  0  0  0  0  0  0  0  0  0  0
    5.1340   -3.0195   -0.1181 F   0  0  0  0  0  0  0  0  0  0  0  0
    3.4866   -1.3477   -0.3798 C   0  0  0  0  0  0  0  0  0  0  0  0
    4.4547   -0.2520   -0.3762 C   0  0  2  0  0  0  0  0  0  0  0  0
    5.3390   -0.4044   -1.6107 C   0  0  0  0  0  0  0  0  0  0  0  0
    5.2999   -0.2472    0.8744 C   0  0  0  0  0  0  0  0  0  0  0  0
    5.9376    1.0622    1.1745 C   0  0  1  0  0  0  0  0  0  0  0  0
    7.4617    0.9978    1.0821 C   0  0  0  0  0  0  0  0  0  0  0  0
    7.8053    0.6237   -0.2009 F   0  0  0  0  0  0  0  0  0  0  0  0
    7.9442    2.2575    1.3890 F   0  0  0  0  0  0  0  0  0  0  0  0
    7.9106    0.0925    2.0280 F   0  0  0  0  0  0  0  0  0  0  0  0
    5.5193    2.1258    0.3759 O   0  0  0  0  0  0  0  0  0  0  0  0
    4.2490    2.1348   -0.1739 C   0  0  0  0  0  0  0  0  0  0  0  0
    3.5116    3.3581   -0.3443 N   0  0  0  0  0  0  0  0  0  0  0  0
    3.7523    1.0059   -0.5272 N   0  0  0  0  0  0  0  0  0  0  0  0
    2.1406   -1.0877   -0.5137 C   0  0  0  0  0  0  0  0  0  0  0  0
   -1.4932    0.3884   -1.7042 H   0  0  0  0  0  0  0  0  0  0  0  0
   -2.4894   -0.9020   -2.6104 H   0  0  0  0  0  0  0  0  0  0  0  0
   -3.1117    0.7091   -2.2933 H   0  0  0  0  0  0  0  0  0  0  0  0
   -5.0251    0.1945   -1.3319 H   0  0  0  0  0  0  0  0  0  0  0  0
   -7.7835   -0.3875   -0.7386 H   0  0  0  0  0  0  0  0  0  0  0  0
   -8.4475    0.2016    0.7972 H   0  0  0  0  0  0  0  0  0  0  0  0
   -6.7136    1.7942   -1.1559 H   0  0  0  0  0  0  0  0  0  0  0  0
   -7.0839    2.1885    1.9712 H   0  0  0  0  0  0  0  0  0  0  0  0
   -6.1511    3.2834    0.8106 H   0  0  0  0  0  0  0  0  0  0  0  0
   -8.4146    3.5235   -0.5955 H   0  0  0  0  0  0  0  0  0  0  0  0
   -9.1746    2.3208    0.5755 H   0  0  0  0  0  0  0  0  0  0  0  0
   -4.9697   -1.3176    2.6700 H   0  0  0  0  0  0  0  0  0  0  0  0
   -0.5834   -1.6758   -1.6248 H   0  0  0  0  0  0  0  0  0  0  0  0
    0.7821   -4.1407   -0.4091 H   0  0  0  0  0  0  0  0  0  0  0  0
    6.1625   -1.1183   -1.4483 H   0  0  0  0  0  0  0  0  0  0  0  0
    4.7169   -0.7679   -2.4739 H   0  0  0  0  0  0  0  0  0  0  0  0
    5.7149    0.5835   -1.9090 H   0  0  0  0  0  0  0  0  0  0  0  0
    4.6936   -0.6342    1.7209 H   0  0  0  0  0  0  0  0  0  0  0  0
    6.1322   -1.0006    0.7500 H   0  0  0  0  0  0  0  0  0  0  0  0
    5.6872    1.3418    2.2398 H   0  0  0  0  0  0  0  0  0  0  0  0
    3.9193    4.0796   -0.9792 H   0  0  0  0  0  0  0  0  0  0  0  0
    2.6046    3.4950    0.1595 H   0  0  0  0  0  0  0  0  0  0  0  0
    1.8210   -0.0561   -0.6156 H   0  0  0  0  0  0  0  0  0  0  0  0
  1  2  1  0
  2  3  2  0
  3  4  1  0
  4  5  1  0
  5  6  1  0
  6  7  1  0
  7  8  1  0
  8  9  1  0
  4 10  2  0
 10 11  1  0
 11 12  2  0
 12 13  1  0
 13 14  2  0
 13 15  1  0
 15 16  1  0
 16 17  2  0
 17 18  1  0
 18 19  1  0
 18 20  2  0
 20 21  1  0
 20 22  1  0
 22 23  1  0
 23 24  1  6
 23 25  1  0
 25 26  1  0
 26 27  1  0
 27 28  1  0
 27 29  1  0
 27 30  1  0
 26 31  1  0
 31 32  1  0
 32 33  1  0
 32 34  2  0
 22 35  2  0
 12  2  1  0
 35 16  1  0
  9  7  1  0
 34 23  1  0
  1 36  1  0
  1 37  1  0
  1 38  1  0
  3 39  1  0
  6 40  1  0
  6 41  1  0
  7 42  1  0
  8 43  1  0
  8 44  1  0
  9 45  1  0
  9 46  1  0
 10 47  1  0
 15 48  1  0
 17 49  1  0
 24 50  1  0
 24 51  1  0
 24 52  1  0
 25 53  1  0
 25 54  1  0
 26 55  1  1
 33 56  1  0
 33 57  1  0
 35 58  1  0
M  END
$$$$
