
     RDKit          3D

 49 53  0  0  0  0  0  0  0  0999 V2000
   -2.7639   -0.8172   -0.4722 O   0  0  0  0  0  0  0  0  0  0  0  0
   -3.1118    0.3281   -0.0985 C   0  0  0  0  0  0  0  0  0  0  0  0
   -4.4897    0.6591   -0.3244 N   0  0  0  0  0  0  0  0  0  0  0  0
   -5.4276   -0.2515   -0.9407 C   0  0  0  0  0  0  0  0  0  0  0  0
   -6.3531    0.2545   -2.0132 C   0  0  0  0  0  0  0  0  0  0  0  0
   -6.8638   -0.2124   -0.6724 C   0  0  0  0  0  0  0  0  0  0  0  0
   -2.2044    1.2811    0.5250 C   0  0  0  0  0  0  0  0  0  0  0  0
   -2.5481    2.5459    0.9644 C   0  0  0  0  0  0  0  0  0  0  0  0
   -1.4417    3.1176    1.4758 N   0  0  0  0  0  0  0  0  0  0  0  0
   -0.4167    2.2628    1.3744 C   0  0  0  0  0  0  0  0  0  0  0  0
    0.9200    2.2890    1.7117 C   0  0  0  0  0  0  0  0  0  0  0  0
    1.7268    1.2089    1.4596 C   0  0  0  0  0  0  0  0  0  0  0  0
    1.2210    0.0769    0.8653 C   0  0  0  0  0  0  0  0  0  0  0  0
    2.0240   -1.0922    0.5624 C   0  0  0  0  0  0  0  0  0  0  0  0
    2.9802   -1.1571   -0.4214 C   0  0  0  0  0  0  0  0  0  0  0  0
    3.4431   -0.1497   -1.3631 C   0  0  0  0  0  0  0  0  0  0  0  0
    4.1756    0.9541   -1.0142 C   0  0  0  0  0  0  0  0  0  0  0  0
    4.6139    1.9111   -1.9072 C   0  0  0  0  0  0  0  0  0  0  0  0
    4.3017    1.7647   -3.2590 C   0  0  0  0  0  0  0  0  0  0  0  0
    4.7069    2.6711   -4.1920 F   0  0  0  0  0  0  0  0  0  0  0  0
    3.5658    0.6647   -3.6413 C   0  0  0  0  0  0  0  0  0  0  0  0
    3.1423   -0.2763   -2.7182 C   0  0  0  0  0  0  0  0  0  0  0  0
    3.5011   -2.4223   -0.3865 N   0  0  0  0  0  0  0  0  0  0  0  0
    2.8890   -3.1194    0.5868 C   0  0  0  0  0  0  0  0  0  0  0  0
    2.0052   -2.2952    1.1422 N   0  0  0  0  0  0  0  0  0  0  0  0
    1.1355   -2.6409    2.2451 C   0  0  0  0  0  0  0  0  0  0  0  0
    1.8396   -2.3226    3.5673 C   0  0  0  0  0  0  0  0  0  0  0  0
    3.0114   -3.0641    3.6479 F   0  0  0  0  0  0  0  0  0  0  0  0
    1.0307   -2.6868    4.6061 F   0  0  0  0  0  0  0  0  0  0  0  0
   -0.1192    0.0694    0.5352 C   0  0  0  0  0  0  0  0  0  0  0  0
   -0.8911    1.1331    0.7886 N   0  0  0  0  0  0  0  0  0  0  0  0
   -4.7760    1.6115   -0.0113 H   0  0  0  0  0  0  0  0  0  0  0  0
   -4.9730   -1.2320   -1.1940 H   0  0  0  0  0  0  0  0  0  0  0  0
   -6.2851    1.3104   -2.2599 H   0  0  0  0  0  0  0  0  0  0  0  0
   -6.5800   -0.4054   -2.9001 H   0  0  0  0  0  0  0  0  0  0  0  0
   -7.3395    0.5307   -0.0000 H   0  0  0  0  0  0  0  0  0  0  0  0
   -7.4539   -1.1634   -0.7023 H   0  0  0  0  0  0  0  0  0  0  0  0
   -3.5599    2.9701    0.8901 H   0  0  0  0  0  0  0  0  0  0  0  0
    1.2876    3.2079    2.1848 H   0  0  0  0  0  0  0  0  0  0  0  0
    2.7735    1.2225    1.7212 H   0  0  0  0  0  0  0  0  0  0  0  0
    4.4464    1.1085    0.0410 H   0  0  0  0  0  0  0  0  0  0  0  0
    5.1886    2.7698   -1.6020 H   0  0  0  0  0  0  0  0  0  0  0  0
    3.3281    0.5604   -4.7025 H   0  0  0  0  0  0  0  0  0  0  0  0
    2.5734   -1.1121   -3.0641 H   0  0  0  0  0  0  0  0  0  0  0  0
    3.1368   -4.1542    0.8020 H   0  0  0  0  0  0  0  0  0  0  0  0
    0.9276   -3.7351    2.2821 H   0  0  0  0  0  0  0  0  0  0  0  0
    0.1658   -2.1259    2.2222 H   0  0  0  0  0  0  0  0  0  0  0  0
    2.0661   -1.2295    3.5914 H   0  0  0  0  0  0  0  0  0  0  0  0
   -0.5294   -0.8182    0.0678 H   0  0  0  0  0  0  0  0  0  0  0  0
  1  2  2  0
  2  3  1  0
  3  4  1  0
  4  5  1  0
  5  6  1  0
  2  7  1  0
  7  8  2  0
  8  9  1  0
  9 10  2  0
 10 11  1  0
 11 12  2  0
 12 13  1  0
 13 14  1  0
 14 15  2  0
 15 16  1  0
 16 17  2  0
 17 18  1  0
 18 19  2  0
 19 20  1  0
 19 21  1  0
 21 22  2  0
 15 23  1  0
 23 24  2  0
 24 25  1  0
 25 26  1  0
 26 27  1  0
 27 28  1  0
 27 29  1  0
 13 30  2  0
 30 31  1  0
  6  4  1  0
 31  7  1  0
 31 10  1  0
 25 14  1  0
 22 16  1  0
  3 32  1  0
  4 33  1  0
  5 34  1  0
  5 35  1  0
  6 36  1  0
  6 37  1  0
  8 38  1  0
 11 39  1  0
 12 40  1  0
 17 41  1  0
 18 42  1  0
 21 43  1  0
 22 44  1  0
 24 45  1  0
 26 46  1  0
 26 47  1  0
 27 48  1  0
 30 49  1  0
M  END
$$$$
