@<TRIPOS>MOLECULE
*****
 49 53 0 0 0
SMALL
GASTEIGER

@<TRIPOS>ATOM
      1 O          -2.7639   -0.8172   -0.4722 O.2     1  UNL1       -0.2685
      2 C          -3.1118    0.3281   -0.0985 C.2     1  UNL1        0.2626
      3 N          -4.4897    0.6591   -0.3244 N.am    1  UNL1       -0.3072
      4 C          -5.4276   -0.2515   -0.9407 C.3     1  UNL1        0.0236
      5 C          -6.3531    0.2545   -2.0132 C.3     1  UNL1       -0.0328
      6 C          -6.8638   -0.2124   -0.6724 C.3     1  UNL1       -0.0328
      7 C          -2.2044    1.2811    0.5250 C.ar    1  UNL1        0.1282
      8 C          -2.5481    2.5459    0.9644 C.ar    1  UNL1        0.0589
      9 N          -1.4417    3.1176    1.4758 N.ar    1  UNL1       -0.2353
     10 C          -0.4167    2.2628    1.3744 C.ar    1  UNL1        0.1381
     11 C           0.9200    2.2890    1.7117 C.ar    1  UNL1       -0.0182
     12 C           1.7268    1.2089    1.4596 C.ar    1  UNL1       -0.0477
     13 C           1.2210    0.0769    0.8653 C.ar    1  UNL1        0.0173
     14 C           2.0240   -1.0922    0.5624 C.ar    1  UNL1        0.0780
     15 C           2.9802   -1.1571   -0.4214 C.ar    1  UNL1        0.0967
     16 C           3.4431   -0.1497   -1.3631 C.ar    1  UNL1        0.0026
     17 C           4.1756    0.9541   -1.0142 C.ar    1  UNL1       -0.0498
     18 C           4.6139    1.9111   -1.9072 C.ar    1  UNL1       -0.0258
     19 C           4.3017    1.7647   -3.2590 C.ar    1  UNL1        0.1234
     20 F           4.7069    2.6711   -4.1920 F       1  UNL1       -0.2055
     21 C           3.5658    0.6647   -3.6413 C.ar    1  UNL1       -0.0258
     22 C           3.1423   -0.2763   -2.7182 C.ar    1  UNL1       -0.0498
     23 N           3.5011   -2.4223   -0.3865 N.ar    1  UNL1       -0.2351
     24 C           2.8890   -3.1194    0.5868 C.ar    1  UNL1        0.0972
     25 N           2.0052   -2.2952    1.1422 N.ar    1  UNL1       -0.3241
     26 C           1.1355   -2.6409    2.2451 C.3     1  UNL1        0.0852
     27 C           1.8396   -2.3226    3.5673 C.3     1  UNL1        0.2569
     28 F           3.0114   -3.0641    3.6479 F       1  UNL1       -0.2073
     29 F           1.0307   -2.6868    4.6061 F       1  UNL1       -0.2073
     30 C          -0.1192    0.0694    0.5352 C.ar    1  UNL1        0.0211
     31 N          -0.8911    1.1331    0.7886 N.ar    1  UNL1       -0.2949
     32 H          -4.7760    1.6115   -0.0113 H       1  UNL1        0.1493
     33 H          -4.9730   -1.2320   -1.1940 H       1  UNL1        0.0498
     34 H          -6.2851    1.3104   -2.2599 H       1  UNL1        0.0284
     35 H          -6.5800   -0.4054   -2.9001 H       1  UNL1        0.0284
     36 H          -7.3395    0.5307   -0.0000 H       1  UNL1        0.0284
     37 H          -7.4539   -1.1634   -0.7023 H       1  UNL1        0.0284
     38 H          -3.5599    2.9701    0.8901 H       1  UNL1        0.0853
     39 H           1.2876    3.2079    2.1848 H       1  UNL1        0.0654
     40 H           2.7735    1.2225    1.7212 H       1  UNL1        0.0626
     41 H           4.4464    1.1085    0.0410 H       1  UNL1        0.0625
     42 H           5.1886    2.7698   -1.6020 H       1  UNL1        0.0646
     43 H           3.3281    0.5604   -4.7025 H       1  UNL1        0.0646
     44 H           2.5734   -1.1121   -3.0641 H       1  UNL1        0.0625
     45 H           3.1368   -4.1542    0.8020 H       1  UNL1        0.1029
     46 H           0.9276   -3.7351    2.2821 H       1  UNL1        0.0548
     47 H           0.1658   -2.1259    2.2222 H       1  UNL1        0.0548
     48 H           2.0661   -1.2295    3.5914 H       1  UNL1        0.1037
     49 H          -0.5294   -0.8182    0.0678 H       1  UNL1        0.0820
@<TRIPOS>BOND
     1     1     2    2
     2     2     3   am
     3     3     4    1
     4     4     5    1
     5     5     6    1
     6     2     7    1
     7     7     8   ar
     8     8     9   ar
     9     9    10   ar
    10    10    11   ar
    11    11    12   ar
    12    12    13   ar
    13    13    14    1
    14    14    15   ar
    15    15    16    1
    16    16    17   ar
    17    17    18   ar
    18    18    19   ar
    19    19    20    1
    20    19    21   ar
    21    21    22   ar
    22    15    23   ar
    23    23    24   ar
    24    24    25   ar
    25    25    26    1
    26    26    27    1
    27    27    28    1
    28    27    29    1
    29    13    30   ar
    30    30    31   ar
    31     6     4    1
    32    31     7   ar
    33    31    10   ar
    34    25    14   ar
    35    22    16   ar
    36     3    32    1
    37     4    33    1
    38     5    34    1
    39     5    35    1
    40     6    36    1
    41     6    37    1
    42     8    38    1
    43    11    39    1
    44    12    40    1
    45    17    41    1
    46    18    42    1
    47    21    43    1
    48    22    44    1
    49    24    45    1
    50    26    46    1
    51    26    47    1
    52    27    48    1
    53    30    49    1
