@<TRIPOS>MOLECULE
*****
 69 73 0 0 0
SMALL
GASTEIGER

@<TRIPOS>ATOM
      1 C           4.9329   -2.1328    2.9868 C.3     1  UNL1       -0.0634
      2 C           5.2383   -1.6335    1.5935 C.3     1  UNL1       -0.0317
      3 C           4.8452   -0.1792    1.4248 C.3     1  UNL1        0.0874
      4 C           3.4130    0.0571    1.6520 C.2     1  UNL1        0.2345
      5 O           2.8532   -0.4475    2.6899 O.2     1  UNL1       -0.2737
      6 N           2.5357    0.8059    0.8312 N.am    1  UNL1       -0.2825
      7 C           1.1712    0.9919    1.1163 C.ar    1  UNL1        0.0576
      8 C           0.7121    2.0635    1.8401 C.ar    1  UNL1       -0.0384
      9 C          -0.6327    2.2343    2.1203 C.ar    1  UNL1       -0.0593
     10 C          -1.5490    1.3150    1.6693 C.ar    1  UNL1       -0.0518
     11 C          -1.1121    0.2263    0.9380 C.ar    1  UNL1        0.0107
     12 C          -1.8306   -0.8120    0.3939 C.ar    1  UNL1        0.0284
     13 C          -3.2581   -1.0650    0.4206 C.ar    1  UNL1        0.1132
     14 N          -4.0527   -0.0945   -0.0389 N.ar    1  UNL1       -0.2113
     15 C          -5.3889   -0.2050   -0.0590 C.ar    1  UNL1        0.2202
     16 N          -6.1568    0.8639   -0.5621 N.pl3   1  UNL1       -0.2809
     17 C          -7.5496    0.8523   -0.6176 C.ar    1  UNL1        0.0744
     18 C          -8.4027   -0.1347   -0.2159 C.ar    1  UNL1        0.0467
     19 N          -9.6742    0.2968   -0.4618 N.ar    1  UNL1       -0.2724
     20 C         -10.9209   -0.3804   -0.2164 C.3     1  UNL1        0.0303
     21 N          -9.5996    1.4991   -0.9922 N.ar    1  UNL1       -0.1748
     22 C          -8.3329    1.9001   -1.1164 C.ar    1  UNL1        0.0811
     23 C          -7.8365    3.1963   -1.6715 C.3     1  UNL1       -0.0188
     24 N          -5.9151   -1.3440    0.4069 N.ar    1  UNL1       -0.2198
     25 C          -5.1797   -2.3570    0.8819 C.ar    1  UNL1        0.0685
     26 C          -3.8145   -2.2318    0.8965 C.ar    1  UNL1        0.1674
     27 F          -2.9835   -3.2083    1.3614 F       1  UNL1       -0.2016
     28 C          -0.8978   -1.6162   -0.2212 C.ar    1  UNL1        0.0121
     29 N           0.3431   -1.0773   -0.0519 N.ar    1  UNL1       -0.3586
     30 C           0.2509    0.0747    0.6674 C.ar    1  UNL1        0.0686
     31 N           5.3801    0.4122    0.2499 N.3     1  UNL1       -0.2891
     32 C           5.0626   -0.1564   -0.9945 C.3     1  UNL1        0.0124
     33 C           6.1782   -0.7929   -1.7406 C.3     1  UNL1        0.0114
     34 N           7.4885   -0.3516   -1.4728 N.3     1  UNL1       -0.3029
     35 C           8.2184    0.2558   -2.5337 C.3     1  UNL1       -0.0127
     36 C           7.7821    0.1725   -0.1889 C.3     1  UNL1        0.0114
     37 C           6.6745    0.9835    0.3881 C.3     1  UNL1        0.0124
     38 H           5.6069   -2.9541    3.3004 H       1  UNL1        0.0230
     39 H           4.9698   -1.2513    3.6648 H       1  UNL1        0.0230
     40 H           3.8814   -2.5235    3.0649 H       1  UNL1        0.0230
     41 H           4.6337   -2.2604    0.8930 H       1  UNL1        0.0282
     42 H           6.2868   -1.8179    1.3529 H       1  UNL1        0.0282
     43 H           5.3599    0.3432    2.2920 H       1  UNL1        0.0558
     44 H           2.9424    1.2349   -0.0250 H       1  UNL1        0.1549
     45 H           1.4370    2.7821    2.1919 H       1  UNL1        0.0637
     46 H          -0.9674    3.0779    2.6856 H       1  UNL1        0.0618
     47 H          -2.6259    1.4085    1.8675 H       1  UNL1        0.0624
     48 H          -5.6297    1.7159   -0.9140 H       1  UNL1        0.1551
     49 H          -8.2058   -1.0964    0.2200 H       1  UNL1        0.0845
     50 H         -11.5457   -0.3125   -1.1313 H       1  UNL1        0.0473
     51 H         -11.4486    0.1204    0.6272 H       1  UNL1        0.0473
     52 H         -10.7672   -1.4414    0.0627 H       1  UNL1        0.0473
     53 H          -8.1567    4.0373   -1.0197 H       1  UNL1        0.0294
     54 H          -6.7499    3.1737   -1.7892 H       1  UNL1        0.0294
     55 H          -8.3265    3.3065   -2.6771 H       1  UNL1        0.0294
     56 H          -5.6330   -3.2853    1.2619 H       1  UNL1        0.0861
     57 H          -1.0506   -2.5375   -0.7678 H       1  UNL1        0.0814
     58 H           1.2235   -1.4785   -0.4134 H       1  UNL1        0.1654
     59 H           4.2623   -0.9291   -0.8794 H       1  UNL1        0.0439
     60 H           4.5994    0.6253   -1.6401 H       1  UNL1        0.0439
     61 H           5.9977   -0.6416   -2.8491 H       1  UNL1        0.0439
     62 H           6.1774   -1.9179   -1.6438 H       1  UNL1        0.0439
     63 H           7.8650   -0.0891   -3.5221 H       1  UNL1        0.0391
     64 H           9.2991   -0.0507   -2.4047 H       1  UNL1        0.0391
     65 H           8.2064    1.3487   -2.4103 H       1  UNL1        0.0391
     66 H           8.1877   -0.5868    0.5216 H       1  UNL1        0.0439
     67 H           8.6506    0.8865   -0.3295 H       1  UNL1        0.0439
     68 H           6.8615    1.1364    1.4893 H       1  UNL1        0.0439
     69 H           6.6669    1.9956   -0.0523 H       1  UNL1        0.0439
@<TRIPOS>BOND
     1     1     2    1
     2     2     3    1
     3     3     4    1
     4     4     5    2
     5     4     6   am
     6     6     7    1
     7     7     8   ar
     8     8     9   ar
     9     9    10   ar
    10    10    11   ar
    11    11    12   ar
    12    12    13    1
    13    13    14   ar
    14    14    15   ar
    15    15    16    1
    16    16    17    1
    17    17    18   ar
    18    18    19   ar
    19    19    20    1
    20    19    21   ar
    21    21    22   ar
    22    22    23    1
    23    15    24   ar
    24    24    25   ar
    25    25    26   ar
    26    26    27    1
    27    12    28   ar
    28    28    29   ar
    29    29    30   ar
    30     3    31    1
    31    31    32    1
    32    32    33    1
    33    33    34    1
    34    34    35    1
    35    34    36    1
    36    36    37    1
    37    30     7   ar
    38    37    31    1
    39    30    11   ar
    40    26    13   ar
    41    22    17   ar
    42     1    38    1
    43     1    39    1
    44     1    40    1
    45     2    41    1
    46     2    42    1
    47     3    43    1
    48     6    44    1
    49     8    45    1
    50     9    46    1
    51    10    47    1
    52    16    48    1
    53    18    49    1
    54    20    50    1
    55    20    51    1
    56    20    52    1
    57    23    53    1
    58    23    54    1
    59    23    55    1
    60    25    56    1
    61    28    57    1
    62    29    58    1
    63    32    59    1
    64    32    60    1
    65    33    61    1
    66    33    62    1
    67    35    63    1
    68    35    64    1
    69    35    65    1
    70    36    66    1
    71    36    67    1
    72    37    68    1
    73    37    69    1
