
     RDKit          3D

 69 73  0  0  0  0  0  0  0  0999 V2000
    4.9329   -2.1328    2.9868 C   0  0  0  0  0  0  0  0  0  0  0  0
    5.2383   -1.6335    1.5935 C   0  0  0  0  0  0  0  0  0  0  0  0
    4.8452   -0.1792    1.4248 C   0  0  2  0  0  0  0  0  0  0  0  0
    3.4130    0.0571    1.6520 C   0  0  0  0  0  0  0  0  0  0  0  0
    2.8532   -0.4475    2.6899 O   0  0  0  0  0  0  0  0  0  0  0  0
    2.5357    0.8059    0.8312 N   0  0  0  0  0  0  0  0  0  0  0  0
    1.1712    0.9919    1.1163 C   0  0  0  0  0  0  0  0  0  0  0  0
    0.7121    2.0635    1.8401 C   0  0  0  0  0  0  0  0  0  0  0  0
   -0.6327    2.2343    2.1203 C   0  0  0  0  0  0  0  0  0  0  0  0
   -1.5490    1.3150    1.6693 C   0  0  0  0  0  0  0  0  0  0  0  0
   -1.1121    0.2263    0.9380 C   0  0  0  0  0  0  0  0  0  0  0  0
   -1.8306   -0.8120    0.3939 C   0  0  0  0  0  0  0  0  0  0  0  0
   -3.2581   -1.0650    0.4206 C   0  0  0  0  0  0  0  0  0  0  0  0
   -4.0527   -0.0945   -0.0389 N   0  0  0  0  0  0  0  0  0  0  0  0
   -5.3889   -0.2050   -0.0590 C   0  0  0  0  0  0  0  0  0  0  0  0
   -6.1568    0.8639   -0.5621 N   0  0  0  0  0  0  0  0  0  0  0  0
   -7.5496    0.8523   -0.6176 C   0  0  0  0  0  0  0  0  0  0  0  0
   -8.4027   -0.1347   -0.2159 C   0  0  0  0  0  0  0  0  0  0  0  0
   -9.6742    0.2968   -0.4618 N   0  0  0  0  0  0  0  0  0  0  0  0
  -10.9209   -0.3804   -0.2164 C   0  0  0  0  0  0  0  0  0  0  0  0
   -9.5996    1.4991   -0.9922 N   0  0  0  0  0  0  0  0  0  0  0  0
   -8.3329    1.9001   -1.1164 C   0  0  0  0  0  0  0  0  0  0  0  0
   -7.8365    3.1963   -1.6715 C   0  0  0  0  0  0  0  0  0  0  0  0
   -5.9151   -1.3440    0.4069 N   0  0  0  0  0  0  0  0  0  0  0  0
   -5.1797   -2.3570    0.8819 C   0  0  0  0  0  0  0  0  0  0  0  0
   -3.8145   -2.2318    0.8965 C   0  0  0  0  0  0  0  0  0  0  0  0
   -2.9835   -3.2083    1.3614 F   0  0  0  0  0  0  0  0  0  0  0  0
   -0.8978   -1.6162   -0.2212 C   0  0  0  0  0  0  0  0  0  0  0  0
    0.3431   -1.0773   -0.0519 N   0  0  0  0  0  0  0  0  0  0  0  0
    0.2509    0.0747    0.6674 C   0  0  0  0  0  0  0  0  0  0  0  0
    5.3801    0.4122    0.2499 N   0  0  0  0  0  0  0  0  0  0  0  0
    5.0626   -0.1564   -0.9945 C   0  0  0  0  0  0  0  0  0  0  0  0
    6.1782   -0.7929   -1.7406 C   0  0  0  0  0  0  0  0  0  0  0  0
    7.4885   -0.3516   -1.4728 N   0  0  0  0  0  0  0  0  0  0  0  0
    8.2184    0.2558   -2.5337 C   0  0  0  0  0  0  0  0  0  0  0  0
    7.7821    0.1725   -0.1889 C   0  0  0  0  0  0  0  0  0  0  0  0
    6.6745    0.9835    0.3881 C   0  0  0  0  0  0  0  0  0  0  0  0
    5.6069   -2.9541    3.3004 H   0  0  0  0  0  0  0  0  0  0  0  0
    4.9698   -1.2513    3.6648 H   0  0  0  0  0  0  0  0  0  0  0  0
    3.8814   -2.5235    3.0649 H   0  0  0  0  0  0  0  0  0  0  0  0
    4.6337   -2.2604    0.8930 H   0  0  0  0  0  0  0  0  0  0  0  0
    6.2868   -1.8179    1.3529 H   0  0  0  0  0  0  0  0  0  0  0  0
    5.3599    0.3432    2.2920 H   0  0  0  0  0  0  0  0  0  0  0  0
    2.9424    1.2349   -0.0250 H   0  0  0  0  0  0  0  0  0  0  0  0
    1.4370    2.7821    2.1919 H   0  0  0  0  0  0  0  0  0  0  0  0
   -0.9674    3.0779    2.6856 H   0  0  0  0  0  0  0  0  0  0  0  0
   -2.6259    1.4085    1.8675 H   0  0  0  0  0  0  0  0  0  0  0  0
   -5.6297    1.7159   -0.9140 H   0  0  0  0  0  0  0  0  0  0  0  0
   -8.2058   -1.0964    0.2200 H   0  0  0  0  0  0  0  0  0  0  0  0
  -11.5457   -0.3125   -1.1313 H   0  0  0  0  0  0  0  0  0  0  0  0
  -11.4486    0.1204    0.6272 H   0  0  0  0  0  0  0  0  0  0  0  0
  -10.7672   -1.4414    0.0627 H   0  0  0  0  0  0  0  0  0  0  0  0
   -8.1567    4.0373   -1.0197 H   0  0  0  0  0  0  0  0  0  0  0  0
   -6.7499    3.1737   -1.7892 H   0  0  0  0  0  0  0  0  0  0  0  0
   -8.3265    3.3065   -2.6771 H   0  0  0  0  0  0  0  0  0  0  0  0
   -5.6330   -3.2853    1.2619 H   0  0  0  0  0  0  0  0  0  0  0  0
   -1.0506   -2.5375   -0.7678 H   0  0  0  0  0  0  0  0  0  0  0  0
    1.2235   -1.4785   -0.4134 H   0  0  0  0  0  0  0  0  0  0  0  0
    4.2623   -0.9291   -0.8794 H   0  0  0  0  0  0  0  0  0  0  0  0
    4.5994    0.6253   -1.6401 H   0  0  0  0  0  0  0  0  0  0  0  0
    5.9977   -0.6416   -2.8491 H   0  0  0  0  0  0  0  0  0  0  0  0
    6.1774   -1.9179   -1.6438 H   0  0  0  0  0  0  0  0  0  0  0  0
    7.8650   -0.0891   -3.5221 H   0  0  0  0  0  0  0  0  0  0  0  0
    9.2991   -0.0507   -2.4047 H   0  0  0  0  0  0  0  0  0  0  0  0
    8.2064    1.3487   -2.4103 H   0  0  0  0  0  0  0  0  0  0  0  0
    8.1877   -0.5868    0.5216 H   0  0  0  0  0  0  0  0  0  0  0  0
    8.6506    0.8865   -0.3295 H   0  0  0  0  0  0  0  0  0  0  0  0
    6.8615    1.1364    1.4893 H   0  0  0  0  0  0  0  0  0  0  0  0
    6.6669    1.9956   -0.0523 H   0  0  0  0  0  0  0  0  0  0  0  0
  1  2  1  0
  2  3  1  0
  3  4  1  0
  4  5  2  0
  4  6  1  0
  6  7  1  0
  7  8  2  0
  8  9  1  0
  9 10  2  0
 10 11  1  0
 11 12  1  0
 12 13  1  0
 13 14  2  0
 14 15  1  0
 15 16  1  0
 16 17  1  0
 17 18  2  0
 18 19  1  0
 19 20  1  0
 19 21  1  0
 21 22  2  0
 22 23  1  0
 15 24  2  0
 24 25  1  0
 25 26  2  0
 26 27  1  0
 12 28  2  0
 28 29  1  0
 29 30  1  0
  3 31  1  0
 31 32  1  0
 32 33  1  0
 33 34  1  0
 34 35  1  0
 34 36  1  0
 36 37  1  0
 30  7  1  0
 37 31  1  0
 30 11  2  0
 26 13  1  0
 22 17  1  0
  1 38  1  0
  1 39  1  0
  1 40  1  0
  2 41  1  0
  2 42  1  0
  3 43  1  1
  6 44  1  0
  8 45  1  0
  9 46  1  0
 10 47  1  0
 16 48  1  0
 18 49  1  0
 20 50  1  0
 20 51  1  0
 20 52  1  0
 23 53  1  0
 23 54  1  0
 23 55  1  0
 25 56  1  0
 28 57  1  0
 29 58  1  0
 32 59  1  0
 32 60  1  0
 33 61  1  0
 33 62  1  0
 35 63  1  0
 35 64  1  0
 35 65  1  0
 36 66  1  0
 36 67  1  0
 37 68  1  0
 37 69  1  0
M  END
$$$$
