@<TRIPOS>MOLECULE
*****
 66 69 0 0 0
SMALL
GASTEIGER

@<TRIPOS>ATOM
      1 C          -9.9564    1.9917   -1.4907 C.3     1  UNL1        0.0789
      2 O          -9.6946    1.7989   -0.1012 O.3     1  UNL1       -0.4933
      3 C          -9.3323    0.5030    0.2914 C.ar    1  UNL1        0.1450
      4 C         -10.2970   -0.4183    0.6681 C.ar    1  UNL1        0.0603
      5 BR        -12.1170    0.1579    0.6266 Br      1  UNL1       -0.0465
      6 C          -9.9290   -1.6939    1.0530 C.ar    1  UNL1       -0.0407
      7 C          -8.5990   -2.0814    1.0723 C.ar    1  UNL1       -0.0174
      8 C          -7.6154   -1.1655    0.6959 C.ar    1  UNL1        0.1397
      9 O          -6.3086   -1.2400    0.6150 O.2     1  UNL1       -0.4498
     10 C          -5.7932   -0.1021    0.2041 C.ar    1  UNL1        0.1938
     11 C          -4.3900    0.2193   -0.0137 C.2     1  UNL1        0.2839
     12 O          -4.0221    1.3449   -0.4171 O.2     1  UNL1       -0.2665
     13 N          -3.3465   -0.7354    0.2214 N.am    1  UNL1       -0.2790
     14 C          -1.9759   -0.4568    0.0208 C.ar    1  UNL1        0.0338
     15 C          -1.3420   -0.6717   -1.1797 C.ar    1  UNL1       -0.0399
     16 C           0.0200   -0.3824   -1.3359 C.ar    1  UNL1       -0.0523
     17 C           0.7531    0.1222   -0.2946 C.ar    1  UNL1       -0.0178
     18 C           2.1678    0.4311   -0.4294 C.ar    1  UNL1       -0.0178
     19 C           2.7081    1.4597    0.3078 C.ar    1  UNL1       -0.0522
     20 C           4.0388    1.8269    0.2475 C.ar    1  UNL1       -0.0348
     21 C           4.8519    1.1022   -0.6112 C.ar    1  UNL1        0.1053
     22 S           6.5336    1.5889   -0.6712 S.O2    1  UNL1        0.0591
     23 O           6.6422    3.0712   -0.3393 O.2     1  UNL1       -0.1530
     24 O           7.1005    1.4136   -2.0384 O.2     1  UNL1       -0.1530
     25 N           7.4462    0.7610    0.5361 N.3     1  UNL1       -0.1759
     26 C           7.4440   -0.6625    0.3632 C.3     1  UNL1        0.1276
     27 C           6.8339   -1.3457    1.5286 C.2     1  UNL1        0.3238
     28 O           6.7588   -2.5929    1.5253 O.2     1  UNL1       -0.2492
     29 O           6.3555   -0.6368    2.5995 O.3     1  UNL1       -0.4795
     30 C           8.8600   -1.1462    0.1428 C.3     1  UNL1       -0.0194
     31 C           9.4266   -0.4921   -1.0883 C.3     1  UNL1       -0.0607
     32 C           8.8415   -2.6440   -0.0908 C.3     1  UNL1       -0.0607
     33 C           4.3285    0.0689   -1.3573 C.ar    1  UNL1       -0.0348
     34 C           2.9844   -0.2728   -1.2711 C.ar    1  UNL1       -0.0522
     35 C           0.1290    0.3409    0.9104 C.ar    1  UNL1       -0.0523
     36 C          -1.2172    0.0493    1.0470 C.ar    1  UNL1       -0.0399
     37 C          -6.8429    0.7707    0.0052 C.ar    1  UNL1        0.0112
     38 C          -6.8314    2.1849   -0.4512 C.3     1  UNL1       -0.0353
     39 C          -8.0199    0.0960    0.3186 C.ar    1  UNL1        0.0665
     40 H          -9.2552    2.7082   -1.9541 H       1  UNL1        0.0660
     41 H         -10.9738    2.4106   -1.6388 H       1  UNL1        0.0660
     42 H          -9.9220    1.0473   -2.0601 H       1  UNL1        0.0660
     43 H         -10.7103   -2.4031    1.3463 H       1  UNL1        0.0631
     44 H          -8.3124   -3.0721    1.3713 H       1  UNL1        0.0655
     45 H          -3.6516   -1.6754    0.5578 H       1  UNL1        0.1552
     46 H          -1.9281   -1.0699   -1.9958 H       1  UNL1        0.0636
     47 H           0.4785   -0.5709   -2.3109 H       1  UNL1        0.0624
     48 H           2.0772    2.0473    0.9956 H       1  UNL1        0.0624
     49 H           4.4005    2.6430    0.8513 H       1  UNL1        0.0637
     50 H           7.0441    0.9853    1.4611 H       1  UNL1        0.1489
     51 H           6.8405   -0.8856   -0.5410 H       1  UNL1        0.0595
     52 H           6.3733   -1.0249    3.5525 H       1  UNL1        0.2951
     53 H           9.5005   -0.9165    1.0055 H       1  UNL1        0.0316
     54 H          10.4518   -0.8600   -1.3248 H       1  UNL1        0.0233
     55 H           9.4880    0.5950   -0.9535 H       1  UNL1        0.0233
     56 H           8.8085   -0.7360   -1.9675 H       1  UNL1        0.0233
     57 H           9.0110   -3.1602    0.8758 H       1  UNL1        0.0233
     58 H           9.6283   -2.9060   -0.8285 H       1  UNL1        0.0233
     59 H           7.8428   -2.8850   -0.5256 H       1  UNL1        0.0233
     60 H           5.0094   -0.4621   -2.0133 H       1  UNL1        0.0637
     61 H           2.6105   -1.1069   -1.8872 H       1  UNL1        0.0624
     62 H           0.7056    0.7463    1.7575 H       1  UNL1        0.0624
     63 H          -1.7046    0.2222    1.9946 H       1  UNL1        0.0636
     64 H          -6.9087    2.2960   -1.5359 H       1  UNL1        0.0279
     65 H          -7.6242    2.7956    0.0330 H       1  UNL1        0.0279
     66 H          -5.8736    2.6754   -0.1449 H       1  UNL1        0.0279
@<TRIPOS>BOND
     1     1     2    1
     2     2     3    1
     3     3     4   ar
     4     4     5    1
     5     4     6   ar
     6     6     7   ar
     7     7     8   ar
     8     8     9   ar
     9     9    10   ar
    10    10    11    1
    11    11    12    2
    12    11    13   am
    13    13    14    1
    14    14    15   ar
    15    15    16   ar
    16    16    17   ar
    17    17    18    1
    18    18    19   ar
    19    19    20   ar
    20    20    21   ar
    21    21    22    1
    22    22    23    2
    23    22    24    2
    24    22    25    1
    25    25    26    1
    26    26    27    1
    27    27    28    2
    28    27    29    1
    29    26    30    1
    30    30    31    1
    31    30    32    1
    32    21    33   ar
    33    33    34   ar
    34    17    35   ar
    35    35    36   ar
    36    10    37   ar
    37    37    38    1
    38    37    39   ar
    39    39     3   ar
    40    39     8   ar
    41    36    14   ar
    42    34    18   ar
    43     1    40    1
    44     1    41    1
    45     1    42    1
    46     6    43    1
    47     7    44    1
    48    13    45    1
    49    15    46    1
    50    16    47    1
    51    19    48    1
    52    20    49    1
    53    25    50    1
    54    26    51    1
    55    29    52    1
    56    30    53    1
    57    31    54    1
    58    31    55    1
    59    31    56    1
    60    32    57    1
    61    32    58    1
    62    32    59    1
    63    33    60    1
    64    34    61    1
    65    35    62    1
    66    36    63    1
    67    38    64    1
    68    38    65    1
    69    38    66    1
