
     RDKit          3D

 42 45  0  0  0  0  0  0  0  0999 V2000
    4.1026   -1.5925   -0.7386 O   0  0  0  0  0  0  0  0  0  0  0  0
    4.5046   -0.9160    0.2351 C   0  0  0  0  0  0  0  0  0  0  0  0
    3.5505   -0.4034    1.0995 O   0  0  0  0  0  0  0  0  0  0  0  0
    2.1743   -0.6295    0.8976 C   0  0  0  0  0  0  0  0  0  0  0  0
    1.7728   -0.0777   -0.4224 C   0  0  0  0  0  0  0  0  0  0  0  0
    1.4313    0.3571   -1.4827 C   0  0  0  0  0  0  0  0  0  0  0  0
    1.0334    0.8951   -2.8026 C   0  0  0  0  0  0  0  0  0  0  0  0
    0.4553    2.5969   -2.5846 S   0  0  0  0  0  0  0  0  0  0  0  0
   -1.0548    2.6253   -1.6417 C   0  0  0  0  0  0  0  0  0  0  0  0
   -1.7211    3.7556   -1.3135 N   0  0  0  0  0  0  0  0  0  0  0  0
   -2.7558    3.3632   -0.6359 N   0  0  0  0  0  0  0  0  0  0  0  0
   -2.7722    2.0105   -0.5200 C   0  0  0  0  0  0  0  0  0  0  0  0
   -3.8318    1.3284    0.1952 C   0  0  0  0  0  0  0  0  0  0  0  0
   -4.8421    2.0586    0.7747 C   0  0  0  0  0  0  0  0  0  0  0  0
   -5.8770    1.4702    1.4638 C   0  0  0  0  0  0  0  0  0  0  0  0
   -5.8818    0.1094    1.5640 C   0  0  0  0  0  0  0  0  0  0  0  0
   -4.8948   -0.6643    1.0023 C   0  0  0  0  0  0  0  0  0  0  0  0
   -4.9380   -2.0440    1.1281 C   0  0  0  0  0  0  0  0  0  0  0  0
   -3.9645   -2.8623    0.5782 C   0  0  0  0  0  0  0  0  0  0  0  0
   -2.9440   -2.2544   -0.1032 C   0  0  0  0  0  0  0  0  0  0  0  0
   -2.8949   -0.8738   -0.2328 C   0  0  0  0  0  0  0  0  0  0  0  0
   -3.8577   -0.0407    0.3094 C   0  0  0  0  0  0  0  0  0  0  0  0
   -1.7109    1.6162   -1.1526 O   0  0  0  0  0  0  0  0  0  0  0  0
    5.9048   -0.7166    0.3928 C   0  0  0  0  0  0  0  0  0  0  0  0
    7.0456   -1.0579   -0.2422 C   0  0  0  0  0  0  0  0  0  0  0  0
    8.2464   -0.6931    0.1812 C   0  0  0  0  0  0  0  0  0  0  0  0
    8.3992    0.0523    1.2890 C   0  0  0  0  0  0  0  0  0  0  0  0
    6.6437    0.2719    1.8055 S   0  0  0  0  0  0  0  0  0  0  0  0
    1.6258   -0.0259    1.6602 H   0  0  0  0  0  0  0  0  0  0  0  0
    1.9031   -1.6972    0.8948 H   0  0  0  0  0  0  0  0  0  0  0  0
    1.8357    0.8507   -3.5367 H   0  0  0  0  0  0  0  0  0  0  0  0
    0.2035    0.2302   -3.1516 H   0  0  0  0  0  0  0  0  0  0  0  0
   -4.8652    3.1407    0.7123 H   0  0  0  0  0  0  0  0  0  0  0  0
   -6.6715    2.0801    1.9170 H   0  0  0  0  0  0  0  0  0  0  0  0
   -6.6941   -0.3779    2.1067 H   0  0  0  0  0  0  0  0  0  0  0  0
   -5.7596   -2.4980    1.6735 H   0  0  0  0  0  0  0  0  0  0  0  0
   -4.0143   -3.9346    0.6863 H   0  0  0  0  0  0  0  0  0  0  0  0
   -2.1730   -2.8538   -0.5423 H   0  0  0  0  0  0  0  0  0  0  0  0
   -2.0820   -0.4150   -0.7739 H   0  0  0  0  0  0  0  0  0  0  0  0
    6.9427   -1.6897   -1.1829 H   0  0  0  0  0  0  0  0  0  0  0  0
    9.2007   -0.9906   -0.3693 H   0  0  0  0  0  0  0  0  0  0  0  0
    9.2249    0.4965    1.8716 H   0  0  0  0  0  0  0  0  0  0  0  0
  1  2  2  0
  2  3  1  0
  3  4  1  0
  4  5  1  0
  5  6  3  0
  6  7  1  0
  7  8  1  0
  8  9  1  0
  9 10  2  0
 10 11  1  0
 11 12  2  0
 12 13  1  0
 13 14  2  0
 14 15  1  0
 15 16  2  0
 16 17  1  0
 17 18  2  0
 18 19  1  0
 19 20  2  0
 20 21  1  0
 21 22  2  0
 12 23  1  0
  2 24  1  0
 24 25  2  0
 25 26  1  0
 26 27  2  0
 27 28  1  0
 23  9  1  0
 28 24  1  0
 22 13  1  0
 22 17  1  0
  4 29  1  0
  4 30  1  0
  7 31  1  0
  7 32  1  0
 14 33  1  0
 15 34  1  0
 16 35  1  0
 18 36  1  0
 19 37  1  0
 20 38  1  0
 21 39  1  0
 25 40  1  0
 26 41  1  0
 27 42  1  0
M  END
$$$$
