@<TRIPOS>MOLECULE
*****
 42 45 0 0 0
SMALL
GASTEIGER

@<TRIPOS>ATOM
      1 O           4.1026   -1.5925   -0.7386 O.2     1  UNL1       -0.2443
      2 C           4.5046   -0.9160    0.2351 C.2     1  UNL1        0.3468
      3 O           3.5505   -0.4034    1.0995 O.3     1  UNL1       -0.4479
      4 C           2.1743   -0.6295    0.8976 C.3     1  UNL1        0.1532
      5 C           1.7728   -0.0777   -0.4224 C.1     1  UNL1       -0.0605
      6 C           1.4313    0.3571   -1.4827 C.1     1  UNL1       -0.0877
      7 C           1.0334    0.8951   -2.8026 C.3     1  UNL1        0.0642
      8 S           0.4553    2.5969   -2.5846 S.3     1  UNL1       -0.0528
      9 C          -1.0548    2.6253   -1.6417 C.ar    1  UNL1        0.2785
     10 N          -1.7211    3.7556   -1.3135 N.ar    1  UNL1       -0.1006
     11 N          -2.7558    3.3632   -0.6359 N.ar    1  UNL1       -0.1065
     12 C          -2.7722    2.0105   -0.5200 C.ar    1  UNL1        0.2498
     13 C          -3.8318    1.3284    0.1952 C.ar    1  UNL1        0.0462
     14 C          -4.8421    2.0586    0.7747 C.ar    1  UNL1       -0.0488
     15 C          -5.8770    1.4702    1.4638 C.ar    1  UNL1       -0.0604
     16 C          -5.8818    0.1094    1.5640 C.ar    1  UNL1       -0.0540
     17 C          -4.8948   -0.6643    1.0023 C.ar    1  UNL1       -0.0172
     18 C          -4.9380   -2.0440    1.1281 C.ar    1  UNL1       -0.0540
     19 C          -3.9645   -2.8623    0.5782 C.ar    1  UNL1       -0.0612
     20 C          -2.9440   -2.2544   -0.1032 C.ar    1  UNL1       -0.0611
     21 C          -2.8949   -0.8738   -0.2328 C.ar    1  UNL1       -0.0533
     22 C          -3.8577   -0.0407    0.3094 C.ar    1  UNL1       -0.0056
     23 O          -1.7109    1.6162   -1.1526 O.2     1  UNL1       -0.4110
     24 C           5.9048   -0.7166    0.3928 C.ar    1  UNL1        0.0962
     25 C           7.0456   -1.0579   -0.2422 C.ar    1  UNL1       -0.0406
     26 C           8.2464   -0.6931    0.1812 C.ar    1  UNL1       -0.0539
     27 C           8.3992    0.0523    1.2890 C.ar    1  UNL1       -0.0235
     28 S           6.6437    0.2719    1.8055 S.2     1  UNL1       -0.0903
     29 H           1.6258   -0.0259    1.6602 H       1  UNL1        0.0838
     30 H           1.9031   -1.6972    0.8948 H       1  UNL1        0.0838
     31 H           1.8357    0.8507   -3.5367 H       1  UNL1        0.0515
     32 H           0.2035    0.2302   -3.1516 H       1  UNL1        0.0515
     33 H          -4.8652    3.1407    0.7123 H       1  UNL1        0.0625
     34 H          -6.6715    2.0801    1.9170 H       1  UNL1        0.0618
     35 H          -6.6941   -0.3779    2.1067 H       1  UNL1        0.0624
     36 H          -5.7596   -2.4980    1.6735 H       1  UNL1        0.0624
     37 H          -4.0143   -3.9346    0.6863 H       1  UNL1        0.0618
     38 H          -2.1730   -2.8538   -0.5423 H       1  UNL1        0.0618
     39 H          -2.0820   -0.4150   -0.7739 H       1  UNL1        0.0624
     40 H           6.9427   -1.6897   -1.1829 H       1  UNL1        0.0631
     41 H           9.2007   -0.9906   -0.3693 H       1  UNL1        0.0623
     42 H           9.2249    0.4965    1.8716 H       1  UNL1        0.0693
@<TRIPOS>BOND
     1     1     2    2
     2     2     3    1
     3     3     4    1
     4     4     5    1
     5     5     6    3
     6     6     7    1
     7     7     8    1
     8     8     9    1
     9     9    10   ar
    10    10    11   ar
    11    11    12   ar
    12    12    13    1
    13    13    14   ar
    14    14    15   ar
    15    15    16   ar
    16    16    17   ar
    17    17    18   ar
    18    18    19   ar
    19    19    20   ar
    20    20    21   ar
    21    21    22   ar
    22    12    23   ar
    23     2    24    1
    24    24    25   ar
    25    25    26   ar
    26    26    27   ar
    27    27    28   ar
    28    23     9   ar
    29    28    24   ar
    30    22    13   ar
    31    22    17   ar
    32     4    29    1
    33     4    30    1
    34     7    31    1
    35     7    32    1
    36    14    33    1
    37    15    34    1
    38    16    35    1
    39    18    36    1
    40    19    37    1
    41    20    38    1
    42    21    39    1
    43    25    40    1
    44    26    41    1
    45    27    42    1
