@<TRIPOS>MOLECULE
*****
 47 50 0 0 0
SMALL
GASTEIGER

@<TRIPOS>ATOM
      1 C          -2.0248   -4.3286   -0.0719 C.3     1  UNL1       -0.0011
      2 N          -1.0748   -3.5563   -0.8713 N.pl3   1  UNL1       -0.3320
      3 C          -0.5852   -2.2767   -0.4105 C.ar    1  UNL1        0.1254
      4 N          -1.1313   -1.0568   -0.6638 N.ar    1  UNL1       -0.1994
      5 C          -0.6173    0.1040   -0.1933 C.ar    1  UNL1        0.2229
      6 N          -1.5628    1.0123   -0.7692 N.pl3   1  UNL1       -0.2835
      7 C          -2.9080    1.1119   -0.3485 C.ar    1  UNL1        0.0336
      8 C          -3.4321    0.7993    0.8749 C.ar    1  UNL1       -0.0402
      9 C          -4.7945    0.8860    1.0702 C.ar    1  UNL1       -0.0559
     10 C          -5.5966    1.2911    0.0049 C.ar    1  UNL1       -0.0335
     11 C          -7.0714    1.3932    0.1970 C.3     1  UNL1        0.0598
     12 C          -7.4515    2.7841    0.4428 C.1     1  UNL1        0.0672
     13 N          -7.7679    3.8891    0.6413 N.1     1  UNL1       -0.1962
     14 C          -5.0763    1.6069   -1.2262 C.ar    1  UNL1       -0.0559
     15 C          -3.7076    1.5214   -1.4229 C.ar    1  UNL1       -0.0402
     16 N           0.4916    0.0523    0.5640 N.ar    1  UNL1       -0.1990
     17 C           1.0867   -1.1298    0.8525 C.ar    1  UNL1        0.1309
     18 N           2.2309   -0.8956    1.6541 N.pl3   1  UNL1       -0.2828
     19 C           3.3391   -0.4363    0.8589 C.ar    1  UNL1        0.1459
     20 N           3.3617   -0.2261   -0.4682 N.ar    1  UNL1       -0.1584
     21 N           4.5710    0.2206   -0.8248 N.ar    1  UNL1       -0.2795
     22 C           5.2890    0.2850    0.2889 C.ar    1  UNL1        0.0410
     23 C           4.5598   -0.1194    1.3864 C.ar    1  UNL1        0.0011
     24 C           6.6920    0.7719    0.2803 C.3     1  UNL1        0.0009
     25 C           7.4125    1.1423   -0.9358 C.3     1  UNL1       -0.0442
     26 C           6.7562    2.2498   -0.1506 C.3     1  UNL1       -0.0442
     27 C           0.5513   -2.3030    0.3666 C.ar    1  UNL1        0.0184
     28 H          -1.6454   -4.3119    0.9861 H       1  UNL1        0.0426
     29 H          -2.1099   -5.3534   -0.4319 H       1  UNL1        0.0426
     30 H          -3.0062   -3.8229   -0.0897 H       1  UNL1        0.0426
     31 H          -0.6631   -3.7758   -1.7838 H       1  UNL1        0.1471
     32 H          -1.0791    1.5404   -1.4995 H       1  UNL1        0.1550
     33 H          -2.7456    0.4962    1.6429 H       1  UNL1        0.0636
     34 H          -5.2548    0.6519    2.0181 H       1  UNL1        0.0621
     35 H          -7.6194    1.0370   -0.6858 H       1  UNL1        0.0467
     36 H          -7.3900    0.7827    1.0844 H       1  UNL1        0.0467
     37 H          -5.7565    1.9178   -2.0273 H       1  UNL1        0.0621
     38 H          -3.3433    1.7817   -2.4184 H       1  UNL1        0.0636
     39 H           2.3071   -1.0271    2.6832 H       1  UNL1        0.1550
     40 H           4.7481    0.4242   -1.8120 H       1  UNL1        0.1886
     41 H           4.8842   -0.1675    2.4119 H       1  UNL1        0.0670
     42 H           7.2427    0.5091    1.1990 H       1  UNL1        0.0364
     43 H           6.9984    0.9184   -1.9250 H       1  UNL1        0.0272
     44 H           8.5212    1.1859   -0.8926 H       1  UNL1        0.0272
     45 H           5.8855    2.7192   -0.6033 H       1  UNL1        0.0272
     46 H           7.3693    2.8587    0.5417 H       1  UNL1        0.0272
     47 H           1.1170   -3.1568    0.6658 H       1  UNL1        0.0686
@<TRIPOS>BOND
     1     1     2    1
     2     2     3    1
     3     3     4   ar
     4     4     5   ar
     5     5     6    1
     6     6     7    1
     7     7     8   ar
     8     8     9   ar
     9     9    10   ar
    10    10    11    1
    11    11    12    1
    12    12    13    3
    13    10    14   ar
    14    14    15   ar
    15     5    16   ar
    16    16    17   ar
    17    17    18    1
    18    18    19    1
    19    19    20   ar
    20    20    21   ar
    21    21    22   ar
    22    22    23   ar
    23    22    24    1
    24    24    25    1
    25    25    26    1
    26    17    27   ar
    27    27     3   ar
    28    15     7   ar
    29    23    19   ar
    30    26    24    1
    31     1    28    1
    32     1    29    1
    33     1    30    1
    34     2    31    1
    35     6    32    1
    36     8    33    1
    37     9    34    1
    38    11    35    1
    39    11    36    1
    40    14    37    1
    41    15    38    1
    42    18    39    1
    43    21    40    1
    44    23    41    1
    45    24    42    1
    46    25    43    1
    47    25    44    1
    48    26    45    1
    49    26    46    1
    50    27    47    1
