@<TRIPOS>MOLECULE
*****
 59 62 0 0 0
SMALL
GASTEIGER

@<TRIPOS>ATOM
      1 C           3.9467    3.4555    0.6382 C.3     1  UNL1        0.0790
      2 O           4.7455    2.3324    0.3139 O.3     1  UNL1       -0.4913
      3 C           4.1796    1.0638    0.1425 C.ar    1  UNL1        0.1655
      4 C           2.8130    0.8749    0.2878 C.ar    1  UNL1       -0.0108
      5 C           2.2345   -0.3669    0.1232 C.ar    1  UNL1       -0.0145
      6 C           0.7362   -0.5339    0.2839 C.3     1  UNL1        0.0942
      7 C           0.3786   -0.6172    1.7460 C.3     1  UNL1       -0.0368
      8 N           0.1329    0.5604   -0.3922 N.2     1  UNL1       -0.1778
      9 N          -0.9943    0.7591   -0.8316 N.2     1  UNL1       -0.1321
     10 C          -2.0471   -0.1768   -0.7421 C.ar    1  UNL1        0.1966
     11 N          -1.8986   -1.4053   -0.2299 N.ar    1  UNL1       -0.2233
     12 C          -2.8866   -2.3065   -0.1544 C.ar    1  UNL1        0.0916
     13 C          -2.6884   -3.5691    0.3837 C.ar    1  UNL1       -0.0342
     14 C          -3.7337   -4.4585    0.4377 C.ar    1  UNL1       -0.0596
     15 C          -5.0016   -4.1317   -0.0351 C.ar    1  UNL1       -0.0596
     16 C          -5.1585   -2.8690   -0.5620 C.ar    1  UNL1       -0.0342
     17 C          -4.1364   -1.9330   -0.6404 C.ar    1  UNL1        0.0896
     18 N          -4.3338   -0.7160   -1.1613 N.ar    1  UNL1       -0.2460
     19 C          -3.3150    0.1520   -1.2150 C.ar    1  UNL1        0.0920
     20 C          -3.5642    1.5044   -1.7800 C.3     1  UNL1        0.0185
     21 C          -3.7303    2.4854   -0.6748 C.ar    1  UNL1       -0.0415
     22 C          -4.9484    2.5280    0.0097 C.ar    1  UNL1       -0.0582
     23 C          -5.1241    3.4333    1.0251 C.ar    1  UNL1       -0.0615
     24 C          -4.1458    4.3179    1.4117 C.ar    1  UNL1       -0.0617
     25 C          -2.9544    4.2702    0.7353 C.ar    1  UNL1       -0.0615
     26 C          -2.7418    3.3593   -0.3056 C.ar    1  UNL1       -0.0582
     27 C           3.0547   -1.4249   -0.1917 C.ar    1  UNL1       -0.0108
     28 C           4.4260   -1.2731   -0.3449 C.ar    1  UNL1        0.1655
     29 O           5.2369   -2.3635   -0.6645 O.3     1  UNL1       -0.4913
     30 C           4.6394   -3.6270   -0.8283 C.3     1  UNL1        0.0790
     31 C           4.9787   -0.0118   -0.1732 C.ar    1  UNL1        0.2035
     32 O           6.3452    0.1502   -0.3243 O.3     1  UNL1       -0.4885
     33 C           7.2046    0.0030    0.7899 C.3     1  UNL1        0.0791
     34 H           4.5390    4.3805    0.4929 H       1  UNL1        0.0660
     35 H           3.0753    3.4958   -0.0627 H       1  UNL1        0.0660
     36 H           3.6043    3.3747    1.6848 H       1  UNL1        0.0660
     37 H           2.2336    1.7356    0.5320 H       1  UNL1        0.0659
     38 H           0.4254   -1.4866   -0.1941 H       1  UNL1        0.0610
     39 H           1.2455   -0.3684    2.4133 H       1  UNL1        0.0254
     40 H           0.0195   -1.6285    2.0335 H       1  UNL1        0.0254
     41 H          -0.4118    0.1193    2.0366 H       1  UNL1        0.0254
     42 H          -1.7275   -3.8329    0.7495 H       1  UNL1        0.0639
     43 H          -3.6392   -5.4600    0.8475 H       1  UNL1        0.0618
     44 H          -5.8386   -4.8397    0.0060 H       1  UNL1        0.0618
     45 H          -6.1227   -2.5546   -0.9463 H       1  UNL1        0.0639
     46 H          -2.7150    1.7971   -2.4055 H       1  UNL1        0.0378
     47 H          -4.4838    1.5320   -2.3879 H       1  UNL1        0.0378
     48 H          -5.7102    1.8297   -0.3003 H       1  UNL1        0.0620
     49 H          -6.0681    3.4604    1.5489 H       1  UNL1        0.0618
     50 H          -4.3430    5.0211    2.2339 H       1  UNL1        0.0618
     51 H          -2.1500    4.9519    1.0071 H       1  UNL1        0.0618
     52 H          -1.8053    3.3635   -0.8112 H       1  UNL1        0.0620
     53 H           2.5688   -2.3921   -0.3157 H       1  UNL1        0.0659
     54 H           4.0086   -3.6173   -1.7466 H       1  UNL1        0.0660
     55 H           3.9611   -3.8667    0.0405 H       1  UNL1        0.0660
     56 H           5.4169   -4.4065   -0.8547 H       1  UNL1        0.0660
     57 H           6.6241   -0.2019    1.7267 H       1  UNL1        0.0660
     58 H           7.7292    0.9679    0.9867 H       1  UNL1        0.0660
     59 H           7.9146   -0.8398    0.6709 H       1  UNL1        0.0660
@<TRIPOS>BOND
     1     1     2    1
     2     2     3    1
     3     3     4   ar
     4     4     5   ar
     5     5     6    1
     6     6     7    1
     7     6     8    1
     8     8     9    2
     9     9    10    1
    10    10    11   ar
    11    11    12   ar
    12    12    13   ar
    13    13    14   ar
    14    14    15   ar
    15    15    16   ar
    16    16    17   ar
    17    17    18   ar
    18    18    19   ar
    19    19    20    1
    20    20    21    1
    21    21    22   ar
    22    22    23   ar
    23    23    24   ar
    24    24    25   ar
    25    25    26   ar
    26     5    27   ar
    27    27    28   ar
    28    28    29    1
    29    29    30    1
    30    28    31   ar
    31    31    32    1
    32    32    33    1
    33    31     3   ar
    34    19    10   ar
    35    26    21   ar
    36    17    12   ar
    37     1    34    1
    38     1    35    1
    39     1    36    1
    40     4    37    1
    41     6    38    1
    42     7    39    1
    43     7    40    1
    44     7    41    1
    45    13    42    1
    46    14    43    1
    47    15    44    1
    48    16    45    1
    49    20    46    1
    50    20    47    1
    51    22    48    1
    52    23    49    1
    53    24    50    1
    54    25    51    1
    55    26    52    1
    56    27    53    1
    57    30    54    1
    58    30    55    1
    59    30    56    1
    60    33    57    1
    61    33    58    1
    62    33    59    1
