@<TRIPOS>MOLECULE
*****
 37 39 0 0 0
SMALL
GASTEIGER

@<TRIPOS>ATOM
      1 O           0.0088   -2.2177   -0.1073 O.2     1  UNL1       -0.1528
      2 S          -0.0581   -0.7540    0.3023 S.O2    1  UNL1        0.0615
      3 O          -0.1572   -0.7615    1.8025 O.2     1  UNL1       -0.1528
      4 N          -1.4347   -0.0862   -0.3459 N.3     1  UNL1       -0.1753
      5 C          -1.7708    1.2377   -0.0347 C.3     1  UNL1        0.0217
      6 C          -2.9666    1.4764    0.8093 C.3     1  UNL1       -0.0260
      7 C          -4.0909    0.5224    0.7009 C.3     1  UNL1       -0.0028
      8 N          -3.7328   -0.8237    0.3504 N.3     1  UNL1       -0.3147
      9 C          -3.5025   -1.0141   -1.0512 C.3     1  UNL1        0.0103
     10 C          -2.0661   -0.7196   -1.4362 C.3     1  UNL1        0.0330
     11 C           1.4455    0.0073   -0.1213 C.ar    1  UNL1        0.1132
     12 C           1.5133    1.1067   -0.9487 C.ar    1  UNL1       -0.0347
     13 C           2.6860    1.7469   -1.3143 C.ar    1  UNL1       -0.0593
     14 C           3.8850    1.2747   -0.8330 C.ar    1  UNL1       -0.0525
     15 C           3.8505    0.1695    0.0023 C.ar    1  UNL1        0.0021
     16 C           2.6479   -0.4535    0.3517 C.ar    1  UNL1        0.0113
     17 C           2.7062   -1.5619    1.1989 C.ar    1  UNL1       -0.0340
     18 C           3.9277   -2.0304    1.6797 C.ar    1  UNL1        0.0282
     19 N           5.0817   -1.4185    1.3337 N.ar    1  UNL1       -0.2626
     20 C           5.0112   -0.3429    0.5101 C.ar    1  UNL1        0.0353
     21 H          -0.8901    1.6995    0.4972 H       1  UNL1        0.0444
     22 H          -1.8108    1.8146   -1.0052 H       1  UNL1        0.0444
     23 H          -3.3781    2.4795    0.4877 H       1  UNL1        0.0290
     24 H          -2.6713    1.6715    1.8787 H       1  UNL1        0.0290
     25 H          -4.8874    0.8422   -0.0242 H       1  UNL1        0.0424
     26 H          -4.6016    0.4784    1.6897 H       1  UNL1        0.0424
     27 H          -2.9965   -1.2188    0.9659 H       1  UNL1        0.1220
     28 H          -3.7171   -2.0693   -1.2929 H       1  UNL1        0.0437
     29 H          -4.2195   -0.3879   -1.6111 H       1  UNL1        0.0437
     30 H          -2.1004   -0.1079   -2.3804 H       1  UNL1        0.0456
     31 H          -1.5105   -1.6472   -1.6754 H       1  UNL1        0.0456
     32 H           0.6118    1.5368   -1.3676 H       1  UNL1        0.0637
     33 H           2.7030    2.6024   -1.9619 H       1  UNL1        0.0618
     34 H           4.8100    1.7450   -1.0950 H       1  UNL1        0.0624
     35 H           1.8017   -2.0566    1.4815 H       1  UNL1        0.0639
     36 H           3.9370   -2.8940    2.3361 H       1  UNL1        0.0830
     37 H           5.9356    0.1539    0.2279 H       1  UNL1        0.0836
@<TRIPOS>BOND
     1     1     2    2
     2     2     3    2
     3     2     4    1
     4     4     5    1
     5     5     6    1
     6     6     7    1
     7     7     8    1
     8     8     9    1
     9     9    10    1
    10     2    11    1
    11    11    12   ar
    12    12    13   ar
    13    13    14   ar
    14    14    15   ar
    15    15    16   ar
    16    16    17   ar
    17    17    18   ar
    18    18    19   ar
    19    19    20   ar
    20    10     4    1
    21    16    11   ar
    22    20    15   ar
    23     5    21    1
    24     5    22    1
    25     6    23    1
    26     6    24    1
    27     7    25    1
    28     7    26    1
    29     8    27    1
    30     9    28    1
    31     9    29    1
    32    10    30    1
    33    10    31    1
    34    12    32    1
    35    13    33    1
    36    14    34    1
    37    17    35    1
    38    18    36    1
    39    20    37    1
