@<TRIPOS>MOLECULE
*****
 56 59 0 0 0
SMALL
GASTEIGER

@<TRIPOS>ATOM
      1 C           8.1450    1.7709   -0.3563 C.3     1  UNL1        0.0805
      2 O           6.7807    2.0666   -0.5815 O.3     1  UNL1       -0.4786
      3 C           5.8235    1.0622   -0.4506 C.ar    1  UNL1        0.2337
      4 C           4.4910    1.3356   -0.6668 C.ar    1  UNL1        0.0898
      5 N           3.5513    0.3823   -0.5460 N.ar    1  UNL1       -0.2463
      6 C           3.8676   -0.8882   -0.2072 C.ar    1  UNL1        0.1105
      7 C           2.9106   -1.8711   -0.0845 C.ar    1  UNL1        0.0591
      8 N           1.5610   -1.5362   -0.3243 N.pl3   1  UNL1       -0.3128
      9 C           0.8463   -0.5723    0.4395 C.ar    1  UNL1        0.0319
     10 C           1.3943   -0.0018    1.5675 C.ar    1  UNL1       -0.0378
     11 C           0.6897    0.9439    2.3044 C.ar    1  UNL1       -0.0243
     12 C          -0.5586    1.3067    1.9005 C.ar    1  UNL1        0.1311
     13 F          -1.2112    2.2341    2.6459 F       1  UNL1       -0.2050
     14 C          -1.1243    0.7534    0.7831 C.ar    1  UNL1        0.0420
     15 C          -2.5154    1.1807    0.3676 C.3     1  UNL1        0.1959
     16 C          -2.4421    2.6774    0.1302 C.3     1  UNL1       -0.0112
     17 C          -3.4723    0.8841    1.5124 C.3     1  UNL1        0.1183
     18 S          -5.1079    0.9871    0.8115 S.O2    1  UNL1       -0.0101
     19 O          -6.1499    0.7224    1.8620 O.2     1  UNL1       -0.1731
     20 O          -5.3636    2.3501    0.2435 O.2     1  UNL1       -0.1731
     21 C          -5.1368   -0.2542   -0.4575 C.3     1  UNL1        0.1831
     22 C          -5.2128   -1.6052    0.2572 C.3     1  UNL1       -0.0288
     23 C          -6.3248   -0.0791   -1.3751 C.3     1  UNL1       -0.0288
     24 C          -3.8537   -0.1449   -1.2019 C.2     1  UNL1        0.3067
     25 N          -3.8872   -0.8247   -2.4933 N.pl3   1  UNL1       -0.2488
     26 N          -2.8287    0.4556   -0.8030 N.2     1  UNL1       -0.0727
     27 C          -0.4156   -0.1816    0.0627 C.ar    1  UNL1       -0.0302
     28 C           3.3138   -3.1351    0.2591 C.ar    1  UNL1       -0.0383
     29 C           4.6610   -3.4347    0.4831 C.ar    1  UNL1       -0.0579
     30 C           5.6036   -2.4384    0.3558 C.ar    1  UNL1       -0.0340
     31 C           5.2203   -1.1726    0.0139 C.ar    1  UNL1        0.0948
     32 N           6.1410   -0.2002   -0.1136 N.ar    1  UNL1       -0.2100
     33 H           8.4678    2.1026    0.6701 H       1  UNL1        0.0660
     34 H           8.7970    2.2512   -1.1146 H       1  UNL1        0.0660
     35 H           8.2789    0.6816   -0.4511 H       1  UNL1        0.0660
     36 H           4.2182    2.3522   -0.9402 H       1  UNL1        0.0884
     37 H           1.0811   -2.0332   -1.1071 H       1  UNL1        0.1522
     38 H           2.3975   -0.3068    1.8822 H       1  UNL1        0.0637
     39 H           1.1575    1.3771    3.1968 H       1  UNL1        0.0647
     40 H          -3.2469    3.2323    0.6556 H       1  UNL1        0.0279
     41 H          -1.4891    3.0738    0.5289 H       1  UNL1        0.0279
     42 H          -2.4443    2.8957   -0.9580 H       1  UNL1        0.0279
     43 H          -3.3198   -0.1983    1.7668 H       1  UNL1        0.0550
     44 H          -3.3692    1.5549    2.3594 H       1  UNL1        0.0550
     45 H          -5.9236   -1.5131    1.1048 H       1  UNL1        0.0256
     46 H          -4.1990   -1.7765    0.6777 H       1  UNL1        0.0256
     47 H          -5.5410   -2.4027   -0.4262 H       1  UNL1        0.0256
     48 H          -7.1457   -0.7224   -0.9672 H       1  UNL1        0.0256
     49 H          -6.0589   -0.5172   -2.3568 H       1  UNL1        0.0256
     50 H          -6.6571    0.9628   -1.4562 H       1  UNL1        0.0256
     51 H          -3.9523   -0.3331   -3.3863 H       1  UNL1        0.2881
     52 H          -3.8389   -1.8624   -2.4298 H       1  UNL1        0.2881
     53 H          -0.8747   -0.6177   -0.8274 H       1  UNL1        0.0641
     54 H           2.6022   -3.9381    0.3671 H       1  UNL1        0.0637
     55 H           5.0002   -4.4211    0.7540 H       1  UNL1        0.0619
     56 H           6.6647   -2.6148    0.5182 H       1  UNL1        0.0639
@<TRIPOS>BOND
     1     1     2    1
     2     2     3    1
     3     3     4   ar
     4     4     5   ar
     5     5     6   ar
     6     6     7   ar
     7     7     8    1
     8     8     9    1
     9     9    10   ar
    10    10    11   ar
    11    11    12   ar
    12    12    13    1
    13    12    14   ar
    14    14    15    1
    15    15    16    1
    16    15    17    1
    17    17    18    1
    18    18    19    2
    19    18    20    2
    20    18    21    1
    21    21    22    1
    22    21    23    1
    23    21    24    1
    24    24    25    1
    25    24    26    2
    26    14    27   ar
    27     7    28   ar
    28    28    29   ar
    29    29    30   ar
    30    30    31   ar
    31    31    32   ar
    32    32     3   ar
    33    31     6   ar
    34    27     9   ar
    35    26    15    1
    36     1    33    1
    37     1    34    1
    38     1    35    1
    39     4    36    1
    40     8    37    1
    41    10    38    1
    42    11    39    1
    43    16    40    1
    44    16    41    1
    45    16    42    1
    46    17    43    1
    47    17    44    1
    48    22    45    1
    49    22    46    1
    50    22    47    1
    51    23    48    1
    52    23    49    1
    53    23    50    1
    54    25    51    1
    55    25    52    1
    56    27    53    1
    57    28    54    1
    58    29    55    1
    59    30    56    1
