
     RDKit          3D

 56 59  0  0  0  0  0  0  0  0999 V2000
    8.1450    1.7709   -0.3563 C   0  0  0  0  0  0  0  0  0  0  0  0
    6.7807    2.0666   -0.5815 O   0  0  0  0  0  0  0  0  0  0  0  0
    5.8235    1.0622   -0.4506 C   0  0  0  0  0  0  0  0  0  0  0  0
    4.4910    1.3356   -0.6668 C   0  0  0  0  0  0  0  0  0  0  0  0
    3.5513    0.3823   -0.5460 N   0  0  0  0  0  0  0  0  0  0  0  0
    3.8676   -0.8882   -0.2072 C   0  0  0  0  0  0  0  0  0  0  0  0
    2.9106   -1.8711   -0.0845 C   0  0  0  0  0  0  0  0  0  0  0  0
    1.5610   -1.5362   -0.3243 N   0  0  0  0  0  0  0  0  0  0  0  0
    0.8463   -0.5723    0.4395 C   0  0  0  0  0  0  0  0  0  0  0  0
    1.3943   -0.0018    1.5675 C   0  0  0  0  0  0  0  0  0  0  0  0
    0.6897    0.9439    2.3044 C   0  0  0  0  0  0  0  0  0  0  0  0
   -0.5586    1.3067    1.9005 C   0  0  0  0  0  0  0  0  0  0  0  0
   -1.2112    2.2341    2.6459 F   0  0  0  0  0  0  0  0  0  0  0  0
   -1.1243    0.7534    0.7831 C   0  0  0  0  0  0  0  0  0  0  0  0
   -2.5154    1.1807    0.3676 C   0  0  2  0  0  0  0  0  0  0  0  0
   -2.4421    2.6774    0.1302 C   0  0  0  0  0  0  0  0  0  0  0  0
   -3.4723    0.8841    1.5124 C   0  0  0  0  0  0  0  0  0  0  0  0
   -5.1079    0.9871    0.8115 S   0  0  0  0  0  6  0  0  0  0  0  0
   -6.1499    0.7224    1.8620 O   0  0  0  0  0  0  0  0  0  0  0  0
   -5.3636    2.3501    0.2435 O   0  0  0  0  0  0  0  0  0  0  0  0
   -5.1368   -0.2542   -0.4575 C   0  0  0  0  0  0  0  0  0  0  0  0
   -5.2128   -1.6052    0.2572 C   0  0  0  0  0  0  0  0  0  0  0  0
   -6.3248   -0.0791   -1.3751 C   0  0  0  0  0  0  0  0  0  0  0  0
   -3.8537   -0.1449   -1.2019 C   0  0  0  0  0  0  0  0  0  0  0  0
   -3.8872   -0.8247   -2.4933 N   0  0  0  0  0  0  0  0  0  0  0  0
   -2.8287    0.4556   -0.8030 N   0  0  0  0  0  0  0  0  0  0  0  0
   -0.4156   -0.1816    0.0627 C   0  0  0  0  0  0  0  0  0  0  0  0
    3.3138   -3.1351    0.2591 C   0  0  0  0  0  0  0  0  0  0  0  0
    4.6610   -3.4347    0.4831 C   0  0  0  0  0  0  0  0  0  0  0  0
    5.6036   -2.4384    0.3558 C   0  0  0  0  0  0  0  0  0  0  0  0
    5.2203   -1.1726    0.0139 C   0  0  0  0  0  0  0  0  0  0  0  0
    6.1410   -0.2002   -0.1136 N   0  0  0  0  0  0  0  0  0  0  0  0
    8.4678    2.1026    0.6701 H   0  0  0  0  0  0  0  0  0  0  0  0
    8.7970    2.2512   -1.1146 H   0  0  0  0  0  0  0  0  0  0  0  0
    8.2789    0.6816   -0.4511 H   0  0  0  0  0  0  0  0  0  0  0  0
    4.2182    2.3522   -0.9402 H   0  0  0  0  0  0  0  0  0  0  0  0
    1.0811   -2.0332   -1.1071 H   0  0  0  0  0  0  0  0  0  0  0  0
    2.3975   -0.3068    1.8822 H   0  0  0  0  0  0  0  0  0  0  0  0
    1.1575    1.3771    3.1968 H   0  0  0  0  0  0  0  0  0  0  0  0
   -3.2469    3.2323    0.6556 H   0  0  0  0  0  0  0  0  0  0  0  0
   -1.4891    3.0738    0.5289 H   0  0  0  0  0  0  0  0  0  0  0  0
   -2.4443    2.8957   -0.9580 H   0  0  0  0  0  0  0  0  0  0  0  0
   -3.3198   -0.1983    1.7668 H   0  0  0  0  0  0  0  0  0  0  0  0
   -3.3692    1.5549    2.3594 H   0  0  0  0  0  0  0  0  0  0  0  0
   -5.9236   -1.5131    1.1048 H   0  0  0  0  0  0  0  0  0  0  0  0
   -4.1990   -1.7765    0.6777 H   0  0  0  0  0  0  0  0  0  0  0  0
   -5.5410   -2.4027   -0.4262 H   0  0  0  0  0  0  0  0  0  0  0  0
   -7.1457   -0.7224   -0.9672 H   0  0  0  0  0  0  0  0  0  0  0  0
   -6.0589   -0.5172   -2.3568 H   0  0  0  0  0  0  0  0  0  0  0  0
   -6.6571    0.9628   -1.4562 H   0  0  0  0  0  0  0  0  0  0  0  0
   -3.9523   -0.3331   -3.3863 H   0  0  0  0  0  0  0  0  0  0  0  0
   -3.8389   -1.8624   -2.4298 H   0  0  0  0  0  0  0  0  0  0  0  0
   -0.8747   -0.6177   -0.8274 H   0  0  0  0  0  0  0  0  0  0  0  0
    2.6022   -3.9381    0.3671 H   0  0  0  0  0  0  0  0  0  0  0  0
    5.0002   -4.4211    0.7540 H   0  0  0  0  0  0  0  0  0  0  0  0
    6.6647   -2.6148    0.5182 H   0  0  0  0  0  0  0  0  0  0  0  0
  1  2  1  0
  2  3  1  0
  3  4  2  0
  4  5  1  0
  5  6  2  0
  6  7  1  0
  7  8  1  0
  8  9  1  0
  9 10  2  0
 10 11  1  0
 11 12  2  0
 12 13  1  0
 12 14  1  0
 14 15  1  0
 15 16  1  6
 15 17  1  0
 17 18  1  0
 18 19  2  0
 18 20  2  0
 18 21  1  0
 21 22  1  0
 21 23  1  0
 21 24  1  0
 24 25  1  0
 24 26  2  0
 14 27  2  0
  7 28  2  0
 28 29  1  0
 29 30  2  0
 30 31  1  0
 31 32  2  0
 32  3  1  0
 31  6  1  0
 27  9  1  0
 26 15  1  0
  1 33  1  0
  1 34  1  0
  1 35  1  0
  4 36  1  0
  8 37  1  0
 10 38  1  0
 11 39  1  0
 16 40  1  0
 16 41  1  0
 16 42  1  0
 17 43  1  0
 17 44  1  0
 22 45  1  0
 22 46  1  0
 22 47  1  0
 23 48  1  0
 23 49  1  0
 23 50  1  0
 25 51  1  0
 25 52  1  0
 27 53  1  0
 28 54  1  0
 29 55  1  0
 30 56  1  0
M  END
$$$$
