@<TRIPOS>MOLECULE
*****
 61 64 0 0 0
SMALL
GASTEIGER

@<TRIPOS>ATOM
      1 O           5.9163   -0.7289   -0.9226 O.2     1  UNL1       -0.2702
      2 C           4.8953    0.0229   -0.9463 C.2     1  UNL1        0.2444
      3 N           3.6973   -0.5435   -1.4542 N.am    1  UNL1       -0.3050
      4 C           3.6789   -1.8966   -1.9078 C.3     1  UNL1        0.0604
      5 C           3.3262   -2.0508   -3.3700 C.3     1  UNL1       -0.0309
      6 C           2.3479   -3.2006   -3.4363 C.3     1  UNL1       -0.0479
      7 C           2.5970   -3.9520   -2.1459 C.3     1  UNL1       -0.0138
      8 C           2.7260   -2.7895   -1.1504 C.3     1  UNL1        0.1216
      9 O           1.4471   -2.2529   -1.0060 O.3     1  UNL1       -0.4560
     10 C           0.7236   -2.1636    0.1557 C.2     1  UNL1        0.3397
     11 O           1.2499   -2.6045    1.2095 O.2     1  UNL1       -0.2449
     12 C          -0.6178   -1.5871    0.2321 C.ar    1  UNL1        0.0659
     13 C          -1.2482   -1.0881   -0.8898 C.ar    1  UNL1       -0.0053
     14 C          -2.5173   -0.5455   -0.8041 C.ar    1  UNL1        0.1320
     15 O          -3.0626   -0.0668   -2.0137 O.3     1  UNL1       -0.5059
     16 C          -3.2192   -0.4689    0.3787 C.ar    1  UNL1        0.1050
     17 C          -4.5713   -0.0111    0.4300 C.2     1  UNL1        0.2044
     18 O          -5.1842   -0.1447   -0.7294 O.2     1  UNL1       -0.2863
     19 C          -5.3742    0.5367    1.4558 C.ar    1  UNL1        0.0778
     20 C          -6.7253    0.1498    1.4835 C.ar    1  UNL1        0.1285
     21 O          -7.1560   -0.7374    0.5372 O.3     1  UNL1       -0.5060
     22 C          -7.6286    0.6121    2.4032 C.ar    1  UNL1       -0.0194
     23 C          -7.2152    1.5063    3.3646 C.ar    1  UNL1       -0.0575
     24 C          -5.9121    1.9077    3.3669 C.ar    1  UNL1       -0.0468
     25 C          -4.9906    1.4249    2.4085 C.ar    1  UNL1        0.0731
     26 C          -3.7235    2.0823    2.3895 C.2     1  UNL1        0.3376
     27 O          -3.3753    2.8096    3.3634 O.2     1  UNL1       -0.2451
     28 O          -2.8243    1.9956    1.3623 O.3     1  UNL1       -0.4771
     29 C          -2.5978   -0.9656    1.5025 C.ar    1  UNL1        0.1320
     30 O          -3.1802   -0.9675    2.7832 O.3     1  UNL1       -0.5059
     31 C          -1.3205   -1.5101    1.4106 C.ar    1  UNL1       -0.0053
     32 C           4.9732    1.3947   -0.4705 C.ar    1  UNL1        0.0369
     33 C           3.8889    2.2417   -0.4924 C.ar    1  UNL1       -0.0462
     34 C           3.9601    3.5616   -0.0339 C.ar    1  UNL1       -0.0195
     35 C           5.1688    4.0089    0.4526 C.ar    1  UNL1        0.1169
     36 O           5.2233    5.3271    0.9057 O.3     1  UNL1       -0.5068
     37 C           6.2427    3.1600    0.4709 C.ar    1  UNL1       -0.0195
     38 C           6.1754    1.8581    0.0196 C.ar    1  UNL1       -0.0462
     39 H           2.8038    0.0349   -1.5010 H       1  UNL1        0.1494
     40 H           4.6868   -2.3411   -1.7851 H       1  UNL1        0.0535
     41 H           2.9321   -1.1164   -3.8124 H       1  UNL1        0.0284
     42 H           4.2098   -2.3441   -3.9881 H       1  UNL1        0.0284
     43 H           1.2965   -2.8519   -3.4309 H       1  UNL1        0.0267
     44 H           2.5602   -3.8612   -4.3268 H       1  UNL1        0.0267
     45 H           3.5417   -4.5098   -2.1457 H       1  UNL1        0.0301
     46 H           1.7133   -4.5871   -1.8691 H       1  UNL1        0.0301
     47 H           3.1896   -3.1756   -0.2454 H       1  UNL1        0.0753
     48 H          -0.7388   -1.1269   -1.8330 H       1  UNL1        0.0662
     49 H          -2.6313    0.7968   -2.3580 H       1  UNL1        0.2922
     50 H          -7.9457   -0.5108   -0.0566 H       1  UNL1        0.2922
     51 H          -8.6659    0.3102    2.4185 H       1  UNL1        0.0654
     52 H          -7.9369    1.8836    4.1146 H       1  UNL1        0.0619
     53 H          -5.5992    2.6076    4.1238 H       1  UNL1        0.0626
     54 H          -1.8209    1.9827    1.5742 H       1  UNL1        0.2954
     55 H          -2.5726   -0.5980    3.5158 H       1  UNL1        0.2922
     56 H          -0.8364   -1.8987    2.2997 H       1  UNL1        0.0662
     57 H           2.9201    1.9409   -0.8631 H       1  UNL1        0.0626
     58 H           3.1062    4.2247   -0.0524 H       1  UNL1        0.0654
     59 H           5.7667    6.0432    0.4304 H       1  UNL1        0.2921
     60 H           7.1823    3.5472    0.8629 H       1  UNL1        0.0654
     61 H           7.0450    1.2257    0.0528 H       1  UNL1        0.0626
@<TRIPOS>BOND
     1     1     2    2
     2     2     3   am
     3     3     4    1
     4     4     5    1
     5     5     6    1
     6     6     7    1
     7     7     8    1
     8     8     9    1
     9     9    10    1
    10    10    11    2
    11    10    12    1
    12    12    13   ar
    13    13    14   ar
    14    14    15    1
    15    14    16   ar
    16    16    17    1
    17    17    18    2
    18    17    19    1
    19    19    20   ar
    20    20    21    1
    21    20    22   ar
    22    22    23   ar
    23    23    24   ar
    24    24    25   ar
    25    25    26    1
    26    26    27    2
    27    26    28    1
    28    16    29   ar
    29    29    30    1
    30    29    31   ar
    31     2    32    1
    32    32    33   ar
    33    33    34   ar
    34    34    35   ar
    35    35    36    1
    36    35    37   ar
    37    37    38   ar
    38     8     4    1
    39    31    12   ar
    40    38    32   ar
    41    25    19   ar
    42     3    39    1
    43     4    40    1
    44     5    41    1
    45     5    42    1
    46     6    43    1
    47     6    44    1
    48     7    45    1
    49     7    46    1
    50     8    47    1
    51    13    48    1
    52    15    49    1
    53    21    50    1
    54    22    51    1
    55    23    52    1
    56    24    53    1
    57    28    54    1
    58    30    55    1
    59    31    56    1
    60    33    57    1
    61    34    58    1
    62    36    59    1
    63    37    60    1
    64    38    61    1
