
     RDKit          3D

 61 64  0  0  0  0  0  0  0  0999 V2000
    5.9163   -0.7289   -0.9226 O   0  0  0  0  0  0  0  0  0  0  0  0
    4.8953    0.0229   -0.9463 C   0  0  0  0  0  0  0  0  0  0  0  0
    3.6973   -0.5435   -1.4542 N   0  0  0  0  0  0  0  0  0  0  0  0
    3.6789   -1.8966   -1.9078 C   0  0  0  0  0  0  0  0  0  0  0  0
    3.3262   -2.0508   -3.3700 C   0  0  0  0  0  0  0  0  0  0  0  0
    2.3479   -3.2006   -3.4363 C   0  0  0  0  0  0  0  0  0  0  0  0
    2.5970   -3.9520   -2.1459 C   0  0  0  0  0  0  0  0  0  0  0  0
    2.7260   -2.7895   -1.1504 C   0  0  2  0  0  0  0  0  0  0  0  0
    1.4471   -2.2529   -1.0060 O   0  0  0  0  0  0  0  0  0  0  0  0
    0.7236   -2.1636    0.1557 C   0  0  0  0  0  0  0  0  0  0  0  0
    1.2499   -2.6045    1.2095 O   0  0  0  0  0  0  0  0  0  0  0  0
   -0.6178   -1.5871    0.2321 C   0  0  0  0  0  0  0  0  0  0  0  0
   -1.2482   -1.0881   -0.8898 C   0  0  0  0  0  0  0  0  0  0  0  0
   -2.5173   -0.5455   -0.8041 C   0  0  0  0  0  0  0  0  0  0  0  0
   -3.0626   -0.0668   -2.0137 O   0  0  0  0  0  0  0  0  0  0  0  0
   -3.2192   -0.4689    0.3787 C   0  0  0  0  0  0  0  0  0  0  0  0
   -4.5713   -0.0111    0.4300 C   0  0  0  0  0  0  0  0  0  0  0  0
   -5.1842   -0.1447   -0.7294 O   0  0  0  0  0  0  0  0  0  0  0  0
   -5.3742    0.5367    1.4558 C   0  0  0  0  0  0  0  0  0  0  0  0
   -6.7253    0.1498    1.4835 C   0  0  0  0  0  0  0  0  0  0  0  0
   -7.1560   -0.7374    0.5372 O   0  0  0  0  0  0  0  0  0  0  0  0
   -7.6286    0.6121    2.4032 C   0  0  0  0  0  0  0  0  0  0  0  0
   -7.2152    1.5063    3.3646 C   0  0  0  0  0  0  0  0  0  0  0  0
   -5.9121    1.9077    3.3669 C   0  0  0  0  0  0  0  0  0  0  0  0
   -4.9906    1.4249    2.4085 C   0  0  0  0  0  0  0  0  0  0  0  0
   -3.7235    2.0823    2.3895 C   0  0  0  0  0  0  0  0  0  0  0  0
   -3.3753    2.8096    3.3634 O   0  0  0  0  0  0  0  0  0  0  0  0
   -2.8243    1.9956    1.3623 O   0  0  0  0  0  0  0  0  0  0  0  0
   -2.5978   -0.9656    1.5025 C   0  0  0  0  0  0  0  0  0  0  0  0
   -3.1802   -0.9675    2.7832 O   0  0  0  0  0  0  0  0  0  0  0  0
   -1.3205   -1.5101    1.4106 C   0  0  0  0  0  0  0  0  0  0  0  0
    4.9732    1.3947   -0.4705 C   0  0  0  0  0  0  0  0  0  0  0  0
    3.8889    2.2417   -0.4924 C   0  0  0  0  0  0  0  0  0  0  0  0
    3.9601    3.5616   -0.0339 C   0  0  0  0  0  0  0  0  0  0  0  0
    5.1688    4.0089    0.4526 C   0  0  0  0  0  0  0  0  0  0  0  0
    5.2233    5.3271    0.9057 O   0  0  0  0  0  0  0  0  0  0  0  0
    6.2427    3.1600    0.4709 C   0  0  0  0  0  0  0  0  0  0  0  0
    6.1754    1.8581    0.0196 C   0  0  0  0  0  0  0  0  0  0  0  0
    2.8038    0.0349   -1.5010 H   0  0  0  0  0  0  0  0  0  0  0  0
    4.6868   -2.3411   -1.7851 H   0  0  0  0  0  0  0  0  0  0  0  0
    2.9321   -1.1164   -3.8124 H   0  0  0  0  0  0  0  0  0  0  0  0
    4.2098   -2.3441   -3.9881 H   0  0  0  0  0  0  0  0  0  0  0  0
    1.2965   -2.8519   -3.4309 H   0  0  0  0  0  0  0  0  0  0  0  0
    2.5602   -3.8612   -4.3268 H   0  0  0  0  0  0  0  0  0  0  0  0
    3.5417   -4.5098   -2.1457 H   0  0  0  0  0  0  0  0  0  0  0  0
    1.7133   -4.5871   -1.8691 H   0  0  0  0  0  0  0  0  0  0  0  0
    3.1896   -3.1756   -0.2454 H   0  0  0  0  0  0  0  0  0  0  0  0
   -0.7388   -1.1269   -1.8330 H   0  0  0  0  0  0  0  0  0  0  0  0
   -2.6313    0.7968   -2.3580 H   0  0  0  0  0  0  0  0  0  0  0  0
   -7.9457   -0.5108   -0.0566 H   0  0  0  0  0  0  0  0  0  0  0  0
   -8.6659    0.3102    2.4185 H   0  0  0  0  0  0  0  0  0  0  0  0
   -7.9369    1.8836    4.1146 H   0  0  0  0  0  0  0  0  0  0  0  0
   -5.5992    2.6076    4.1238 H   0  0  0  0  0  0  0  0  0  0  0  0
   -1.8209    1.9827    1.5742 H   0  0  0  0  0  0  0  0  0  0  0  0
   -2.5726   -0.5980    3.5158 H   0  0  0  0  0  0  0  0  0  0  0  0
   -0.8364   -1.8987    2.2997 H   0  0  0  0  0  0  0  0  0  0  0  0
    2.9201    1.9409   -0.8631 H   0  0  0  0  0  0  0  0  0  0  0  0
    3.1062    4.2247   -0.0524 H   0  0  0  0  0  0  0  0  0  0  0  0
    5.7667    6.0432    0.4304 H   0  0  0  0  0  0  0  0  0  0  0  0
    7.1823    3.5472    0.8629 H   0  0  0  0  0  0  0  0  0  0  0  0
    7.0450    1.2257    0.0528 H   0  0  0  0  0  0  0  0  0  0  0  0
  1  2  2  0
  2  3  1  0
  3  4  1  0
  4  5  1  0
  5  6  1  0
  6  7  1  0
  7  8  1  0
  8  9  1  0
  9 10  1  0
 10 11  2  0
 10 12  1  0
 12 13  2  0
 13 14  1  0
 14 15  1  0
 14 16  2  0
 16 17  1  0
 17 18  2  0
 17 19  1  0
 19 20  2  0
 20 21  1  0
 20 22  1  0
 22 23  2  0
 23 24  1  0
 24 25  2  0
 25 26  1  0
 26 27  2  0
 26 28  1  0
 16 29  1  0
 29 30  1  0
 29 31  2  0
  2 32  1  0
 32 33  2  0
 33 34  1  0
 34 35  2  0
 35 36  1  0
 35 37  1  0
 37 38  2  0
  8  4  1  0
 31 12  1  0
 38 32  1  0
 25 19  1  0
  3 39  1  0
  4 40  1  0
  5 41  1  0
  5 42  1  0
  6 43  1  0
  6 44  1  0
  7 45  1  0
  7 46  1  0
  8 47  1  1
 13 48  1  0
 15 49  1  0
 21 50  1  0
 22 51  1  0
 23 52  1  0
 24 53  1  0
 28 54  1  0
 30 55  1  0
 31 56  1  0
 33 57  1  0
 34 58  1  0
 36 59  1  0
 37 60  1  0
 38 61  1  0
M  END
$$$$
