
     RDKit          3D

 89 93  0  0  0  0  0  0  0  0999 V2000
   10.0882    2.5712   -3.9595 C   0  0  0  0  0  0  0  0  0  0  0  0
    9.0135    1.9233   -3.1436 C   0  0  0  0  0  0  0  0  0  0  0  0
    8.1546    2.8630   -2.5030 O   0  0  0  0  0  0  0  0  0  0  0  0
    7.1266    2.3372   -1.7338 C   0  0  0  0  0  0  0  0  0  0  0  0
    6.2321    3.1558   -1.0681 C   0  0  0  0  0  0  0  0  0  0  0  0
    5.2047    2.6544   -0.3030 C   0  0  0  0  0  0  0  0  0  0  0  0
    5.0553    1.3049   -0.1921 C   0  0  0  0  0  0  0  0  0  0  0  0
    3.9728    0.6913    0.5606 C   0  0  0  0  0  0  0  0  0  0  0  0
    3.4098    1.2723    1.6714 C   0  0  0  0  0  0  0  0  0  0  0  0
    2.3743    0.6322    2.3276 C   0  0  0  0  0  0  0  0  0  0  0  0
    1.8586   -0.5776    1.9307 C   0  0  0  0  0  0  0  0  0  0  0  0
    0.7151   -1.1714    2.6677 C   0  0  0  0  0  0  0  0  0  0  0  0
   -0.4462   -1.2925    1.8279 N   0  0  0  0  0  0  0  0  0  0  0  0
   -0.8432   -2.3599    1.1214 C   0  0  0  0  0  0  0  0  0  0  0  0
   -0.3936   -3.7404    1.1583 C   0  0  0  0  0  0  0  0  0  0  0  0
   -0.8962   -4.6525    2.2182 C   0  0  0  0  0  0  0  0  0  0  0  0
   -0.3639   -6.0911    1.9323 C   0  0  0  0  0  0  0  0  0  0  0  0
   -2.3135   -4.7192    2.5458 C   0  0  0  0  0  0  0  0  0  0  0  0
   -0.1481   -4.3849    3.5429 C   0  0  0  0  0  0  0  0  0  0  0  0
   -0.7884   -3.9426    4.4958 O   0  0  0  0  0  0  0  0  0  0  0  0
    1.2049   -4.6823    3.5187 O   0  0  0  0  0  0  0  0  0  0  0  0
   -1.9438   -1.9434    0.3297 C   0  0  0  0  0  0  0  0  0  0  0  0
   -2.8281   -2.7065   -0.9650 S   0  0  0  0  0  0  0  0  0  0  0  0
   -4.2517   -3.6715   -0.7326 C   0  0  0  0  0  0  0  0  0  0  0  0
   -3.9799   -5.0401   -0.2114 C   0  0  0  0  0  0  0  0  0  0  0  0
   -5.0084   -3.8369   -2.0691 C   0  0  0  0  0  0  0  0  0  0  0  0
   -5.2030   -2.9562    0.2425 C   0  0  0  0  0  0  0  0  0  0  0  0
   -2.1549   -0.5640    0.6456 C   0  0  0  0  0  0  0  0  0  0  0  0
   -3.0944    0.3285    0.1646 C   0  0  0  0  0  0  0  0  0  0  0  0
   -3.0868    1.6464    0.6355 C   0  0  0  0  0  0  0  0  0  0  0  0
   -3.9938    2.4846    0.1631 O   0  0  0  0  0  0  0  0  0  0  0  0
   -4.8577    3.2907   -0.2841 C   0  0  0  0  0  0  0  0  0  0  0  0
   -4.2570    4.5066   -0.9716 C   0  0  0  0  0  0  0  0  0  0  0  0
   -2.9386    4.8250   -0.9253 C   0  0  0  0  0  0  0  0  0  0  0  0
   -2.4690    5.9585   -1.5604 C   0  0  0  0  0  0  0  0  0  0  0  0
   -3.3444    6.7748   -2.2462 C   0  0  0  0  0  0  0  0  0  0  0  0
   -2.8309    7.9992   -2.9247 C   0  0  0  0  0  0  0  0  0  0  0  0
   -4.6781    6.4276   -2.2771 C   0  0  0  0  0  0  0  0  0  0  0  0
   -5.0747    5.3176   -1.6445 N   0  0  0  0  0  0  0  0  0  0  0  0
   -2.1310    2.0188    1.5754 C   0  0  0  0  0  0  0  0  0  0  0  0
   -1.2223    1.0938    2.0194 C   0  0  0  0  0  0  0  0  0  0  0  0
   -1.2246   -0.2120    1.5565 C   0  0  0  0  0  0  0  0  0  0  0  0
    2.4258   -1.1417    0.8306 C   0  0  0  0  0  0  0  0  0  0  0  0
    3.4653   -0.5317    0.1459 C   0  0  0  0  0  0  0  0  0  0  0  0
    5.9628    0.5062   -0.8661 C   0  0  0  0  0  0  0  0  0  0  0  0
    6.9519    0.9915   -1.6026 N   0  0  0  0  0  0  0  0  0  0  0  0
   10.1060    3.6574   -3.7327 H   0  0  0  0  0  0  0  0  0  0  0  0
    9.9146    2.3661   -5.0389 H   0  0  0  0  0  0  0  0  0  0  0  0
   11.0540    2.1104   -3.6967 H   0  0  0  0  0  0  0  0  0  0  0  0
    9.4353    1.2747   -2.3553 H   0  0  0  0  0  0  0  0  0  0  0  0
    8.3985    1.2497   -3.8126 H   0  0  0  0  0  0  0  0  0  0  0  0
    6.3695    4.2379   -1.1682 H   0  0  0  0  0  0  0  0  0  0  0  0
    4.5293    3.3153    0.2016 H   0  0  0  0  0  0  0  0  0  0  0  0
    3.7613    2.2179    2.0411 H   0  0  0  0  0  0  0  0  0  0  0  0
    1.9523    1.1305    3.2087 H   0  0  0  0  0  0  0  0  0  0  0  0
    1.0414   -2.0478    3.2090 H   0  0  0  0  0  0  0  0  0  0  0  0
    0.4611   -0.4212    3.4886 H   0  0  0  0  0  0  0  0  0  0  0  0
    0.7163   -3.8581    1.1484 H   0  0  0  0  0  0  0  0  0  0  0  0
   -0.6828   -4.2348    0.1712 H   0  0  0  0  0  0  0  0  0  0  0  0
    0.6345   -6.0180    1.4626 H   0  0  0  0  0  0  0  0  0  0  0  0
   -1.0414   -6.6021    1.2473 H   0  0  0  0  0  0  0  0  0  0  0  0
   -0.2666   -6.6368    2.8795 H   0  0  0  0  0  0  0  0  0  0  0  0
   -2.4383   -4.7476    3.6778 H   0  0  0  0  0  0  0  0  0  0  0  0
   -2.7205   -5.7272    2.2392 H   0  0  0  0  0  0  0  0  0  0  0  0
   -2.9579   -3.8910    2.1857 H   0  0  0  0  0  0  0  0  0  0  0  0
    1.8003   -4.2369    4.2179 H   0  0  0  0  0  0  0  0  0  0  0  0
   -2.8682   -5.1901   -0.1901 H   0  0  0  0  0  0  0  0  0  0  0  0
   -4.3731   -5.8084   -0.9510 H   0  0  0  0  0  0  0  0  0  0  0  0
   -4.4861   -5.1898    0.7371 H   0  0  0  0  0  0  0  0  0  0  0  0
   -4.8359   -2.9654   -2.7252 H   0  0  0  0  0  0  0  0  0  0  0  0
   -4.6139   -4.7232   -2.6088 H   0  0  0  0  0  0  0  0  0  0  0  0
   -6.0785   -3.8747   -1.8510 H   0  0  0  0  0  0  0  0  0  0  0  0
   -4.5648   -2.5486    1.0460 H   0  0  0  0  0  0  0  0  0  0  0  0
   -5.7788   -2.1779   -0.2649 H   0  0  0  0  0  0  0  0  0  0  0  0
   -5.9165   -3.7279    0.5857 H   0  0  0  0  0  0  0  0  0  0  0  0
   -3.8381    0.0245   -0.5720 H   0  0  0  0  0  0  0  0  0  0  0  0
   -5.5862    2.8928   -1.0813 H   0  0  0  0  0  0  0  0  0  0  0  0
   -5.6223    3.7040    0.4711 H   0  0  0  0  0  0  0  0  0  0  0  0
   -2.2472    4.2014   -0.3961 H   0  0  0  0  0  0  0  0  0  0  0  0
   -1.4341    6.2567   -1.5528 H   0  0  0  0  0  0  0  0  0  0  0  0
   -1.8123    7.8309   -3.3133 H   0  0  0  0  0  0  0  0  0  0  0  0
   -3.5745    8.2271   -3.7256 H   0  0  0  0  0  0  0  0  0  0  0  0
   -2.7823    8.8397   -2.1809 H   0  0  0  0  0  0  0  0  0  0  0  0
   -5.4074    7.0288   -2.7993 H   0  0  0  0  0  0  0  0  0  0  0  0
   -2.1108    3.0301    1.9461 H   0  0  0  0  0  0  0  0  0  0  0  0
   -0.4545    1.3456    2.7577 H   0  0  0  0  0  0  0  0  0  0  0  0
    2.0811   -2.0802    0.4593 H   0  0  0  0  0  0  0  0  0  0  0  0
    3.9001   -1.0025   -0.7324 H   0  0  0  0  0  0  0  0  0  0  0  0
    5.8872   -0.5876   -0.8081 H   0  0  0  0  0  0  0  0  0  0  0  0
  1  2  1  0
  2  3  1  0
  3  4  1  0
  4  5  2  0
  5  6  1  0
  6  7  2  0
  7  8  1  0
  8  9  2  0
  9 10  1  0
 10 11  2  0
 11 12  1  0
 12 13  1  0
 13 14  1  0
 14 15  1  0
 15 16  1  0
 16 17  1  0
 16 18  1  0
 16 19  1  0
 19 20  2  0
 19 21  1  0
 14 22  2  0
 22 23  1  0
 23 24  1  0
 24 25  1  0
 24 26  1  0
 24 27  1  0
 22 28  1  0
 28 29  2  0
 29 30  1  0
 30 31  1  0
 31 32  1  0
 32 33  1  0
 33 34  2  0
 34 35  1  0
 35 36  2  0
 36 37  1  0
 36 38  1  0
 38 39  2  0
 30 40  2  0
 40 41  1  0
 41 42  2  0
 11 43  1  0
 43 44  2  0
  7 45  1  0
 45 46  2  0
 46  4  1  0
 44  8  1  0
 42 13  1  0
 42 28  1  0
 39 33  1  0
  1 47  1  0
  1 48  1  0
  1 49  1  0
  2 50  1  0
  2 51  1  0
  5 52  1  0
  6 53  1  0
  9 54  1  0
 10 55  1  0
 12 56  1  0
 12 57  1  0
 15 58  1  0
 15 59  1  0
 17 60  1  0
 17 61  1  0
 17 62  1  0
 18 63  1  0
 18 64  1  0
 18 65  1  0
 21 66  1  0
 25 67  1  0
 25 68  1  0
 25 69  1  0
 26 70  1  0
 26 71  1  0
 26 72  1  0
 27 73  1  0
 27 74  1  0
 27 75  1  0
 29 76  1  0
 32 77  1  0
 32 78  1  0
 34 79  1  0
 35 80  1  0
 37 81  1  0
 37 82  1  0
 37 83  1  0
 38 84  1  0
 40 85  1  0
 41 86  1  0
 43 87  1  0
 44 88  1  0
 45 89  1  0
M  END
$$$$
