@<TRIPOS>MOLECULE
*****
 89 93 0 0 0
SMALL
GASTEIGER

@<TRIPOS>ATOM
      1 C          10.0882    2.5712   -3.9595 C.3     1  UNL1       -0.0306
      2 C           9.0135    1.9233   -3.1436 C.3     1  UNL1        0.0884
      3 O           8.1546    2.8630   -2.5030 O.3     1  UNL1       -0.4766
      4 C           7.1266    2.3372   -1.7338 C.ar    1  UNL1        0.2147
      5 C           6.2321    3.1558   -1.0681 C.ar    1  UNL1        0.0006
      6 C           5.2047    2.6544   -0.3030 C.ar    1  UNL1       -0.0476
      7 C           5.0553    1.3049   -0.1921 C.ar    1  UNL1        0.0005
      8 C           3.9728    0.6913    0.5606 C.ar    1  UNL1       -0.0164
      9 C           3.4098    1.2723    1.6714 C.ar    1  UNL1       -0.0537
     10 C           2.3743    0.6322    2.3276 C.ar    1  UNL1       -0.0563
     11 C           1.8586   -0.5776    1.9307 C.ar    1  UNL1       -0.0277
     12 C           0.7151   -1.1714    2.6677 C.3     1  UNL1        0.0486
     13 N          -0.4462   -1.2925    1.8279 N.ar    1  UNL1       -0.3383
     14 C          -0.8432   -2.3599    1.1214 C.ar    1  UNL1        0.0346
     15 C          -0.3936   -3.7404    1.1583 C.3     1  UNL1        0.0040
     16 C          -0.8962   -4.6525    2.2182 C.3     1  UNL1        0.0673
     17 C          -0.3639   -6.0911    1.9323 C.3     1  UNL1       -0.0493
     18 C          -2.3135   -4.7192    2.5458 C.3     1  UNL1       -0.0493
     19 C          -0.1481   -4.3849    3.5429 C.2     1  UNL1        0.3108
     20 O          -0.7884   -3.9426    4.4958 O.2     1  UNL1       -0.2504
     21 O           1.2049   -4.6823    3.5187 O.3     1  UNL1       -0.4802
     22 C          -1.9438   -1.9434    0.3297 C.ar    1  UNL1        0.0370
     23 S          -2.8281   -2.7065   -0.9650 S.3     1  UNL1       -0.1169
     24 C          -4.2517   -3.6715   -0.7326 C.3     1  UNL1        0.0129
     25 C          -3.9799   -5.0401   -0.2114 C.3     1  UNL1       -0.0506
     26 C          -5.0084   -3.8369   -2.0691 C.3     1  UNL1       -0.0506
     27 C          -5.2030   -2.9562    0.2425 C.3     1  UNL1       -0.0506
     28 C          -2.1549   -0.5640    0.6456 C.ar    1  UNL1        0.0170
     29 C          -3.0944    0.3285    0.1646 C.ar    1  UNL1       -0.0097
     30 C          -3.0868    1.6464    0.6355 C.ar    1  UNL1        0.1218
     31 O          -3.9938    2.4846    0.1631 O.3     1  UNL1       -0.4858
     32 C          -4.8577    3.2907   -0.2841 C.3     1  UNL1        0.1313
     33 C          -4.2570    4.5066   -0.9716 C.ar    1  UNL1        0.0785
     34 C          -2.9386    4.8250   -0.9253 C.ar    1  UNL1       -0.0368
     35 C          -2.4690    5.9585   -1.5604 C.ar    1  UNL1       -0.0556
     36 C          -3.3444    6.7748   -2.2462 C.ar    1  UNL1       -0.0323
     37 C          -2.8309    7.9992   -2.9247 C.3     1  UNL1       -0.0383
     38 C          -4.6781    6.4276   -2.2771 C.ar    1  UNL1        0.0309
     39 N          -5.0747    5.3176   -1.6445 N.ar    1  UNL1       -0.2562
     40 C          -2.1310    2.0188    1.5754 C.ar    1  UNL1       -0.0179
     41 C          -1.2223    1.0938    2.0194 C.ar    1  UNL1       -0.0341
     42 C          -1.2246   -0.2120    1.5565 C.ar    1  UNL1        0.0509
     43 C           2.4258   -1.1417    0.8306 C.ar    1  UNL1       -0.0563
     44 C           3.4653   -0.5317    0.1459 C.ar    1  UNL1       -0.0537
     45 C           5.9628    0.5062   -0.8661 C.ar    1  UNL1        0.0391
     46 N           6.9519    0.9915   -1.6026 N.ar    1  UNL1       -0.2207
     47 H          10.1060    3.6574   -3.7327 H       1  UNL1        0.0262
     48 H           9.9146    2.3661   -5.0389 H       1  UNL1        0.0262
     49 H          11.0540    2.1104   -3.6967 H       1  UNL1        0.0262
     50 H           9.4353    1.2747   -2.3553 H       1  UNL1        0.0694
     51 H           8.3985    1.2497   -3.8126 H       1  UNL1        0.0694
     52 H           6.3695    4.2379   -1.1682 H       1  UNL1        0.0671
     53 H           4.5293    3.3153    0.2016 H       1  UNL1        0.0626
     54 H           3.7613    2.2179    2.0411 H       1  UNL1        0.0624
     55 H           1.9523    1.1305    3.2087 H       1  UNL1        0.0621
     56 H           1.0414   -2.0478    3.2090 H       1  UNL1        0.0541
     57 H           0.4611   -0.4212    3.4886 H       1  UNL1        0.0541
     58 H           0.7163   -3.8581    1.1484 H       1  UNL1        0.0338
     59 H          -0.6828   -4.2348    0.1712 H       1  UNL1        0.0338
     60 H           0.6345   -6.0180    1.4626 H       1  UNL1        0.0240
     61 H          -1.0414   -6.6021    1.2473 H       1  UNL1        0.0240
     62 H          -0.2666   -6.6368    2.8795 H       1  UNL1        0.0240
     63 H          -2.4383   -4.7476    3.6778 H       1  UNL1        0.0240
     64 H          -2.7205   -5.7272    2.2392 H       1  UNL1        0.0240
     65 H          -2.9579   -3.8910    2.1857 H       1  UNL1        0.0240
     66 H           1.8003   -4.2369    4.2179 H       1  UNL1        0.2951
     67 H          -2.8682   -5.1901   -0.1901 H       1  UNL1        0.0243
     68 H          -4.3731   -5.8084   -0.9510 H       1  UNL1        0.0243
     69 H          -4.4861   -5.1898    0.7371 H       1  UNL1        0.0243
     70 H          -4.8359   -2.9654   -2.7252 H       1  UNL1        0.0243
     71 H          -4.6139   -4.7232   -2.6088 H       1  UNL1        0.0243
     72 H          -6.0785   -3.8747   -1.8510 H       1  UNL1        0.0243
     73 H          -4.5648   -2.5486    1.0460 H       1  UNL1        0.0243
     74 H          -5.7788   -2.1779   -0.2649 H       1  UNL1        0.0243
     75 H          -5.9165   -3.7279    0.5857 H       1  UNL1        0.0243
     76 H          -3.8381    0.0245   -0.5720 H       1  UNL1        0.0661
     77 H          -5.5862    2.8928   -1.0813 H       1  UNL1        0.0763
     78 H          -5.6223    3.7040    0.4711 H       1  UNL1        0.0763
     79 H          -2.2472    4.2014   -0.3961 H       1  UNL1        0.0637
     80 H          -1.4341    6.2567   -1.5528 H       1  UNL1        0.0621
     81 H          -1.8123    7.8309   -3.3133 H       1  UNL1        0.0278
     82 H          -3.5745    8.2271   -3.7256 H       1  UNL1        0.0278
     83 H          -2.7823    8.8397   -2.1809 H       1  UNL1        0.0278
     84 H          -5.4074    7.0288   -2.7993 H       1  UNL1        0.0832
     85 H          -2.1108    3.0301    1.9461 H       1  UNL1        0.0655
     86 H          -0.4545    1.3456    2.7577 H       1  UNL1        0.0639
     87 H           2.0811   -2.0802    0.4593 H       1  UNL1        0.0621
     88 H           3.9001   -1.0025   -0.7324 H       1  UNL1        0.0624
     89 H           5.8872   -0.5876   -0.8081 H       1  UNL1        0.0837
@<TRIPOS>BOND
     1     1     2    1
     2     2     3    1
     3     3     4    1
     4     4     5   ar
     5     5     6   ar
     6     6     7   ar
     7     7     8    1
     8     8     9   ar
     9     9    10   ar
    10    10    11   ar
    11    11    12    1
    12    12    13    1
    13    13    14   ar
    14    14    15    1
    15    15    16    1
    16    16    17    1
    17    16    18    1
    18    16    19    1
    19    19    20    2
    20    19    21    1
    21    14    22   ar
    22    22    23    1
    23    23    24    1
    24    24    25    1
    25    24    26    1
    26    24    27    1
    27    22    28   ar
    28    28    29   ar
    29    29    30   ar
    30    30    31    1
    31    31    32    1
    32    32    33    1
    33    33    34   ar
    34    34    35   ar
    35    35    36   ar
    36    36    37    1
    37    36    38   ar
    38    38    39   ar
    39    30    40   ar
    40    40    41   ar
    41    41    42   ar
    42    11    43   ar
    43    43    44   ar
    44     7    45   ar
    45    45    46   ar
    46    46     4   ar
    47    44     8   ar
    48    42    13   ar
    49    42    28   ar
    50    39    33   ar
    51     1    47    1
    52     1    48    1
    53     1    49    1
    54     2    50    1
    55     2    51    1
    56     5    52    1
    57     6    53    1
    58     9    54    1
    59    10    55    1
    60    12    56    1
    61    12    57    1
    62    15    58    1
    63    15    59    1
    64    17    60    1
    65    17    61    1
    66    17    62    1
    67    18    63    1
    68    18    64    1
    69    18    65    1
    70    21    66    1
    71    25    67    1
    72    25    68    1
    73    25    69    1
    74    26    70    1
    75    26    71    1
    76    26    72    1
    77    27    73    1
    78    27    74    1
    79    27    75    1
    80    29    76    1
    81    32    77    1
    82    32    78    1
    83    34    79    1
    84    35    80    1
    85    37    81    1
    86    37    82    1
    87    37    83    1
    88    38    84    1
    89    40    85    1
    90    41    86    1
    91    43    87    1
    92    44    88    1
    93    45    89    1
