@<TRIPOS>MOLECULE
*****
 55 59 0 0 0
SMALL
GASTEIGER

@<TRIPOS>ATOM
      1 C           4.7582   -0.9545   -2.2090 C.3     1  UNL1       -0.0374
      2 C           3.9219   -0.9676   -1.0147 C.ar    1  UNL1       -0.0164
      3 C           2.5918   -0.5874   -1.0957 C.ar    1  UNL1       -0.0161
      4 C           1.7763   -0.5873    0.0063 C.ar    1  UNL1        0.1313
      5 N           0.3836   -0.1928   -0.0397 N.am    1  UNL1       -0.2388
      6 C          -0.6568   -1.1061   -0.3222 C.2     1  UNL1        0.2553
      7 O          -0.6026   -2.3325   -0.5919 O.2     1  UNL1       -0.2695
      8 C          -1.8954   -0.3498   -0.2471 C.ar    1  UNL1        0.0722
      9 C          -3.2902   -0.4404   -0.3653 C.ar    1  UNL1        0.0668
     10 C          -3.9978   -1.6669   -0.6894 C.2     1  UNL1        0.2483
     11 O          -4.2451   -1.9885   -1.8851 O.2     1  UNL1       -0.2699
     12 N          -4.4127   -2.5100    0.3716 N.am    1  UNL1       -0.3036
     13 C          -5.1247   -3.7470    0.0757 C.3     1  UNL1        0.0031
     14 C          -4.1465   -2.1731    1.7529 C.3     1  UNL1        0.0031
     15 C          -3.7818    0.8189   -0.1181 C.ar    1  UNL1        0.0175
     16 N          -2.7904    1.6764    0.1431 N.ar    1  UNL1       -0.3503
     17 C          -2.8837    3.1073    0.4567 C.3     1  UNL1        0.0117
     18 C          -1.6296    0.9510    0.0621 C.ar    1  UNL1        0.0570
     19 C          -0.1655    1.0916    0.1885 C.3     1  UNL1        0.0986
     20 C           0.3693    2.1585   -0.6919 C.ar    1  UNL1       -0.0207
     21 C           0.7430    3.3536   -0.1158 C.ar    1  UNL1       -0.0550
     22 C           1.2478    4.4156   -0.8456 C.ar    1  UNL1       -0.0431
     23 C           1.3611    4.2161   -2.2034 C.ar    1  UNL1        0.0410
     24 CL          1.9959    5.5372   -3.1601 Cl      1  UNL1       -0.0835
     25 C           0.9934    3.0302   -2.7973 C.ar    1  UNL1       -0.0431
     26 C           0.4957    2.0010   -2.0302 C.ar    1  UNL1       -0.0550
     27 N           2.2823   -0.9635    1.1804 N.ar    1  UNL1       -0.2108
     28 C           3.5732   -1.3471    1.3309 C.ar    1  UNL1        0.1803
     29 C           4.4113   -1.3494    0.2098 C.ar    1  UNL1        0.1345
     30 N           5.5977   -1.7659    0.6643 N.ar    1  UNL1       -0.1276
     31 N           5.4827   -2.0010    1.9806 N.ar    1  UNL1       -0.0635
     32 N           4.2761   -1.7562    2.4015 N.ar    1  UNL1       -0.2297
     33 C           3.7509   -1.8851    3.7476 C.3     1  UNL1        0.0341
     34 H           5.7561   -0.5435   -1.9369 H       1  UNL1        0.0278
     35 H           4.9453   -2.0051   -2.5518 H       1  UNL1        0.0278
     36 H           4.2979   -0.4267   -3.0517 H       1  UNL1        0.0278
     37 H           2.2234   -0.2976   -2.0448 H       1  UNL1        0.0655
     38 H          -4.4740   -4.6338    0.1823 H       1  UNL1        0.0428
     39 H          -5.4775   -3.7476   -0.9894 H       1  UNL1        0.0428
     40 H          -6.0403   -3.7998    0.6913 H       1  UNL1        0.0428
     41 H          -4.6756   -1.2187    1.9998 H       1  UNL1        0.0428
     42 H          -3.0699   -2.0821    1.9804 H       1  UNL1        0.0428
     43 H          -4.5627   -2.9392    2.4215 H       1  UNL1        0.0428
     44 H          -4.8328    1.0968   -0.1297 H       1  UNL1        0.0817
     45 H          -2.2454    3.6835   -0.2531 H       1  UNL1        0.0456
     46 H          -3.9362    3.4044    0.2255 H       1  UNL1        0.0456
     47 H          -2.6062    3.3109    1.4975 H       1  UNL1        0.0456
     48 H           0.0373    1.3578    1.2544 H       1  UNL1        0.0620
     49 H           0.6364    3.4668    0.9587 H       1  UNL1        0.0621
     50 H           1.5327    5.3430   -0.3615 H       1  UNL1        0.0632
     51 H           1.1102    2.9441   -3.8717 H       1  UNL1        0.0632
     52 H           0.2127    1.0779   -2.5153 H       1  UNL1        0.0621
     53 H           2.9279   -1.1517    3.9286 H       1  UNL1        0.0474
     54 H           3.3112   -2.8885    3.9193 H       1  UNL1        0.0474
     55 H           4.5401   -1.6362    4.4971 H       1  UNL1        0.0474
@<TRIPOS>BOND
     1     1     2    1
     2     2     3   ar
     3     3     4   ar
     4     4     5    1
     5     5     6   am
     6     6     7    2
     7     6     8    1
     8     8     9   ar
     9     9    10    1
    10    10    11    2
    11    10    12   am
    12    12    13    1
    13    12    14    1
    14     9    15   ar
    15    15    16   ar
    16    16    17    1
    17    16    18   ar
    18    18    19    1
    19    19    20    1
    20    20    21   ar
    21    21    22   ar
    22    22    23   ar
    23    23    24    1
    24    23    25   ar
    25    25    26   ar
    26     4    27   ar
    27    27    28   ar
    28    28    29   ar
    29    29    30   ar
    30    30    31   ar
    31    31    32   ar
    32    32    33    1
    33    29     2   ar
    34    19     5    1
    35    26    20   ar
    36    32    28   ar
    37    18     8   ar
    38     1    34    1
    39     1    35    1
    40     1    36    1
    41     3    37    1
    42    13    38    1
    43    13    39    1
    44    13    40    1
    45    14    41    1
    46    14    42    1
    47    14    43    1
    48    15    44    1
    49    17    45    1
    50    17    46    1
    51    17    47    1
    52    19    48    1
    53    21    49    1
    54    22    50    1
    55    25    51    1
    56    26    52    1
    57    33    53    1
    58    33    54    1
    59    33    55    1
