
     RDKit          3D

 55 59  0  0  0  0  0  0  0  0999 V2000
    4.7582   -0.9545   -2.2090 C   0  0  0  0  0  0  0  0  0  0  0  0
    3.9219   -0.9676   -1.0147 C   0  0  0  0  0  0  0  0  0  0  0  0
    2.5918   -0.5874   -1.0957 C   0  0  0  0  0  0  0  0  0  0  0  0
    1.7763   -0.5873    0.0063 C   0  0  0  0  0  0  0  0  0  0  0  0
    0.3836   -0.1928   -0.0397 N   0  0  0  0  0  0  0  0  0  0  0  0
   -0.6568   -1.1061   -0.3222 C   0  0  0  0  0  0  0  0  0  0  0  0
   -0.6026   -2.3325   -0.5919 O   0  0  0  0  0  0  0  0  0  0  0  0
   -1.8954   -0.3498   -0.2471 C   0  0  0  0  0  0  0  0  0  0  0  0
   -3.2902   -0.4404   -0.3653 C   0  0  0  0  0  0  0  0  0  0  0  0
   -3.9978   -1.6669   -0.6894 C   0  0  0  0  0  0  0  0  0  0  0  0
   -4.2451   -1.9885   -1.8851 O   0  0  0  0  0  0  0  0  0  0  0  0
   -4.4127   -2.5100    0.3716 N   0  0  0  0  0  0  0  0  0  0  0  0
   -5.1247   -3.7470    0.0757 C   0  0  0  0  0  0  0  0  0  0  0  0
   -4.1465   -2.1731    1.7529 C   0  0  0  0  0  0  0  0  0  0  0  0
   -3.7818    0.8189   -0.1181 C   0  0  0  0  0  0  0  0  0  0  0  0
   -2.7904    1.6764    0.1431 N   0  0  0  0  0  0  0  0  0  0  0  0
   -2.8837    3.1073    0.4567 C   0  0  0  0  0  0  0  0  0  0  0  0
   -1.6296    0.9510    0.0621 C   0  0  0  0  0  0  0  0  0  0  0  0
   -0.1655    1.0916    0.1885 C   0  0  0  0  0  0  0  0  0  0  0  0
    0.3693    2.1585   -0.6919 C   0  0  0  0  0  0  0  0  0  0  0  0
    0.7430    3.3536   -0.1158 C   0  0  0  0  0  0  0  0  0  0  0  0
    1.2478    4.4156   -0.8456 C   0  0  0  0  0  0  0  0  0  0  0  0
    1.3611    4.2161   -2.2034 C   0  0  0  0  0  0  0  0  0  0  0  0
    1.9959    5.5372   -3.1601 Cl  0  0  0  0  0  0  0  0  0  0  0  0
    0.9934    3.0302   -2.7973 C   0  0  0  0  0  0  0  0  0  0  0  0
    0.4957    2.0010   -2.0302 C   0  0  0  0  0  0  0  0  0  0  0  0
    2.2823   -0.9635    1.1804 N   0  0  0  0  0  0  0  0  0  0  0  0
    3.5732   -1.3471    1.3309 C   0  0  0  0  0  0  0  0  0  0  0  0
    4.4113   -1.3494    0.2098 C   0  0  0  0  0  0  0  0  0  0  0  0
    5.5977   -1.7659    0.6643 N   0  0  0  0  0  0  0  0  0  0  0  0
    5.4827   -2.0010    1.9806 N   0  0  0  0  0  0  0  0  0  0  0  0
    4.2761   -1.7562    2.4015 N   0  0  0  0  0  0  0  0  0  0  0  0
    3.7509   -1.8851    3.7476 C   0  0  0  0  0  0  0  0  0  0  0  0
    5.7561   -0.5435   -1.9369 H   0  0  0  0  0  0  0  0  0  0  0  0
    4.9453   -2.0051   -2.5518 H   0  0  0  0  0  0  0  0  0  0  0  0
    4.2979   -0.4267   -3.0517 H   0  0  0  0  0  0  0  0  0  0  0  0
    2.2234   -0.2976   -2.0448 H   0  0  0  0  0  0  0  0  0  0  0  0
   -4.4740   -4.6338    0.1823 H   0  0  0  0  0  0  0  0  0  0  0  0
   -5.4775   -3.7476   -0.9894 H   0  0  0  0  0  0  0  0  0  0  0  0
   -6.0403   -3.7998    0.6913 H   0  0  0  0  0  0  0  0  0  0  0  0
   -4.6756   -1.2187    1.9998 H   0  0  0  0  0  0  0  0  0  0  0  0
   -3.0699   -2.0821    1.9804 H   0  0  0  0  0  0  0  0  0  0  0  0
   -4.5627   -2.9392    2.4215 H   0  0  0  0  0  0  0  0  0  0  0  0
   -4.8328    1.0968   -0.1297 H   0  0  0  0  0  0  0  0  0  0  0  0
   -2.2454    3.6835   -0.2531 H   0  0  0  0  0  0  0  0  0  0  0  0
   -3.9362    3.4044    0.2255 H   0  0  0  0  0  0  0  0  0  0  0  0
   -2.6062    3.3109    1.4975 H   0  0  0  0  0  0  0  0  0  0  0  0
    0.0373    1.3578    1.2544 H   0  0  0  0  0  0  0  0  0  0  0  0
    0.6364    3.4668    0.9587 H   0  0  0  0  0  0  0  0  0  0  0  0
    1.5327    5.3430   -0.3615 H   0  0  0  0  0  0  0  0  0  0  0  0
    1.1102    2.9441   -3.8717 H   0  0  0  0  0  0  0  0  0  0  0  0
    0.2127    1.0779   -2.5153 H   0  0  0  0  0  0  0  0  0  0  0  0
    2.9279   -1.1517    3.9286 H   0  0  0  0  0  0  0  0  0  0  0  0
    3.3112   -2.8885    3.9193 H   0  0  0  0  0  0  0  0  0  0  0  0
    4.5401   -1.6362    4.4971 H   0  0  0  0  0  0  0  0  0  0  0  0
  1  2  1  0
  2  3  2  0
  3  4  1  0
  4  5  1  0
  5  6  1  0
  6  7  2  0
  6  8  1  0
  8  9  1  0
  9 10  1  0
 10 11  2  0
 10 12  1  0
 12 13  1  0
 12 14  1  0
  9 15  2  0
 15 16  1  0
 16 17  1  0
 16 18  1  0
 18 19  1  0
 19 20  1  0
 20 21  2  0
 21 22  1  0
 22 23  2  0
 23 24  1  0
 23 25  1  0
 25 26  2  0
  4 27  2  0
 27 28  1  0
 28 29  2  0
 29 30  1  0
 30 31  2  0
 31 32  1  0
 32 33  1  0
 29  2  1  0
 19  5  1  0
 26 20  1  0
 32 28  1  0
 18  8  2  0
  1 34  1  0
  1 35  1  0
  1 36  1  0
  3 37  1  0
 13 38  1  0
 13 39  1  0
 13 40  1  0
 14 41  1  0
 14 42  1  0
 14 43  1  0
 15 44  1  0
 17 45  1  0
 17 46  1  0
 17 47  1  0
 19 48  1  0
 21 49  1  0
 22 50  1  0
 25 51  1  0
 26 52  1  0
 33 53  1  0
 33 54  1  0
 33 55  1  0
M  END
$$$$
