@<TRIPOS>MOLECULE
*****
 47 49 0 0 0
SMALL
GASTEIGER

@<TRIPOS>ATOM
      1 C           4.7020   -2.8798   -0.2123 C.3     1  UNL1       -0.0394
      2 C           3.5794   -1.9486    0.0426 C.ar    1  UNL1       -0.0454
      3 C           2.4223   -2.3817    0.6732 C.ar    1  UNL1       -0.0455
      4 C           2.3602   -3.8077    1.0778 C.3     1  UNL1       -0.0394
      5 C           1.4093   -1.4739    0.8851 C.ar    1  UNL1       -0.0329
      6 C           1.4428   -0.1579    0.5217 C.ar    1  UNL1        0.0694
      7 N           0.3998    0.6907    0.7732 N.ar    1  UNL1       -0.3195
      8 C          -0.7822    0.2256    1.4080 C.3     1  UNL1        0.0538
      9 C          -1.8757   -0.2815    0.5150 C.3     1  UNL1        0.1014
     10 O          -1.4251   -1.3552   -0.2877 O.3     1  UNL1       -0.3874
     11 C          -2.5331    0.7026   -0.3682 C.3     1  UNL1        0.1106
     12 O          -3.1035    1.8064    0.2574 O.3     1  UNL1       -0.3865
     13 C          -3.5100    0.0710   -1.3234 C.3     1  UNL1        0.1065
     14 O          -3.8527    1.0314   -2.3234 O.3     1  UNL1       -0.3869
     15 C          -4.8308   -0.3016   -0.7061 C.3     1  UNL1        0.0726
     16 O          -4.7007   -1.2560    0.2908 O.3     1  UNL1       -0.3924
     17 C           0.6649    1.9334    0.3407 C.ar    1  UNL1        0.1705
     18 N          -0.2562    2.8852    0.5250 N.ar    1  UNL1       -0.1733
     19 C          -0.0386    4.1455    0.1187 C.ar    1  UNL1        0.3505
     20 O          -0.9988    4.9530    0.3558 O.2     1  UNL1       -0.2446
     21 N           1.0792    4.6108   -0.5006 N.ar    1  UNL1       -0.2717
     22 C           2.0229    3.6966   -0.7038 C.ar    1  UNL1        0.2817
     23 O           3.0863    4.0686   -1.2757 O.2     1  UNL1       -0.2653
     24 C           1.8755    2.3990   -0.3199 C.ar    1  UNL1        0.1712
     25 N           2.8575    1.5044   -0.5346 N.ar    1  UNL1       -0.2368
     26 C           2.6226    0.2374   -0.1082 C.ar    1  UNL1        0.0886
     27 C           3.6609   -0.6279   -0.3426 C.ar    1  UNL1       -0.0311
     28 H           5.6540   -2.3230    0.0309 H       1  UNL1        0.0278
     29 H           4.8073   -3.1643   -1.2778 H       1  UNL1        0.0278
     30 H           4.6931   -3.7305    0.4805 H       1  UNL1        0.0278
     31 H           2.7921   -4.4605    0.2888 H       1  UNL1        0.0278
     32 H           1.3325   -4.1311    1.3273 H       1  UNL1        0.0278
     33 H           3.0050   -3.9155    1.9702 H       1  UNL1        0.0278
     34 H           0.5763   -1.9005    1.3838 H       1  UNL1        0.0641
     35 H          -0.6205   -0.5237    2.2235 H       1  UNL1        0.0519
     36 H          -1.2437    1.0997    1.9714 H       1  UNL1        0.0519
     37 H          -2.6703   -0.7430    1.1793 H       1  UNL1        0.0638
     38 H          -1.0797   -1.0322   -1.1537 H       1  UNL1        0.2100
     39 H          -1.7027    1.0935   -1.0528 H       1  UNL1        0.0646
     40 H          -3.2898    1.6824    1.2079 H       1  UNL1        0.2100
     41 H          -3.0576   -0.7961   -1.8253 H       1  UNL1        0.0643
     42 H          -4.6601    0.7178   -2.8019 H       1  UNL1        0.2100
     43 H          -5.5350   -0.7292   -1.4469 H       1  UNL1        0.0584
     44 H          -5.3534    0.5684   -0.2619 H       1  UNL1        0.0584
     45 H          -5.6217   -1.4968    0.5746 H       1  UNL1        0.2095
     46 H           1.1229    5.6288   -0.7694 H       1  UNL1        0.1735
     47 H           4.5733   -0.3338   -0.8270 H       1  UNL1        0.0642
@<TRIPOS>BOND
     1     1     2    1
     2     2     3   ar
     3     3     4    1
     4     3     5   ar
     5     5     6   ar
     6     6     7   ar
     7     7     8    1
     8     8     9    1
     9     9    10    1
    10     9    11    1
    11    11    12    1
    12    11    13    1
    13    13    14    1
    14    13    15    1
    15    15    16    1
    16     7    17   ar
    17    17    18   ar
    18    18    19   ar
    19    19    20    2
    20    19    21   ar
    21    21    22   ar
    22    22    23    2
    23    22    24   ar
    24    24    25   ar
    25    25    26   ar
    26    26    27   ar
    27    27     2   ar
    28    26     6   ar
    29    24    17    1
    30     1    28    1
    31     1    29    1
    32     1    30    1
    33     4    31    1
    34     4    32    1
    35     4    33    1
    36     5    34    1
    37     8    35    1
    38     8    36    1
    39     9    37    1
    40    10    38    1
    41    11    39    1
    42    12    40    1
    43    13    41    1
    44    14    42    1
    45    15    43    1
    46    15    44    1
    47    16    45    1
    48    21    46    1
    49    27    47    1
