@<TRIPOS>MOLECULE
*****
 80 83 0 0 0
SMALL
GASTEIGER

@<TRIPOS>ATOM
      1 C         -10.4206   -1.3400    1.0496 C.3     1  UNL1       -0.0117
      2 N          -9.1032   -0.9309    0.7452 N.3     1  UNL1       -0.2949
      3 C          -8.5357   -1.4325   -0.4703 C.3     1  UNL1        0.0199
      4 C          -8.9205   -2.9101   -0.5526 C.3     1  UNL1       -0.0467
      5 C          -9.0078   -0.7506   -1.7008 C.3     1  UNL1       -0.0467
      6 C          -7.0361   -1.4029   -0.2782 C.3     1  UNL1        0.0023
      7 C          -6.6217    0.0435   -0.2651 C.3     1  UNL1        0.1036
      8 O          -5.4556    0.1195    0.5135 O.3     1  UNL1       -0.4872
      9 C          -4.1987    0.4708    0.1741 C.ar    1  UNL1        0.1390
     10 C          -3.8344    0.8466   -1.0841 C.ar    1  UNL1       -0.0162
     11 C          -2.5053    1.2002   -1.3676 C.ar    1  UNL1       -0.0277
     12 C          -1.5676    1.1658   -0.3664 C.ar    1  UNL1        0.1259
     13 C          -0.1514    1.5449   -0.6663 C.2     1  UNL1        0.2666
     14 O           0.1484    1.8893   -1.8266 O.2     1  UNL1       -0.2682
     15 N           0.8112    1.5079    0.3573 N.am    1  UNL1       -0.2802
     16 C           2.1745    1.8400    0.2262 C.ar    1  UNL1        0.0338
     17 C           2.7592    2.3022   -0.9156 C.ar    1  UNL1       -0.0387
     18 C           4.1242    2.6120   -1.0004 C.ar    1  UNL1       -0.0387
     19 C           4.9527    2.4630    0.0787 C.ar    1  UNL1        0.0349
     20 N           6.3385    2.7619    0.0535 N.am    1  UNL1       -0.2692
     21 C           7.3396    1.8285   -0.3058 C.2     1  UNL1        0.3093
     22 O           7.0066    0.6669   -0.6271 O.2     1  UNL1       -0.2521
     23 N           8.7270    2.1469   -0.3212 N.am    1  UNL1       -0.2512
     24 C           9.6739    1.1564   -0.7006 C.ar    1  UNL1        0.1691
     25 C          10.2937    0.2484    0.1302 C.ar    1  UNL1        0.0230
     26 C          11.1428   -0.5218   -0.6673 C.ar    1  UNL1        0.1445
     27 C          12.0393   -1.6397   -0.2648 C.3     1  UNL1        0.0230
     28 C          11.9578   -1.9350    1.2029 C.3     1  UNL1       -0.0531
     29 C          13.4386   -1.2721   -0.6993 C.3     1  UNL1       -0.0531
     30 C          11.5481   -2.8712   -1.0061 C.3     1  UNL1       -0.0531
     31 O          11.0065   -0.0707   -1.8796 O.2     1  UNL1       -0.3573
     32 N          10.1646    0.9006   -1.9373 N.ar    1  UNL1       -0.0627
     33 C           4.3614    1.9911    1.2493 C.ar    1  UNL1       -0.0387
     34 C           3.0317    1.6917    1.3241 C.ar    1  UNL1       -0.0387
     35 N          -1.9401    0.7951    0.8608 N.ar    1  UNL1       -0.2467
     36 C          -3.1955    0.4564    1.1498 C.ar    1  UNL1        0.0701
     37 C          -7.6700    0.9993    0.2323 C.3     1  UNL1        0.0023
     38 C          -8.7750    0.4283    1.0392 C.3     1  UNL1        0.0199
     39 C          -8.4199    0.4924    2.5135 C.3     1  UNL1       -0.0467
     40 C         -10.0171    1.2747    0.8472 C.3     1  UNL1       -0.0467
     41 H         -10.7488   -0.8197    1.9750 H       1  UNL1        0.0391
     42 H         -11.1527   -1.3044    0.2310 H       1  UNL1        0.0391
     43 H         -10.3766   -2.4296    1.3544 H       1  UNL1        0.0391
     44 H          -8.4613   -3.3369   -1.4626 H       1  UNL1        0.0247
     45 H         -10.0230   -3.0268   -0.6199 H       1  UNL1        0.0247
     46 H          -8.5093   -3.4824    0.3158 H       1  UNL1        0.0247
     47 H          -9.8039    0.0018   -1.5285 H       1  UNL1        0.0247
     48 H          -8.1721   -0.2525   -2.2358 H       1  UNL1        0.0247
     49 H          -9.4142   -1.4978   -2.4094 H       1  UNL1        0.0247
     50 H          -6.8418   -1.9085    0.6925 H       1  UNL1        0.0319
     51 H          -6.5868   -1.9119   -1.1280 H       1  UNL1        0.0319
     52 H          -6.3463    0.2945   -1.3084 H       1  UNL1        0.0734
     53 H          -4.5566    0.8784   -1.8749 H       1  UNL1        0.0655
     54 H          -2.2059    1.4993   -2.3602 H       1  UNL1        0.0641
     55 H           0.4469    1.1937    1.3278 H       1  UNL1        0.1552
     56 H           2.1818    2.4558   -1.8222 H       1  UNL1        0.0637
     57 H           4.5487    2.9776   -1.9334 H       1  UNL1        0.0637
     58 H           6.6685    3.7275    0.3116 H       1  UNL1        0.1564
     59 H           9.0091    3.1155   -0.0526 H       1  UNL1        0.1579
     60 H          10.1690    0.1301    1.1872 H       1  UNL1        0.0688
     61 H          11.6702   -1.0911    1.8295 H       1  UNL1        0.0239
     62 H          11.3468   -2.8514    1.4083 H       1  UNL1        0.0239
     63 H          13.0003   -2.2240    1.5249 H       1  UNL1        0.0239
     64 H          14.1620   -1.8218   -0.0601 H       1  UNL1        0.0239
     65 H          13.5479   -1.6087   -1.7557 H       1  UNL1        0.0239
     66 H          13.6455   -0.1929   -0.5925 H       1  UNL1        0.0239
     67 H          10.5413   -3.1336   -0.6129 H       1  UNL1        0.0239
     68 H          11.4457   -2.6539   -2.0780 H       1  UNL1        0.0239
     69 H          12.2053   -3.7269   -0.7883 H       1  UNL1        0.0239
     70 H           5.0213    1.8763    2.0974 H       1  UNL1        0.0637
     71 H           2.5782    1.3242    2.2389 H       1  UNL1        0.0637
     72 H          -3.4645    0.1665    2.1348 H       1  UNL1        0.0867
     73 H          -7.1177    1.7895    0.8201 H       1  UNL1        0.0319
     74 H          -8.0708    1.5403   -0.6498 H       1  UNL1        0.0319
     75 H          -7.7018    1.3547    2.6428 H       1  UNL1        0.0247
     76 H          -7.9356   -0.4518    2.8120 H       1  UNL1        0.0247
     77 H          -9.3330    0.7178    3.1325 H       1  UNL1        0.0247
     78 H          -9.8431    2.0358    0.0304 H       1  UNL1        0.0247
     79 H         -10.9215    0.6824    0.6148 H       1  UNL1        0.0247
     80 H         -10.2652    1.8802    1.7478 H       1  UNL1        0.0247
@<TRIPOS>BOND
     1     1     2    1
     2     2     3    1
     3     3     4    1
     4     3     5    1
     5     3     6    1
     6     6     7    1
     7     7     8    1
     8     8     9    1
     9     9    10   ar
    10    10    11   ar
    11    11    12   ar
    12    12    13    1
    13    13    14    2
    14    13    15   am
    15    15    16    1
    16    16    17   ar
    17    17    18   ar
    18    18    19   ar
    19    19    20    1
    20    20    21   am
    21    21    22    2
    22    21    23   am
    23    23    24    1
    24    24    25   ar
    25    25    26   ar
    26    26    27    1
    27    27    28    1
    28    27    29    1
    29    27    30    1
    30    26    31   ar
    31    31    32   ar
    32    19    33   ar
    33    33    34   ar
    34    12    35   ar
    35    35    36   ar
    36     7    37    1
    37    37    38    1
    38    38    39    1
    39    38    40    1
    40    38     2    1
    41    36     9   ar
    42    34    16   ar
    43    32    24   ar
    44     1    41    1
    45     1    42    1
    46     1    43    1
    47     4    44    1
    48     4    45    1
    49     4    46    1
    50     5    47    1
    51     5    48    1
    52     5    49    1
    53     6    50    1
    54     6    51    1
    55     7    52    1
    56    10    53    1
    57    11    54    1
    58    15    55    1
    59    17    56    1
    60    18    57    1
    61    20    58    1
    62    23    59    1
    63    25    60    1
    64    28    61    1
    65    28    62    1
    66    28    63    1
    67    29    64    1
    68    29    65    1
    69    29    66    1
    70    30    67    1
    71    30    68    1
    72    30    69    1
    73    33    70    1
    74    34    71    1
    75    36    72    1
    76    37    73    1
    77    37    74    1
    78    39    75    1
    79    39    76    1
    80    39    77    1
    81    40    78    1
    82    40    79    1
    83    40    80    1
