
     RDKit          3D

 57 61  0  0  0  0  0  0  0  0999 V2000
    1.5628    3.7496    0.5374 O   0  0  0  0  0  0  0  0  0  0  0  0
    2.1612    2.7555    0.0802 C   0  0  0  0  0  0  0  0  0  0  0  0
    3.4784    2.7584   -0.5361 C   0  0  0  0  0  0  0  0  0  0  0  0
    4.2505    3.7593   -0.7195 O   0  0  0  0  0  0  0  0  0  0  0  0
    3.7189    1.3939   -0.8916 N   0  0  0  0  0  0  0  0  0  0  0  0
    4.8941    0.8935   -1.5318 C   0  0  0  0  0  0  0  0  0  0  0  0
    5.9538    0.4785   -0.6111 C   0  0  0  0  0  0  0  0  0  0  0  0
    6.9296    1.3588   -0.1742 C   0  0  0  0  0  0  0  0  0  0  0  0
    7.9344    0.9748    0.6947 C   0  0  0  0  0  0  0  0  0  0  0  0
    7.9985   -0.3119    1.1600 C   0  0  0  0  0  0  0  0  0  0  0  0
    7.0390   -1.2100    0.7410 C   0  0  0  0  0  0  0  0  0  0  0  0
    6.0324   -0.8116   -0.1339 C   0  0  0  0  0  0  0  0  0  0  0  0
    2.5911    0.5952   -0.5057 C   0  0  0  0  0  0  0  0  0  0  0  0
    2.3088   -0.7512   -0.6138 C   0  0  0  0  0  0  0  0  0  0  0  0
    1.1039   -1.2867   -0.1454 C   0  0  0  0  0  0  0  0  0  0  0  0
    0.1581   -0.4835    0.4405 C   0  0  0  0  0  0  0  0  0  0  0  0
   -1.3669   -1.1326    1.0338 S   0  0  0  0  0  6  0  0  0  0  0  0
   -1.0626   -2.5728    1.4162 O   0  0  0  0  0  0  0  0  0  0  0  0
   -1.6785   -0.4164    2.3054 O   0  0  0  0  0  0  0  0  0  0  0  0
   -2.5689   -1.0419   -0.1439 N   0  0  0  0  0  0  0  0  0  0  0  0
   -2.1676   -1.8398   -1.2839 C   0  0  0  0  0  0  0  0  0  0  0  0
   -2.6718   -3.2428   -0.9860 C   0  0  0  0  0  0  0  0  0  0  0  0
   -3.5932   -3.0728    0.1995 C   0  0  0  0  0  0  0  0  0  0  0  0
   -3.8406   -1.5792    0.1623 C   0  0  1  0  0  0  0  0  0  0  0  0
   -4.4871   -1.0614    1.3946 C   0  0  0  0  0  0  0  0  0  0  0  0
   -4.6921    0.2870    1.3583 O   0  0  0  0  0  0  0  0  0  0  0  0
   -5.4495    1.0969    0.5889 C   0  0  0  0  0  0  0  0  0  0  0  0
   -5.3481    2.4699    0.8654 C   0  0  0  0  0  0  0  0  0  0  0  0
   -6.0767    3.3591    0.1419 C   0  0  0  0  0  0  0  0  0  0  0  0
   -6.9209    2.9552   -0.8646 C   0  0  0  0  0  0  0  0  0  0  0  0
   -7.0106    1.6559   -1.1183 N   0  0  0  0  0  0  0  0  0  0  0  0
   -6.3032    0.7414   -0.4212 C   0  0  0  0  0  0  0  0  0  0  0  0
    0.4349    0.8640    0.5513 C   0  0  0  0  0  0  0  0  0  0  0  0
    1.6360    1.3981    0.0845 C   0  0  0  0  0  0  0  0  0  0  0  0
    5.3353    1.6223   -2.2445 H   0  0  0  0  0  0  0  0  0  0  0  0
    4.5946   -0.0029   -2.1413 H   0  0  0  0  0  0  0  0  0  0  0  0
    6.9418    2.3863   -0.4989 H   0  0  0  0  0  0  0  0  0  0  0  0
    8.7035    1.6707    1.0383 H   0  0  0  0  0  0  0  0  0  0  0  0
    8.7788   -0.6352    1.8429 H   0  0  0  0  0  0  0  0  0  0  0  0
    7.1118   -2.2199    1.1230 H   0  0  0  0  0  0  0  0  0  0  0  0
    5.3208   -1.5740   -0.4138 H   0  0  0  0  0  0  0  0  0  0  0  0
    3.0224   -1.4221   -1.0683 H   0  0  0  0  0  0  0  0  0  0  0  0
    0.8892   -2.3415   -0.2302 H   0  0  0  0  0  0  0  0  0  0  0  0
   -1.0893   -1.8480   -1.4682 H   0  0  0  0  0  0  0  0  0  0  0  0
   -2.7581   -1.4914   -2.1581 H   0  0  0  0  0  0  0  0  0  0  0  0
   -3.2529   -3.6666   -1.8433 H   0  0  0  0  0  0  0  0  0  0  0  0
   -1.8461   -3.9531   -0.7855 H   0  0  0  0  0  0  0  0  0  0  0  0
   -3.1891   -3.4355    1.1469 H   0  0  0  0  0  0  0  0  0  0  0  0
   -4.5851   -3.5514    0.0006 H   0  0  0  0  0  0  0  0  0  0  0  0
   -4.4975   -1.4124   -0.7032 H   0  0  0  0  0  0  0  0  0  0  0  0
   -5.5146   -1.5496    1.4100 H   0  0  0  0  0  0  0  0  0  0  0  0
   -4.0266   -1.4403    2.3335 H   0  0  0  0  0  0  0  0  0  0  0  0
   -4.6740    2.8057    1.6706 H   0  0  0  0  0  0  0  0  0  0  0  0
   -5.9614    4.4238    0.3980 H   0  0  0  0  0  0  0  0  0  0  0  0
   -7.4842    3.6999   -1.4179 H   0  0  0  0  0  0  0  0  0  0  0  0
   -6.4483   -0.3103   -0.6764 H   0  0  0  0  0  0  0  0  0  0  0  0
   -0.3192    1.5150    1.0205 H   0  0  0  0  0  0  0  0  0  0  0  0
  1  2  2  0
  2  3  1  0
  3  4  2  0
  3  5  1  0
  5  6  1  0
  6  7  1  0
  7  8  2  0
  8  9  1  0
  9 10  2  0
 10 11  1  0
 11 12  2  0
  5 13  1  0
 13 14  2  0
 14 15  1  0
 15 16  2  0
 16 17  1  0
 17 18  2  0
 17 19  2  0
 17 20  1  0
 20 21  1  0
 21 22  1  0
 22 23  1  0
 23 24  1  0
 24 25  1  0
 25 26  1  0
 26 27  1  0
 27 28  2  0
 28 29  1  0
 29 30  2  0
 30 31  1  0
 31 32  2  0
 16 33  1  0
 33 34  2  0
 34  2  1  0
 12  7  1  0
 34 13  1  0
 24 20  1  0
 32 27  1  0
  6 35  1  0
  6 36  1  0
  8 37  1  0
  9 38  1  0
 10 39  1  0
 11 40  1  0
 12 41  1  0
 14 42  1  0
 15 43  1  0
 21 44  1  0
 21 45  1  0
 22 46  1  0
 22 47  1  0
 23 48  1  0
 23 49  1  0
 24 50  1  6
 25 51  1  0
 25 52  1  0
 28 53  1  0
 29 54  1  0
 30 55  1  0
 32 56  1  0
 33 57  1  0
M  END
$$$$
