@<TRIPOS>MOLECULE
*****
 57 61 0 0 0
SMALL
GASTEIGER

@<TRIPOS>ATOM
      1 O           1.5628    3.7496    0.5374 O.2     1  UNL1       -0.2817
      2 C           2.1612    2.7555    0.0802 C.2     1  UNL1        0.2496
      3 C           3.4784    2.7584   -0.5361 C.2     1  UNL1        0.2915
      4 O           4.2505    3.7593   -0.7195 O.2     1  UNL1       -0.2661
      5 N           3.7189    1.3939   -0.8916 N.am    1  UNL1       -0.2598
      6 C           4.8941    0.8935   -1.5318 C.3     1  UNL1        0.0452
      7 C           5.9538    0.4785   -0.6111 C.ar    1  UNL1       -0.0297
      8 C           6.9296    1.3588   -0.1742 C.ar    1  UNL1       -0.0571
      9 C           7.9344    0.9748    0.6947 C.ar    1  UNL1       -0.0615
     10 C           7.9985   -0.3119    1.1600 C.ar    1  UNL1       -0.0617
     11 C           7.0390   -1.2100    0.7410 C.ar    1  UNL1       -0.0615
     12 C           6.0324   -0.8116   -0.1339 C.ar    1  UNL1       -0.0571
     13 C           2.5911    0.5952   -0.5057 C.ar    1  UNL1        0.0481
     14 C           2.3088   -0.7512   -0.6138 C.ar    1  UNL1       -0.0377
     15 C           1.1039   -1.2867   -0.1454 C.ar    1  UNL1       -0.0335
     16 C           0.1581   -0.4835    0.4405 C.ar    1  UNL1        0.1063
     17 S          -1.3669   -1.1326    1.0338 S.O2    1  UNL1        0.0612
     18 O          -1.0626   -2.5728    1.4162 O.2     1  UNL1       -0.1528
     19 O          -1.6785   -0.4164    2.3054 O.2     1  UNL1       -0.1528
     20 N          -2.5689   -1.0419   -0.1439 N.3     1  UNL1       -0.1703
     21 C          -2.1676   -1.8398   -1.2839 C.3     1  UNL1        0.0210
     22 C          -2.6718   -3.2428   -0.9860 C.3     1  UNL1       -0.0370
     23 C          -3.5932   -3.0728    0.1995 C.3     1  UNL1       -0.0313
     24 C          -3.8406   -1.5792    0.1623 C.3     1  UNL1        0.0659
     25 C          -4.4871   -1.0614    1.3946 C.3     1  UNL1        0.1068
     26 O          -4.6921    0.2870    1.3583 O.3     1  UNL1       -0.4888
     27 C          -5.4495    1.0969    0.5889 C.ar    1  UNL1        0.1386
     28 C          -5.3481    2.4699    0.8654 C.ar    1  UNL1       -0.0170
     29 C          -6.0767    3.3591    0.1419 C.ar    1  UNL1       -0.0401
     30 C          -6.9209    2.9552   -0.8646 C.ar    1  UNL1        0.0278
     31 N          -7.0106    1.6559   -1.1183 N.ar    1  UNL1       -0.2596
     32 C          -6.3032    0.7414   -0.4212 C.ar    1  UNL1        0.0692
     33 C           0.4349    0.8640    0.5513 C.ar    1  UNL1       -0.0226
     34 C           1.6360    1.3981    0.0845 C.ar    1  UNL1        0.0502
     35 H           5.3353    1.6223   -2.2445 H       1  UNL1        0.0518
     36 H           4.5946   -0.0029   -2.1413 H       1  UNL1        0.0518
     37 H           6.9418    2.3863   -0.4989 H       1  UNL1        0.0621
     38 H           8.7035    1.6707    1.0383 H       1  UNL1        0.0618
     39 H           8.7788   -0.6352    1.8429 H       1  UNL1        0.0618
     40 H           7.1118   -2.2199    1.1230 H       1  UNL1        0.0618
     41 H           5.3208   -1.5740   -0.4138 H       1  UNL1        0.0621
     42 H           3.0224   -1.4221   -1.0683 H       1  UNL1        0.0637
     43 H           0.8892   -2.3415   -0.2302 H       1  UNL1        0.0638
     44 H          -1.0893   -1.8480   -1.4682 H       1  UNL1        0.0444
     45 H          -2.7581   -1.4914   -2.1581 H       1  UNL1        0.0444
     46 H          -3.2529   -3.6666   -1.8433 H       1  UNL1        0.0279
     47 H          -1.8461   -3.9531   -0.7855 H       1  UNL1        0.0279
     48 H          -3.1891   -3.4355    1.1469 H       1  UNL1        0.0282
     49 H          -4.5851   -3.5514    0.0006 H       1  UNL1        0.0282
     50 H          -4.4975   -1.4124   -0.7032 H       1  UNL1        0.0513
     51 H          -5.5146   -1.5496    1.4100 H       1  UNL1        0.0713
     52 H          -4.0266   -1.4403    2.3335 H       1  UNL1        0.0713
     53 H          -4.6740    2.8057    1.6706 H       1  UNL1        0.0655
     54 H          -5.9614    4.4238    0.3980 H       1  UNL1        0.0634
     55 H          -7.4842    3.6999   -1.4179 H       1  UNL1        0.0829
     56 H          -6.4483   -0.3103   -0.6764 H       1  UNL1        0.0867
     57 H          -0.3192    1.5150    1.0205 H       1  UNL1        0.0645
@<TRIPOS>BOND
     1     1     2    2
     2     2     3    1
     3     3     4    2
     4     3     5   am
     5     5     6    1
     6     6     7    1
     7     7     8   ar
     8     8     9   ar
     9     9    10   ar
    10    10    11   ar
    11    11    12   ar
    12     5    13    1
    13    13    14   ar
    14    14    15   ar
    15    15    16   ar
    16    16    17    1
    17    17    18    2
    18    17    19    2
    19    17    20    1
    20    20    21    1
    21    21    22    1
    22    22    23    1
    23    23    24    1
    24    24    25    1
    25    25    26    1
    26    26    27    1
    27    27    28   ar
    28    28    29   ar
    29    29    30   ar
    30    30    31   ar
    31    31    32   ar
    32    16    33   ar
    33    33    34   ar
    34    34     2    1
    35    12     7   ar
    36    34    13   ar
    37    24    20    1
    38    32    27   ar
    39     6    35    1
    40     6    36    1
    41     8    37    1
    42     9    38    1
    43    10    39    1
    44    11    40    1
    45    12    41    1
    46    14    42    1
    47    15    43    1
    48    21    44    1
    49    21    45    1
    50    22    46    1
    51    22    47    1
    52    23    48    1
    53    23    49    1
    54    24    50    1
    55    25    51    1
    56    25    52    1
    57    28    53    1
    58    29    54    1
    59    30    55    1
    60    32    56    1
    61    33    57    1
