@<TRIPOS>MOLECULE
*****
 62 66 0 0 0
SMALL
GASTEIGER

@<TRIPOS>ATOM
      1 C          -2.5682    0.9512    1.0631 C.3     1  UNL1        0.0987
      2 C          -1.1963    1.6530    1.1456 C.3     1  UNL1       -0.0196
      3 C          -0.3343    0.7703    0.3043 C.3     1  UNL1       -0.0267
      4 C           1.1134    0.8436    0.4704 C.3     1  UNL1       -0.0284
      5 C           1.7168    2.2094    0.2295 C.3     1  UNL1       -0.0143
      6 C           3.2173    2.1310    0.4017 C.3     1  UNL1        0.1235
      7 F           3.8278    3.2848   -0.1066 F       1  UNL1       -0.2407
      8 C           3.8246    0.9454   -0.1972 C.2     1  UNL1       -0.0226
      9 C           4.9801    1.0812   -0.8290 C.2     1  UNL1       -0.0122
     10 C           5.6411   -0.0549   -1.4482 C.2     1  UNL1        0.1788
     11 O           6.7186    0.1294   -2.0249 O.2     1  UNL1       -0.2879
     12 C           5.0155   -1.3700   -1.3700 C.2     1  UNL1       -0.0180
     13 C           3.8582   -1.4483   -0.7257 C.2     1  UNL1       -0.0701
     14 C           3.0915   -0.3672   -0.0594 C.3     1  UNL1        0.0158
     15 C           3.1738   -0.6724    1.4211 C.3     1  UNL1       -0.0519
     16 C           1.7462   -0.0784   -0.5858 C.3     1  UNL1        0.0009
     17 C           0.8182   -1.1424   -0.9767 C.3     1  UNL1        0.0600
     18 O           1.3603   -2.2202   -1.6173 O.3     1  UNL1       -0.3914
     19 C          -0.1327   -1.6645    0.0775 C.3     1  UNL1       -0.0177
     20 C          -0.8360   -0.5894    0.7975 C.3     1  UNL1        0.0121
     21 C          -0.7583   -0.7196    2.2779 C.3     1  UNL1       -0.0561
     22 C          -2.3019   -0.3864    0.4171 C.3     1  UNL1        0.1640
     23 O          -2.4270   -0.0914   -0.9387 O.3     1  UNL1       -0.3320
     24 C          -3.3152    0.9693   -1.0550 C.3     1  UNL1        0.1663
     25 C          -2.9118    1.9647   -2.1169 C.3     1  UNL1       -0.0108
     26 C          -4.7381    0.5441   -1.3572 C.3     1  UNL1       -0.0108
     27 O          -3.3684    1.6358    0.1558 O.3     1  UNL1       -0.3426
     28 C          -3.1493   -1.4851    0.8822 C.2     1  UNL1        0.1931
     29 O          -3.1437   -1.6760    2.1097 O.2     1  UNL1       -0.2918
     30 C          -4.0647   -2.5126    0.3790 C.3     1  UNL1        0.1053
     31 O          -4.1951   -2.5754   -0.9987 O.3     1  UNL1       -0.3874
     32 H          -3.0728    0.9074    2.0291 H       1  UNL1        0.0631
     33 H          -1.2926    2.6886    0.7794 H       1  UNL1        0.0294
     34 H          -0.8279    1.6905    2.1779 H       1  UNL1        0.0294
     35 H          -0.6829    0.8570   -0.7412 H       1  UNL1        0.0311
     36 H           1.4129    0.5774    1.4968 H       1  UNL1        0.0308
     37 H           1.5241    2.4665   -0.8322 H       1  UNL1        0.0299
     38 H           1.2496    2.9575    0.8667 H       1  UNL1        0.0299
     39 H           3.4156    2.1745    1.4925 H       1  UNL1        0.0699
     40 H           5.4420    2.0650   -0.8841 H       1  UNL1        0.0656
     41 H           5.4922   -2.2273   -1.8241 H       1  UNL1        0.0653
     42 H           3.4584   -2.4544   -0.7019 H       1  UNL1        0.0582
     43 H           3.3256    0.2235    2.0562 H       1  UNL1        0.0241
     44 H           4.0820   -1.3086    1.6460 H       1  UNL1        0.0241
     45 H           2.3319   -1.2311    1.8152 H       1  UNL1        0.0241
     46 H           1.9053    0.5536   -1.5170 H       1  UNL1        0.0340
     47 H           0.1064   -0.7021   -1.7440 H       1  UNL1        0.0596
     48 H           1.6999   -1.9335   -2.5054 H       1  UNL1        0.2098
     49 H           0.3710   -2.4145    0.7535 H       1  UNL1        0.0297
     50 H          -0.8949   -2.2695   -0.4636 H       1  UNL1        0.0297
     51 H          -0.8861   -1.8016    2.5278 H       1  UNL1        0.0236
     52 H          -1.5519   -0.1806    2.8324 H       1  UNL1        0.0236
     53 H           0.2564   -0.4876    2.7168 H       1  UNL1        0.0236
     54 H          -2.0083    1.5400   -2.6203 H       1  UNL1        0.0281
     55 H          -3.7150    2.0785   -2.8547 H       1  UNL1        0.0281
     56 H          -2.6317    2.9516   -1.6565 H       1  UNL1        0.0281
     57 H          -5.2448    0.1174   -0.4701 H       1  UNL1        0.0281
     58 H          -5.2895    1.4539   -1.6506 H       1  UNL1        0.0281
     59 H          -4.7346   -0.1485   -2.2204 H       1  UNL1        0.0281
     60 H          -3.7098   -3.5439    0.6778 H       1  UNL1        0.0637
     61 H          -5.0898   -2.3186    0.7807 H       1  UNL1        0.0637
     62 H          -5.1025   -2.3412   -1.3158 H       1  UNL1        0.2100
@<TRIPOS>BOND
     1     1     2    1
     2     2     3    1
     3     3     4    1
     4     4     5    1
     5     5     6    1
     6     6     7    1
     7     6     8    1
     8     8     9    2
     9     9    10    1
    10    10    11    2
    11    10    12    1
    12    12    13    2
    13    13    14    1
    14    14    15    1
    15    14    16    1
    16    16    17    1
    17    17    18    1
    18    17    19    1
    19    19    20    1
    20    20    21    1
    21    20    22    1
    22    22    23    1
    23    23    24    1
    24    24    25    1
    25    24    26    1
    26    24    27    1
    27    22    28    1
    28    28    29    2
    29    28    30    1
    30    30    31    1
    31    22     1    1
    32    27     1    1
    33    20     3    1
    34    16     4    1
    35    14     8    1
    36     1    32    1
    37     2    33    1
    38     2    34    1
    39     3    35    1
    40     4    36    1
    41     5    37    1
    42     5    38    1
    43     6    39    1
    44     9    40    1
    45    12    41    1
    46    13    42    1
    47    15    43    1
    48    15    44    1
    49    15    45    1
    50    16    46    1
    51    17    47    1
    52    18    48    1
    53    19    49    1
    54    19    50    1
    55    21    51    1
    56    21    52    1
    57    21    53    1
    58    25    54    1
    59    25    55    1
    60    25    56    1
    61    26    57    1
    62    26    58    1
    63    26    59    1
    64    30    60    1
    65    30    61    1
    66    31    62    1
