@<TRIPOS>MOLECULE
*****
 39 40 0 0 0
SMALL
GASTEIGER

@<TRIPOS>ATOM
      1 C          -1.2130    3.0509    0.7098 C.3     1  UNL1       -0.0155
      2 N          -0.5261    1.9654    0.0012 N.3     1  UNL1       -0.3157
      3 C          -0.7472    0.6995    0.6727 C.3     1  UNL1        0.0141
      4 C          -0.2031    0.7722    2.0502 C.3     1  UNL1       -0.0489
      5 C          -0.1656   -0.3942   -0.1941 C.3     1  UNL1        0.0109
      6 C           1.2734   -0.1339   -0.3572 C.ar    1  UNL1       -0.0383
      7 C           1.8430    0.6065   -1.3588 C.ar    1  UNL1       -0.0565
      8 C           3.2220    0.8177   -1.4619 C.ar    1  UNL1       -0.0417
      9 C           4.0527    0.2580   -0.5153 C.ar    1  UNL1        0.0593
     10 CL          5.7885    0.4619   -0.5540 Cl      1  UNL1       -0.0820
     11 C           3.5168   -0.4948    0.5097 C.ar    1  UNL1        0.0595
     12 CL          4.5893   -1.2093    1.7200 Cl      1  UNL1       -0.0820
     13 C           2.1521   -0.6841    0.5827 C.ar    1  UNL1       -0.0382
     14 C          -0.8667   -0.3643   -1.5127 C.3     1  UNL1       -0.0419
     15 C          -2.3528   -0.6129   -1.4204 C.3     1  UNL1       -0.0522
     16 C          -2.7142   -1.7085   -0.4691 C.3     1  UNL1       -0.0530
     17 C          -1.5559   -2.5054    0.0340 C.3     1  UNL1       -0.0522
     18 C          -0.3470   -1.7563    0.3972 C.3     1  UNL1       -0.0419
     19 H          -2.0306    2.5698    1.3051 H       1  UNL1        0.0388
     20 H          -0.5344    3.5354    1.4252 H       1  UNL1        0.0388
     21 H          -1.7011    3.7538    0.0165 H       1  UNL1        0.0388
     22 H           0.4961    2.1788   -0.0545 H       1  UNL1        0.1219
     23 H          -1.8414    0.5415    0.6965 H       1  UNL1        0.0466
     24 H          -0.6386    1.7034    2.5192 H       1  UNL1        0.0245
     25 H           0.8775    0.8336    2.1305 H       1  UNL1        0.0245
     26 H          -0.6400   -0.0571    2.6729 H       1  UNL1        0.0245
     27 H           1.1906    1.0523   -2.1104 H       1  UNL1        0.0621
     28 H           3.6141    1.4106   -2.2736 H       1  UNL1        0.0633
     29 H           1.7258   -1.2800    1.3926 H       1  UNL1        0.0635
     30 H          -0.4201   -1.0602   -2.2504 H       1  UNL1        0.0274
     31 H          -0.7348    0.6665   -1.9643 H       1  UNL1        0.0274
     32 H          -2.7216   -0.7843   -2.4521 H       1  UNL1        0.0266
     33 H          -2.8187    0.3339   -1.0799 H       1  UNL1        0.0266
     34 H          -3.3865   -2.4051   -1.0153 H       1  UNL1        0.0265
     35 H          -3.3176   -1.3241    0.3800 H       1  UNL1        0.0265
     36 H          -1.9003   -3.0894    0.9185 H       1  UNL1        0.0266
     37 H          -1.2833   -3.2977   -0.7258 H       1  UNL1        0.0266
     38 H          -0.2477   -1.6924    1.5255 H       1  UNL1        0.0274
     39 H           0.5664   -2.3574    0.1098 H       1  UNL1        0.0274
@<TRIPOS>BOND
     1     1     2    1
     2     2     3    1
     3     3     4    1
     4     3     5    1
     5     5     6    1
     6     6     7   ar
     7     7     8   ar
     8     8     9   ar
     9     9    10    1
    10     9    11   ar
    11    11    12    1
    12    11    13   ar
    13     5    14    1
    14    14    15    1
    15    15    16    1
    16    16    17    1
    17    17    18    1
    18    18     5    1
    19    13     6   ar
    20     1    19    1
    21     1    20    1
    22     1    21    1
    23     2    22    1
    24     3    23    1
    25     4    24    1
    26     4    25    1
    27     4    26    1
    28     7    27    1
    29     8    28    1
    30    13    29    1
    31    14    30    1
    32    14    31    1
    33    15    32    1
    34    15    33    1
    35    16    34    1
    36    16    35    1
    37    17    36    1
    38    17    37    1
    39    18    38    1
    40    18    39    1
