
     RDKit          3D

 39 40  0  0  0  0  0  0  0  0999 V2000
   -1.2130    3.0509    0.7098 C   0  0  0  0  0  0  0  0  0  0  0  0
   -0.5261    1.9654    0.0012 N   0  0  0  0  0  0  0  0  0  0  0  0
   -0.7472    0.6995    0.6727 C   0  0  0  0  0  0  0  0  0  0  0  0
   -0.2031    0.7722    2.0502 C   0  0  0  0  0  0  0  0  0  0  0  0
   -0.1656   -0.3942   -0.1941 C   0  0  0  0  0  0  0  0  0  0  0  0
    1.2734   -0.1339   -0.3572 C   0  0  0  0  0  0  0  0  0  0  0  0
    1.8430    0.6065   -1.3588 C   0  0  0  0  0  0  0  0  0  0  0  0
    3.2220    0.8177   -1.4619 C   0  0  0  0  0  0  0  0  0  0  0  0
    4.0527    0.2580   -0.5153 C   0  0  0  0  0  0  0  0  0  0  0  0
    5.7885    0.4619   -0.5540 Cl  0  0  0  0  0  0  0  0  0  0  0  0
    3.5168   -0.4948    0.5097 C   0  0  0  0  0  0  0  0  0  0  0  0
    4.5893   -1.2093    1.7200 Cl  0  0  0  0  0  0  0  0  0  0  0  0
    2.1521   -0.6841    0.5827 C   0  0  0  0  0  0  0  0  0  0  0  0
   -0.8667   -0.3643   -1.5127 C   0  0  0  0  0  0  0  0  0  0  0  0
   -2.3528   -0.6129   -1.4204 C   0  0  0  0  0  0  0  0  0  0  0  0
   -2.7142   -1.7085   -0.4691 C   0  0  0  0  0  0  0  0  0  0  0  0
   -1.5559   -2.5054    0.0340 C   0  0  0  0  0  0  0  0  0  0  0  0
   -0.3470   -1.7563    0.3972 C   0  0  0  0  0  0  0  0  0  0  0  0
   -2.0306    2.5698    1.3051 H   0  0  0  0  0  0  0  0  0  0  0  0
   -0.5344    3.5354    1.4252 H   0  0  0  0  0  0  0  0  0  0  0  0
   -1.7011    3.7538    0.0165 H   0  0  0  0  0  0  0  0  0  0  0  0
    0.4961    2.1788   -0.0545 H   0  0  0  0  0  0  0  0  0  0  0  0
   -1.8414    0.5415    0.6965 H   0  0  0  0  0  0  0  0  0  0  0  0
   -0.6386    1.7034    2.5192 H   0  0  0  0  0  0  0  0  0  0  0  0
    0.8775    0.8336    2.1305 H   0  0  0  0  0  0  0  0  0  0  0  0
   -0.6400   -0.0571    2.6729 H   0  0  0  0  0  0  0  0  0  0  0  0
    1.1906    1.0523   -2.1104 H   0  0  0  0  0  0  0  0  0  0  0  0
    3.6141    1.4106   -2.2736 H   0  0  0  0  0  0  0  0  0  0  0  0
    1.7258   -1.2800    1.3926 H   0  0  0  0  0  0  0  0  0  0  0  0
   -0.4201   -1.0602   -2.2504 H   0  0  0  0  0  0  0  0  0  0  0  0
   -0.7348    0.6665   -1.9643 H   0  0  0  0  0  0  0  0  0  0  0  0
   -2.7216   -0.7843   -2.4521 H   0  0  0  0  0  0  0  0  0  0  0  0
   -2.8187    0.3339   -1.0799 H   0  0  0  0  0  0  0  0  0  0  0  0
   -3.3865   -2.4051   -1.0153 H   0  0  0  0  0  0  0  0  0  0  0  0
   -3.3176   -1.3241    0.3800 H   0  0  0  0  0  0  0  0  0  0  0  0
   -1.9003   -3.0894    0.9185 H   0  0  0  0  0  0  0  0  0  0  0  0
   -1.2833   -3.2977   -0.7258 H   0  0  0  0  0  0  0  0  0  0  0  0
   -0.2477   -1.6924    1.5255 H   0  0  0  0  0  0  0  0  0  0  0  0
    0.5664   -2.3574    0.1098 H   0  0  0  0  0  0  0  0  0  0  0  0
  1  2  1  0
  2  3  1  0
  3  4  1  0
  3  5  1  0
  5  6  1  0
  6  7  2  0
  7  8  1  0
  8  9  2  0
  9 10  1  0
  9 11  1  0
 11 12  1  0
 11 13  2  0
  5 14  1  0
 14 15  1  0
 15 16  1  0
 16 17  1  0
 17 18  1  0
 18  5  1  0
 13  6  1  0
  1 19  1  0
  1 20  1  0
  1 21  1  0
  2 22  1  0
  3 23  1  0
  4 24  1  0
  4 25  1  0
  4 26  1  0
  7 27  1  0
  8 28  1  0
 13 29  1  0
 14 30  1  0
 14 31  1  0
 15 32  1  0
 15 33  1  0
 16 34  1  0
 16 35  1  0
 17 36  1  0
 17 37  1  0
 18 38  1  0
 18 39  1  0
M  END
$$$$
