@<TRIPOS>MOLECULE
*****
 41 43 0 0 0
SMALL
GASTEIGER

@<TRIPOS>ATOM
      1 C           6.7771   -0.6727    0.8768 C.3     1  UNL1        0.0032
      2 N           5.7757    0.3759    0.8806 N.am    1  UNL1       -0.2839
      3 C           4.4285    0.1424    0.4265 C.2     1  UNL1        0.4053
      4 O           4.0912   -0.9805    0.0156 O.2     1  UNL1       -0.2260
      5 O           3.4813    1.1535    0.4354 O.3     1  UNL1       -0.4115
      6 C           2.1804    0.9786    0.0111 C.ar    1  UNL1        0.1336
      7 C           1.9303    1.2235   -1.3388 C.ar    1  UNL1       -0.0174
      8 C           0.6568    1.0730   -1.8486 C.ar    1  UNL1       -0.0369
      9 C          -0.3654    0.6798   -1.0172 C.ar    1  UNL1        0.0347
     10 C          -0.1318    0.4343    0.3198 C.ar    1  UNL1       -0.0139
     11 C           1.1529    0.5863    0.8334 C.ar    1  UNL1       -0.0136
     12 C          -1.4211    0.0301    0.9500 C.3     1  UNL1        0.0279
     13 C          -1.6202    0.6996    2.2916 C.3     1  UNL1       -0.0525
     14 C          -1.5363   -1.4733    1.0577 C.3     1  UNL1       -0.0277
     15 C          -2.8891   -1.8190    0.4882 C.3     1  UNL1        0.0012
     16 N          -3.4262   -0.6484   -0.1246 N.3     1  UNL1       -0.2867
     17 C          -4.7449   -0.2972    0.3441 C.3     1  UNL1       -0.0111
     18 C          -2.4811    0.4109   -0.0263 C.3     1  UNL1        0.0860
     19 N          -1.7445    0.4577   -1.2980 N.pl3   1  UNL1       -0.3162
     20 C          -2.4161    0.2922   -2.5703 C.3     1  UNL1        0.0022
     21 H           7.4879   -0.5113    0.0322 H       1  UNL1        0.0427
     22 H           7.3417   -0.6742    1.8495 H       1  UNL1        0.0427
     23 H           6.3035   -1.6615    0.7619 H       1  UNL1        0.0427
     24 H           6.0610    1.3103    1.2239 H       1  UNL1        0.1517
     25 H           2.7459    1.5357   -1.9953 H       1  UNL1        0.0655
     26 H           0.4570    1.2595   -2.8854 H       1  UNL1        0.0637
     27 H           1.3520    0.3978    1.8787 H       1  UNL1        0.0658
     28 H          -1.1192    0.1186    3.0989 H       1  UNL1        0.0239
     29 H          -2.7039    0.7770    2.4701 H       1  UNL1        0.0239
     30 H          -1.1796    1.7032    2.2431 H       1  UNL1        0.0239
     31 H          -0.6960   -1.9060    0.4737 H       1  UNL1        0.0287
     32 H          -1.4278   -1.8205    2.0892 H       1  UNL1        0.0287
     33 H          -2.7017   -2.5662   -0.3369 H       1  UNL1        0.0427
     34 H          -3.5495   -2.3101    1.2068 H       1  UNL1        0.0427
     35 H          -5.4023   -0.1582   -0.5426 H       1  UNL1        0.0391
     36 H          -5.1900   -1.0259    1.0251 H       1  UNL1        0.0391
     37 H          -4.7385    0.7043    0.8580 H       1  UNL1        0.0391
     38 H          -2.9161    1.4062    0.1747 H       1  UNL1        0.0680
     39 H          -3.2565   -0.4303   -2.4980 H       1  UNL1        0.0428
     40 H          -1.7222   -0.0724   -3.3518 H       1  UNL1        0.0428
     41 H          -2.8437    1.2773   -2.8451 H       1  UNL1        0.0428
@<TRIPOS>BOND
     1     1     2    1
     2     2     3   am
     3     3     4    2
     4     3     5    1
     5     5     6    1
     6     6     7   ar
     7     7     8   ar
     8     8     9   ar
     9     9    10   ar
    10    10    11   ar
    11    10    12    1
    12    12    13    1
    13    12    14    1
    14    14    15    1
    15    15    16    1
    16    16    17    1
    17    16    18    1
    18    18    19    1
    19    19    20    1
    20    11     6   ar
    21    18    12    1
    22    19     9    1
    23     1    21    1
    24     1    22    1
    25     1    23    1
    26     2    24    1
    27     7    25    1
    28     8    26    1
    29    11    27    1
    30    13    28    1
    31    13    29    1
    32    13    30    1
    33    14    31    1
    34    14    32    1
    35    15    33    1
    36    15    34    1
    37    17    35    1
    38    17    36    1
    39    17    37    1
    40    18    38    1
    41    20    39    1
    42    20    40    1
    43    20    41    1
