
     RDKit          3D

 41 43  0  0  0  0  0  0  0  0999 V2000
    6.7771   -0.6727    0.8768 C   0  0  0  0  0  0  0  0  0  0  0  0
    5.7757    0.3759    0.8806 N   0  0  0  0  0  0  0  0  0  0  0  0
    4.4285    0.1424    0.4265 C   0  0  0  0  0  0  0  0  0  0  0  0
    4.0912   -0.9805    0.0156 O   0  0  0  0  0  0  0  0  0  0  0  0
    3.4813    1.1535    0.4354 O   0  0  0  0  0  0  0  0  0  0  0  0
    2.1804    0.9786    0.0111 C   0  0  0  0  0  0  0  0  0  0  0  0
    1.9303    1.2235   -1.3388 C   0  0  0  0  0  0  0  0  0  0  0  0
    0.6568    1.0730   -1.8486 C   0  0  0  0  0  0  0  0  0  0  0  0
   -0.3654    0.6798   -1.0172 C   0  0  0  0  0  0  0  0  0  0  0  0
   -0.1318    0.4343    0.3198 C   0  0  0  0  0  0  0  0  0  0  0  0
    1.1529    0.5863    0.8334 C   0  0  0  0  0  0  0  0  0  0  0  0
   -1.4211    0.0301    0.9500 C   0  0  2  0  0  0  0  0  0  0  0  0
   -1.6202    0.6996    2.2916 C   0  0  0  0  0  0  0  0  0  0  0  0
   -1.5363   -1.4733    1.0577 C   0  0  0  0  0  0  0  0  0  0  0  0
   -2.8891   -1.8190    0.4882 C   0  0  0  0  0  0  0  0  0  0  0  0
   -3.4262   -0.6484   -0.1246 N   0  0  0  0  0  0  0  0  0  0  0  0
   -4.7449   -0.2972    0.3441 C   0  0  0  0  0  0  0  0  0  0  0  0
   -2.4811    0.4109   -0.0263 C   0  0  2  0  0  0  0  0  0  0  0  0
   -1.7445    0.4577   -1.2980 N   0  0  0  0  0  0  0  0  0  0  0  0
   -2.4161    0.2922   -2.5703 C   0  0  0  0  0  0  0  0  0  0  0  0
    7.4879   -0.5113    0.0322 H   0  0  0  0  0  0  0  0  0  0  0  0
    7.3417   -0.6742    1.8495 H   0  0  0  0  0  0  0  0  0  0  0  0
    6.3035   -1.6615    0.7619 H   0  0  0  0  0  0  0  0  0  0  0  0
    6.0610    1.3103    1.2239 H   0  0  0  0  0  0  0  0  0  0  0  0
    2.7459    1.5357   -1.9953 H   0  0  0  0  0  0  0  0  0  0  0  0
    0.4570    1.2595   -2.8854 H   0  0  0  0  0  0  0  0  0  0  0  0
    1.3520    0.3978    1.8787 H   0  0  0  0  0  0  0  0  0  0  0  0
   -1.1192    0.1186    3.0989 H   0  0  0  0  0  0  0  0  0  0  0  0
   -2.7039    0.7770    2.4701 H   0  0  0  0  0  0  0  0  0  0  0  0
   -1.1796    1.7032    2.2431 H   0  0  0  0  0  0  0  0  0  0  0  0
   -0.6960   -1.9060    0.4737 H   0  0  0  0  0  0  0  0  0  0  0  0
   -1.4278   -1.8205    2.0892 H   0  0  0  0  0  0  0  0  0  0  0  0
   -2.7017   -2.5662   -0.3369 H   0  0  0  0  0  0  0  0  0  0  0  0
   -3.5495   -2.3101    1.2068 H   0  0  0  0  0  0  0  0  0  0  0  0
   -5.4023   -0.1582   -0.5426 H   0  0  0  0  0  0  0  0  0  0  0  0
   -5.1900   -1.0259    1.0251 H   0  0  0  0  0  0  0  0  0  0  0  0
   -4.7385    0.7043    0.8580 H   0  0  0  0  0  0  0  0  0  0  0  0
   -2.9161    1.4062    0.1747 H   0  0  0  0  0  0  0  0  0  0  0  0
   -3.2565   -0.4303   -2.4980 H   0  0  0  0  0  0  0  0  0  0  0  0
   -1.7222   -0.0724   -3.3518 H   0  0  0  0  0  0  0  0  0  0  0  0
   -2.8437    1.2773   -2.8451 H   0  0  0  0  0  0  0  0  0  0  0  0
  1  2  1  0
  2  3  1  0
  3  4  2  0
  3  5  1  0
  5  6  1  0
  6  7  2  0
  7  8  1  0
  8  9  2  0
  9 10  1  0
 10 11  2  0
 10 12  1  0
 12 13  1  1
 12 14  1  0
 14 15  1  0
 15 16  1  0
 16 17  1  0
 16 18  1  0
 18 19  1  0
 19 20  1  0
 11  6  1  0
 18 12  1  0
 19  9  1  0
  1 21  1  0
  1 22  1  0
  1 23  1  0
  2 24  1  0
  7 25  1  0
  8 26  1  0
 11 27  1  0
 13 28  1  0
 13 29  1  0
 13 30  1  0
 14 31  1  0
 14 32  1  0
 15 33  1  0
 15 34  1  0
 17 35  1  0
 17 36  1  0
 17 37  1  0
 18 38  1  1
 20 39  1  0
 20 40  1  0
 20 41  1  0
M  END
$$$$
