
     RDKit          3D

 55 57  0  0  0  0  0  0  0  0999 V2000
    5.6921   -1.5536    3.1307 C   0  0  0  0  0  0  0  0  0  0  0  0
    6.5453   -0.2251    2.3078 S   0  0  0  0  0  6  0  0  0  0  0  0
    6.8661    0.8889    3.2357 O   0  0  0  0  0  0  0  0  0  0  0  0
    7.8374   -0.7939    1.7911 O   0  0  0  0  0  0  0  0  0  0  0  0
    5.5125    0.3057    0.9951 C   0  0  0  0  0  0  0  0  0  0  0  0
    5.6230   -0.2637   -0.2564 C   0  0  0  0  0  0  0  0  0  0  0  0
    4.8085    0.1548   -1.2879 C   0  0  0  0  0  0  0  0  0  0  0  0
    3.8486    1.1552   -1.1270 C   0  0  0  0  0  0  0  0  0  0  0  0
    2.8417    1.6579   -2.4637 S   0  0  0  0  0  6  0  0  0  0  0  0
    3.6109    1.5493   -3.7748 O   0  0  0  0  0  0  0  0  0  0  0  0
    2.5192    3.1264   -2.3197 O   0  0  0  0  0  0  0  0  0  0  0  0
    1.4467    0.7031   -2.6166 N   0  0  0  0  0  0  0  0  0  0  0  0
    0.6317    0.8049   -1.4501 C   0  0  2  0  0  0  0  0  0  0  0  0
    0.4854   -0.5168   -0.7205 C   0  0  0  0  0  0  0  0  0  0  0  0
   -0.9924   -0.8169   -0.6329 C   0  0  0  0  0  0  0  0  0  0  0  0
   -1.6703    0.0417   -1.6467 C   0  0  1  0  0  0  0  0  0  0  0  0
   -3.0433    0.5173   -1.2485 C   0  0  2  0  0  0  0  0  0  0  0  0
   -2.9619    1.2851   -0.0533 N   0  0  0  0  0  0  0  0  0  0  0  0
   -4.0323   -0.5737   -1.2068 C   0  0  0  0  0  0  0  0  0  0  0  0
   -4.2409   -1.3167   -2.2203 O   0  0  0  0  0  0  0  0  0  0  0  0
   -4.7658   -0.8013   -0.0182 N   0  0  0  0  0  0  0  0  0  0  0  0
   -5.7825   -1.8623    0.0933 C   0  0  0  0  0  0  0  0  0  0  0  0
   -6.7182   -1.2641    1.1523 C   0  0  0  0  0  0  0  0  0  0  0  0
   -5.6870   -0.7609    2.1327 C   0  0  0  0  0  0  0  0  0  0  0  0
   -4.6757   -0.0953    1.2361 C   0  0  0  0  0  0  0  0  0  0  0  0
   -0.7757    1.2520   -1.7866 C   0  0  0  0  0  0  0  0  0  0  0  0
    3.7397    1.7221    0.1209 C   0  0  0  0  0  0  0  0  0  0  0  0
    4.5677    1.2954    1.1666 C   0  0  0  0  0  0  0  0  0  0  0  0
    5.0935   -2.0931    2.3711 H   0  0  0  0  0  0  0  0  0  0  0  0
    6.4574   -2.1992    3.6016 H   0  0  0  0  0  0  0  0  0  0  0  0
    5.0477   -1.0768    3.9074 H   0  0  0  0  0  0  0  0  0  0  0  0
    6.3645   -1.0540   -0.4291 H   0  0  0  0  0  0  0  0  0  0  0  0
    4.8714   -0.2734   -2.2827 H   0  0  0  0  0  0  0  0  0  0  0  0
    1.5902   -0.2294   -3.0043 H   0  0  0  0  0  0  0  0  0  0  0  0
    1.1213    1.4930   -0.7339 H   0  0  0  0  0  0  0  0  0  0  0  0
    0.9668   -1.3429   -1.2999 H   0  0  0  0  0  0  0  0  0  0  0  0
    0.9492   -0.5063    0.2872 H   0  0  0  0  0  0  0  0  0  0  0  0
   -1.3439   -0.6619    0.3943 H   0  0  0  0  0  0  0  0  0  0  0  0
   -1.1664   -1.9103   -0.8462 H   0  0  0  0  0  0  0  0  0  0  0  0
   -1.6871   -0.4466   -2.6586 H   0  0  0  0  0  0  0  0  0  0  0  0
   -3.3738    1.1876   -2.0994 H   0  0  0  0  0  0  0  0  0  0  0  0
   -2.0905    1.2314    0.4804 H   0  0  0  0  0  0  0  0  0  0  0  0
   -3.3880    2.2307   -0.1273 H   0  0  0  0  0  0  0  0  0  0  0  0
   -5.3109   -2.7395    0.5596 H   0  0  0  0  0  0  0  0  0  0  0  0
   -6.2908   -2.0493   -0.8529 H   0  0  0  0  0  0  0  0  0  0  0  0
   -7.2068   -0.4075    0.6791 H   0  0  0  0  0  0  0  0  0  0  0  0
   -7.3948   -2.0204    1.5673 H   0  0  0  0  0  0  0  0  0  0  0  0
   -6.1323    0.0082    2.8276 H   0  0  0  0  0  0  0  0  0  0  0  0
   -5.2151   -1.5845    2.7060 H   0  0  0  0  0  0  0  0  0  0  0  0
   -3.6501   -0.1428    1.6703 H   0  0  0  0  0  0  0  0  0  0  0  0
   -5.0083    0.9776    1.1293 H   0  0  0  0  0  0  0  0  0  0  0  0
   -0.8347    1.6892   -2.8079 H   0  0  0  0  0  0  0  0  0  0  0  0
   -1.0817    2.0504   -1.0832 H   0  0  0  0  0  0  0  0  0  0  0  0
    3.0047    2.5141    0.3020 H   0  0  0  0  0  0  0  0  0  0  0  0
    4.4782    1.7404    2.1360 H   0  0  0  0  0  0  0  0  0  0  0  0
  1  2  1  0
  2  3  2  0
  2  4  2  0
  2  5  1  0
  5  6  2  0
  6  7  1  0
  7  8  2  0
  8  9  1  0
  9 10  2  0
  9 11  2  0
  9 12  1  0
 12 13  1  0
 13 14  1  0
 14 15  1  0
 15 16  1  0
 16 17  1  0
 17 18  1  0
 17 19  1  0
 19 20  2  0
 19 21  1  0
 21 22  1  0
 22 23  1  0
 23 24  1  0
 24 25  1  0
 16 26  1  0
  8 27  1  0
 27 28  2  0
 28  5  1  0
 26 13  1  0
 25 21  1  0
  1 29  1  0
  1 30  1  0
  1 31  1  0
  6 32  1  0
  7 33  1  0
 12 34  1  0
 13 35  1  1
 14 36  1  0
 14 37  1  0
 15 38  1  0
 15 39  1  0
 16 40  1  6
 17 41  1  6
 18 42  1  0
 18 43  1  0
 22 44  1  0
 22 45  1  0
 23 46  1  0
 23 47  1  0
 24 48  1  0
 24 49  1  0
 25 50  1  0
 25 51  1  0
 26 52  1  0
 26 53  1  0
 27 54  1  0
 28 55  1  0
M  END
$$$$
