@<TRIPOS>MOLECULE
*****
 55 57 0 0 0
SMALL
GASTEIGER

@<TRIPOS>ATOM
      1 C           5.6921   -1.5536    3.1307 C.3     1  UNL1        0.0596
      2 S           6.5453   -0.2251    2.3078 S.O2    1  UNL1       -0.0059
      3 O           6.8661    0.8889    3.2357 O.2     1  UNL1       -0.1696
      4 O           7.8374   -0.7939    1.7911 O.2     1  UNL1       -0.1696
      5 C           5.5125    0.3057    0.9951 C.ar    1  UNL1        0.0880
      6 C           5.6230   -0.2637   -0.2564 C.ar    1  UNL1       -0.0350
      7 C           4.8085    0.1548   -1.2879 C.ar    1  UNL1       -0.0336
      8 C           3.8486    1.1552   -1.1270 C.ar    1  UNL1        0.1054
      9 S           2.8417    1.6579   -2.4637 S.O2    1  UNL1        0.0586
     10 O           3.6109    1.5493   -3.7748 O.2     1  UNL1       -0.1530
     11 O           2.5192    3.1264   -2.3197 O.2     1  UNL1       -0.1530
     12 N           1.4467    0.7031   -2.6166 N.3     1  UNL1       -0.1869
     13 C           0.6317    0.8049   -1.4501 C.3     1  UNL1        0.0292
     14 C           0.4854   -0.5168   -0.7205 C.3     1  UNL1       -0.0356
     15 C          -0.9924   -0.8169   -0.6329 C.3     1  UNL1       -0.0468
     16 C          -1.6703    0.0417   -1.6467 C.3     1  UNL1       -0.0158
     17 C          -3.0433    0.5173   -1.2485 C.3     1  UNL1        0.0854
     18 N          -2.9619    1.2851   -0.0533 N.3     1  UNL1       -0.3197
     19 C          -4.0323   -0.5737   -1.2068 C.2     1  UNL1        0.2327
     20 O          -4.2409   -1.3167   -2.2203 O.2     1  UNL1       -0.2739
     21 N          -4.7658   -0.8013   -0.0182 N.am    1  UNL1       -0.3002
     22 C          -5.7825   -1.8623    0.0933 C.3     1  UNL1        0.0148
     23 C          -6.7182   -1.2641    1.1523 C.3     1  UNL1       -0.0357
     24 C          -5.6870   -0.7609    2.1327 C.3     1  UNL1       -0.0357
     25 C          -4.6757   -0.0953    1.2361 C.3     1  UNL1        0.0148
     26 C          -0.7757    1.2520   -1.7866 C.3     1  UNL1       -0.0312
     27 C           3.7397    1.7221    0.1209 C.ar    1  UNL1       -0.0336
     28 C           4.5677    1.2954    1.1666 C.ar    1  UNL1       -0.0350
     29 H           5.0935   -2.0931    2.3711 H       1  UNL1        0.0468
     30 H           6.4574   -2.1992    3.6016 H       1  UNL1        0.0468
     31 H           5.0477   -1.0768    3.9074 H       1  UNL1        0.0468
     32 H           6.3645   -1.0540   -0.4291 H       1  UNL1        0.0637
     33 H           4.8714   -0.2734   -2.2827 H       1  UNL1        0.0638
     34 H           1.5902   -0.2294   -3.0043 H       1  UNL1        0.1483
     35 H           1.1213    1.4930   -0.7339 H       1  UNL1        0.0477
     36 H           0.9668   -1.3429   -1.2999 H       1  UNL1        0.0281
     37 H           0.9492   -0.5063    0.2872 H       1  UNL1        0.0281
     38 H          -1.3439   -0.6619    0.3943 H       1  UNL1        0.0269
     39 H          -1.1664   -1.9103   -0.8462 H       1  UNL1        0.0269
     40 H          -1.6871   -0.4466   -2.6586 H       1  UNL1        0.0321
     41 H          -3.3738    1.1876   -2.0994 H       1  UNL1        0.0557
     42 H          -2.0905    1.2314    0.4804 H       1  UNL1        0.1189
     43 H          -3.3880    2.2307   -0.1273 H       1  UNL1        0.1189
     44 H          -5.3109   -2.7395    0.5596 H       1  UNL1        0.0464
     45 H          -6.2908   -2.0493   -0.8529 H       1  UNL1        0.0464
     46 H          -7.2068   -0.4075    0.6791 H       1  UNL1        0.0281
     47 H          -7.3948   -2.0204    1.5673 H       1  UNL1        0.0281
     48 H          -6.1323    0.0082    2.8276 H       1  UNL1        0.0281
     49 H          -5.2151   -1.5845    2.7060 H       1  UNL1        0.0281
     50 H          -3.6501   -0.1428    1.6703 H       1  UNL1        0.0464
     51 H          -5.0083    0.9776    1.1293 H       1  UNL1        0.0464
     52 H          -0.8347    1.6892   -2.8079 H       1  UNL1        0.0284
     53 H          -1.0817    2.0504   -1.0832 H       1  UNL1        0.0284
     54 H           3.0047    2.5141    0.3020 H       1  UNL1        0.0638
     55 H           4.4782    1.7404    2.1360 H       1  UNL1        0.0637
@<TRIPOS>BOND
     1     1     2    1
     2     2     3    2
     3     2     4    2
     4     2     5    1
     5     5     6   ar
     6     6     7   ar
     7     7     8   ar
     8     8     9    1
     9     9    10    2
    10     9    11    2
    11     9    12    1
    12    12    13    1
    13    13    14    1
    14    14    15    1
    15    15    16    1
    16    16    17    1
    17    17    18    1
    18    17    19    1
    19    19    20    2
    20    19    21   am
    21    21    22    1
    22    22    23    1
    23    23    24    1
    24    24    25    1
    25    16    26    1
    26     8    27   ar
    27    27    28   ar
    28    28     5   ar
    29    26    13    1
    30    25    21    1
    31     1    29    1
    32     1    30    1
    33     1    31    1
    34     6    32    1
    35     7    33    1
    36    12    34    1
    37    13    35    1
    38    14    36    1
    39    14    37    1
    40    15    38    1
    41    15    39    1
    42    16    40    1
    43    17    41    1
    44    18    42    1
    45    18    43    1
    46    22    44    1
    47    22    45    1
    48    23    46    1
    49    23    47    1
    50    24    48    1
    51    24    49    1
    52    25    50    1
    53    25    51    1
    54    26    52    1
    55    26    53    1
    56    27    54    1
    57    28    55    1
