@<TRIPOS>MOLECULE
*****
 45 47 0 0 0
SMALL
GASTEIGER

@<TRIPOS>ATOM
      1 C          -4.8567   -1.2660    0.1944 C.3     1  UNL1       -0.0603
      2 C          -3.4976   -0.9205    0.7235 C.3     1  UNL1       -0.0189
      3 C          -3.6598   -0.1627    2.0223 C.3     1  UNL1       -0.0603
      4 C          -2.6500   -0.1688   -0.2680 C.3     1  UNL1        0.0767
      5 C          -1.3179    0.0876    0.4342 C.3     1  UNL1        0.0414
      6 N          -0.5288    0.9448   -0.4730 N.pl3   1  UNL1       -0.2962
      7 C           0.7242    0.4423   -0.8520 C.ar    1  UNL1        0.2013
      8 N           1.6862    0.2274    0.0745 N.ar    1  UNL1       -0.2154
      9 C           2.9221   -0.2578   -0.2330 C.ar    1  UNL1        0.0825
     10 C           3.8855   -0.4672    0.8424 C.ar    1  UNL1        0.0387
     11 C           5.1448   -0.9205    0.6210 C.ar    1  UNL1       -0.0316
     12 C           6.0175   -1.1078    1.6975 C.ar    1  UNL1        0.0284
     13 N           5.6354   -0.8458    2.9703 N.ar    1  UNL1       -0.2604
     14 C           4.3867   -0.3924    3.2226 C.ar    1  UNL1        0.0634
     15 C           3.5190   -0.2055    2.1595 C.ar    1  UNL1        0.1505
     16 F           2.2549    0.2494    2.3931 F       1  UNL1       -0.2032
     17 C           3.2052   -0.5397   -1.5315 C.ar    1  UNL1        0.0292
     18 C           2.2544   -0.3326   -2.4815 C.ar    1  UNL1        0.2555
     19 O           2.4994   -0.5900   -3.6913 O.2     1  UNL1       -0.2675
     20 N           1.0319    0.1546   -2.1238 N.ar    1  UNL1       -0.2839
     21 C           0.0420    0.3724   -3.1495 C.3     1  UNL1        0.0178
     22 C          -1.1659    2.1600   -0.8257 C.3     1  UNL1        0.0384
     23 C          -2.5310    1.8651   -1.3756 C.3     1  UNL1        0.0638
     24 O          -3.2373    1.0702   -0.4960 O.3     1  UNL1       -0.3732
     25 H          -4.7558   -1.9389   -0.6817 H       1  UNL1        0.0233
     26 H          -5.4069   -1.8489    0.9604 H       1  UNL1        0.0233
     27 H          -5.4145   -0.3466   -0.0182 H       1  UNL1        0.0233
     28 H          -2.9662   -1.8661    0.9699 H       1  UNL1        0.0321
     29 H          -3.5585    0.9158    1.7855 H       1  UNL1        0.0233
     30 H          -4.6315   -0.4210    2.4821 H       1  UNL1        0.0233
     31 H          -2.8759   -0.4111    2.7712 H       1  UNL1        0.0233
     32 H          -2.5283   -0.7883   -1.1611 H       1  UNL1        0.0614
     33 H          -0.7949   -0.8076    0.7461 H       1  UNL1        0.0490
     34 H          -1.5793    0.7713    1.2908 H       1  UNL1        0.0490
     35 H           5.5243   -1.1494   -0.3412 H       1  UNL1        0.0640
     36 H           7.0274   -1.4663    1.5615 H       1  UNL1        0.0830
     37 H           4.1086   -0.1934    4.2463 H       1  UNL1        0.0859
     38 H           4.1906   -0.9316   -1.8031 H       1  UNL1        0.0693
     39 H          -0.8663   -0.2218   -3.0117 H       1  UNL1        0.0458
     40 H          -0.1405    1.4590   -3.3144 H       1  UNL1        0.0458
     41 H           0.4610    0.0262   -4.1410 H       1  UNL1        0.0458
     42 H          -1.3543    2.7165    0.1445 H       1  UNL1        0.0487
     43 H          -0.5839    2.8638   -1.4307 H       1  UNL1        0.0487
     44 H          -2.5197    1.3976   -2.3879 H       1  UNL1        0.0575
     45 H          -3.0996    2.8443   -1.4158 H       1  UNL1        0.0575
@<TRIPOS>BOND
     1     1     2    1
     2     2     3    1
     3     2     4    1
     4     4     5    1
     5     5     6    1
     6     6     7    1
     7     7     8   ar
     8     8     9   ar
     9     9    10    1
    10    10    11   ar
    11    11    12   ar
    12    12    13   ar
    13    13    14   ar
    14    14    15   ar
    15    15    16    1
    16     9    17   ar
    17    17    18   ar
    18    18    19    2
    19    18    20   ar
    20    20    21    1
    21     6    22    1
    22    22    23    1
    23    23    24    1
    24    24     4    1
    25    20     7   ar
    26    15    10   ar
    27     1    25    1
    28     1    26    1
    29     1    27    1
    30     2    28    1
    31     3    29    1
    32     3    30    1
    33     3    31    1
    34     4    32    1
    35     5    33    1
    36     5    34    1
    37    11    35    1
    38    12    36    1
    39    14    37    1
    40    17    38    1
    41    21    39    1
    42    21    40    1
    43    21    41    1
    44    22    42    1
    45    22    43    1
    46    23    44    1
    47    23    45    1
