@<TRIPOS>MOLECULE
*****
 51 54 0 0 0
SMALL
GASTEIGER

@<TRIPOS>ATOM
      1 C          -6.0505    1.8165    2.0181 C.3     1  UNL1        0.0029
      2 N          -5.0408    1.3979    1.0732 N.am    1  UNL1       -0.3064
      3 C          -4.5496    2.3552    0.1187 C.3     1  UNL1        0.0029
      4 C          -4.5491    0.0866    1.1042 C.2     1  UNL1        0.2319
      5 O          -5.0203   -0.6793    1.9947 O.2     1  UNL1       -0.2741
      6 C          -3.5380   -0.4618    0.1870 C.3     1  UNL1        0.1054
      7 C          -3.1676   -1.9429    0.4899 C.3     1  UNL1       -0.0220
      8 C          -2.1891   -0.8586    0.5337 C.3     1  UNL1        0.0134
      9 C          -1.1329   -0.6686   -0.4963 C.3     1  UNL1        0.0935
     10 C          -0.9103    0.8480   -0.6039 C.3     1  UNL1       -0.0351
     11 C           0.1653   -1.2795   -0.1387 C.ar    1  UNL1        0.0158
     12 C           1.2629   -0.5020    0.1151 C.ar    1  UNL1       -0.0463
     13 C           2.4978   -1.0270    0.4426 C.ar    1  UNL1       -0.0217
     14 C           3.6071   -0.0865    0.7158 C.2     1  UNL1       -0.0171
     15 C           4.7902   -0.2848    0.2275 C.2     1  UNL1        0.1506
     16 F           4.9850   -1.3940   -0.5509 F       1  UNL1       -0.2032
     17 C           5.8797    0.6397    0.4957 C.ar    1  UNL1        0.1170
     18 C           5.7717    1.7341    1.2955 C.ar    1  UNL1        0.0570
     19 N           6.8193    2.5958    1.5029 N.ar    1  UNL1       -0.2445
     20 C           8.0086    2.3869    0.9156 C.ar    1  UNL1        0.1243
     21 BR          9.4740    3.6003    1.2030 Br      1  UNL1       -0.0271
     22 C           8.1269    1.2858    0.1081 C.ar    1  UNL1        0.0607
     23 N           7.1086    0.4393   -0.0996 N.ar    1  UNL1       -0.2485
     24 C           2.6843   -2.3671    0.5291 C.ar    1  UNL1       -0.0518
     25 C           1.5888   -3.2069    0.2777 C.ar    1  UNL1       -0.0255
     26 C           0.3541   -2.6450   -0.0502 C.ar    1  UNL1        0.1289
     27 F          -0.6617   -3.5148   -0.2769 F       1  UNL1       -0.2051
     28 N          -1.4469   -1.2005   -1.8172 N.2     1  UNL1       -0.2521
     29 C          -2.5504   -1.0564   -2.4281 C.2     1  UNL1        0.1485
     30 N          -2.7698   -1.5992   -3.6957 N.pl3   1  UNL1       -0.3380
     31 S          -3.8252   -0.1385   -1.5985 S.3     1  UNL1       -0.0746
     32 H          -5.8379    1.5222    3.0544 H       1  UNL1        0.0428
     33 H          -6.2296    2.9291    1.9868 H       1  UNL1        0.0428
     34 H          -7.0528    1.3651    1.7767 H       1  UNL1        0.0428
     35 H          -3.4864    2.6390    0.2602 H       1  UNL1        0.0428
     36 H          -5.0981    3.3440    0.2220 H       1  UNL1        0.0428
     37 H          -4.7745    2.0814   -0.9532 H       1  UNL1        0.0428
     38 H          -3.2979   -2.6235   -0.3469 H       1  UNL1        0.0287
     39 H          -3.5275   -2.3472    1.4593 H       1  UNL1        0.0287
     40 H          -1.8396   -0.5407    1.5550 H       1  UNL1        0.0346
     41 H          -0.1435    1.0982   -1.3600 H       1  UNL1        0.0256
     42 H          -1.8414    1.3526   -0.9391 H       1  UNL1        0.0256
     43 H          -0.6797    1.2766    0.3871 H       1  UNL1        0.0256
     44 H           1.1935    0.5896    0.0656 H       1  UNL1        0.0628
     45 H           3.4029    0.7717    1.3331 H       1  UNL1        0.0653
     46 H           4.8223    1.9533    1.8083 H       1  UNL1        0.0852
     47 H           9.0878    1.1132   -0.3670 H       1  UNL1        0.0857
     48 H           3.6301   -2.8284    0.7792 H       1  UNL1        0.0624
     49 H           1.7322   -4.2772    0.3478 H       1  UNL1        0.0646
     50 H          -2.2423   -1.3744   -4.5698 H       1  UNL1        0.1442
     51 H          -3.5395   -2.3172   -3.8359 H       1  UNL1        0.1442
@<TRIPOS>BOND
     1     1     2    1
     2     2     3    1
     3     2     4   am
     4     4     5    2
     5     6     4    1
     6     6     7    1
     7     7     8    1
     8     8     9    1
     9     9    10    1
    10     9    11    1
    11    11    12   ar
    12    12    13   ar
    13    13    14    1
    14    14    15    2
    15    15    16    1
    16    15    17    1
    17    17    18   ar
    18    18    19   ar
    19    19    20   ar
    20    20    21    1
    21    20    22   ar
    22    22    23   ar
    23    13    24   ar
    24    24    25   ar
    25    25    26   ar
    26    26    27    1
    27     9    28    1
    28    28    29    2
    29    29    30    1
    30    29    31    1
    31     8     6    1
    32    26    11   ar
    33    31     6    1
    34    23    17   ar
    35     1    32    1
    36     1    33    1
    37     1    34    1
    38     3    35    1
    39     3    36    1
    40     3    37    1
    41     7    38    1
    42     7    39    1
    43     8    40    1
    44    10    41    1
    45    10    42    1
    46    10    43    1
    47    12    44    1
    48    14    45    1
    49    18    46    1
    50    22    47    1
    51    24    48    1
    52    25    49    1
    53    30    50    1
    54    30    51    1
