
     RDKit          3D

 51 54  0  0  0  0  0  0  0  0999 V2000
   -6.0505    1.8165    2.0181 C   0  0  0  0  0  0  0  0  0  0  0  0
   -5.0408    1.3979    1.0732 N   0  0  0  0  0  0  0  0  0  0  0  0
   -4.5496    2.3552    0.1187 C   0  0  0  0  0  0  0  0  0  0  0  0
   -4.5491    0.0866    1.1042 C   0  0  0  0  0  0  0  0  0  0  0  0
   -5.0203   -0.6793    1.9947 O   0  0  0  0  0  0  0  0  0  0  0  0
   -3.5380   -0.4618    0.1870 C   0  0  2  0  0  0  0  0  0  0  0  0
   -3.1676   -1.9429    0.4899 C   0  0  0  0  0  0  0  0  0  0  0  0
   -2.1891   -0.8586    0.5337 C   0  0  1  0  0  0  0  0  0  0  0  0
   -1.1329   -0.6686   -0.4963 C   0  0  1  0  0  0  0  0  0  0  0  0
   -0.9103    0.8480   -0.6039 C   0  0  0  0  0  0  0  0  0  0  0  0
    0.1653   -1.2795   -0.1387 C   0  0  0  0  0  0  0  0  0  0  0  0
    1.2629   -0.5020    0.1151 C   0  0  0  0  0  0  0  0  0  0  0  0
    2.4978   -1.0270    0.4426 C   0  0  0  0  0  0  0  0  0  0  0  0
    3.6071   -0.0865    0.7158 C   0  0  0  0  0  0  0  0  0  0  0  0
    4.7902   -0.2848    0.2275 C   0  0  0  0  0  0  0  0  0  0  0  0
    4.9850   -1.3940   -0.5509 F   0  0  0  0  0  0  0  0  0  0  0  0
    5.8797    0.6397    0.4957 C   0  0  0  0  0  0  0  0  0  0  0  0
    5.7717    1.7341    1.2955 C   0  0  0  0  0  0  0  0  0  0  0  0
    6.8193    2.5958    1.5029 N   0  0  0  0  0  0  0  0  0  0  0  0
    8.0086    2.3869    0.9156 C   0  0  0  0  0  0  0  0  0  0  0  0
    9.4740    3.6003    1.2030 Br  0  0  0  0  0  0  0  0  0  0  0  0
    8.1269    1.2858    0.1081 C   0  0  0  0  0  0  0  0  0  0  0  0
    7.1086    0.4393   -0.0996 N   0  0  0  0  0  0  0  0  0  0  0  0
    2.6843   -2.3671    0.5291 C   0  0  0  0  0  0  0  0  0  0  0  0
    1.5888   -3.2069    0.2777 C   0  0  0  0  0  0  0  0  0  0  0  0
    0.3541   -2.6450   -0.0502 C   0  0  0  0  0  0  0  0  0  0  0  0
   -0.6617   -3.5148   -0.2769 F   0  0  0  0  0  0  0  0  0  0  0  0
   -1.4469   -1.2005   -1.8172 N   0  0  0  0  0  0  0  0  0  0  0  0
   -2.5504   -1.0564   -2.4281 C   0  0  0  0  0  0  0  0  0  0  0  0
   -2.7698   -1.5992   -3.6957 N   0  0  0  0  0  0  0  0  0  0  0  0
   -3.8252   -0.1385   -1.5985 S   0  0  0  0  0  0  0  0  0  0  0  0
   -5.8379    1.5222    3.0544 H   0  0  0  0  0  0  0  0  0  0  0  0
   -6.2296    2.9291    1.9868 H   0  0  0  0  0  0  0  0  0  0  0  0
   -7.0528    1.3651    1.7767 H   0  0  0  0  0  0  0  0  0  0  0  0
   -3.4864    2.6390    0.2602 H   0  0  0  0  0  0  0  0  0  0  0  0
   -5.0981    3.3440    0.2220 H   0  0  0  0  0  0  0  0  0  0  0  0
   -4.7745    2.0814   -0.9532 H   0  0  0  0  0  0  0  0  0  0  0  0
   -3.2979   -2.6235   -0.3469 H   0  0  0  0  0  0  0  0  0  0  0  0
   -3.5275   -2.3472    1.4593 H   0  0  0  0  0  0  0  0  0  0  0  0
   -1.8396   -0.5407    1.5550 H   0  0  0  0  0  0  0  0  0  0  0  0
   -0.1435    1.0982   -1.3600 H   0  0  0  0  0  0  0  0  0  0  0  0
   -1.8414    1.3526   -0.9391 H   0  0  0  0  0  0  0  0  0  0  0  0
   -0.6797    1.2766    0.3871 H   0  0  0  0  0  0  0  0  0  0  0  0
    1.1935    0.5896    0.0656 H   0  0  0  0  0  0  0  0  0  0  0  0
    3.4029    0.7717    1.3331 H   0  0  0  0  0  0  0  0  0  0  0  0
    4.8223    1.9533    1.8083 H   0  0  0  0  0  0  0  0  0  0  0  0
    9.0878    1.1132   -0.3670 H   0  0  0  0  0  0  0  0  0  0  0  0
    3.6301   -2.8284    0.7792 H   0  0  0  0  0  0  0  0  0  0  0  0
    1.7322   -4.2772    0.3478 H   0  0  0  0  0  0  0  0  0  0  0  0
   -2.2423   -1.3744   -4.5698 H   0  0  0  0  0  0  0  0  0  0  0  0
   -3.5395   -2.3172   -3.8359 H   0  0  0  0  0  0  0  0  0  0  0  0
  1  2  1  0
  2  3  1  0
  2  4  1  0
  4  5  2  0
  6  4  1  1
  6  7  1  0
  7  8  1  0
  8  9  1  0
  9 10  1  6
  9 11  1  0
 11 12  2  0
 12 13  1  0
 13 14  1  0
 14 15  2  0
 15 16  1  0
 15 17  1  0
 17 18  2  0
 18 19  1  0
 19 20  2  0
 20 21  1  0
 20 22  1  0
 22 23  2  0
 13 24  2  0
 24 25  1  0
 25 26  2  0
 26 27  1  0
  9 28  1  0
 28 29  2  0
 29 30  1  0
 29 31  1  0
  8  6  1  0
 26 11  1  0
 31  6  1  0
 23 17  1  0
  1 32  1  0
  1 33  1  0
  1 34  1  0
  3 35  1  0
  3 36  1  0
  3 37  1  0
  7 38  1  0
  7 39  1  0
  8 40  1  1
 10 41  1  0
 10 42  1  0
 10 43  1  0
 12 44  1  0
 14 45  1  0
 18 46  1  0
 22 47  1  0
 24 48  1  0
 25 49  1  0
 30 50  1  0
 30 51  1  0
M  END
$$$$
