@<TRIPOS>MOLECULE
*****
 50 52 0 0 0
SMALL
GASTEIGER

@<TRIPOS>ATOM
      1 C           1.6717   -2.1068    1.5889 C.3     1  UNL1       -0.0449
      2 C           1.9924   -2.2740    0.1362 C.3     1  UNL1        0.0393
      3 C           3.4932   -2.2389   -0.1314 C.3     1  UNL1        0.0362
      4 N           3.9421   -0.9301   -0.4858 N.am    1  UNL1       -0.2642
      5 C           5.1257   -0.4237    0.1084 C.2     1  UNL1        0.4032
      6 O           5.8033   -1.0812    0.9418 O.2     1  UNL1       -0.2263
      7 O           5.5795    0.8229   -0.2118 O.3     1  UNL1       -0.4412
      8 C           6.7040    1.4833    0.2630 C.3     1  UNL1        0.1886
      9 C           6.7576    1.7338    1.7303 C.3     1  UNL1        0.4237
     10 F           5.6872    2.5120    2.1549 F       1  UNL1       -0.1671
     11 F           6.9455    0.6174    2.5063 F       1  UNL1       -0.1671
     12 F           7.8858    2.5382    1.9560 F       1  UNL1       -0.1671
     13 C           3.2294   -0.1150   -1.4214 C.3     1  UNL1        0.0337
     14 C           1.9839   -0.8354   -1.8735 C.3     1  UNL1        0.0311
     15 N           1.3071   -1.3439   -0.7182 N.pl3   1  UNL1       -0.2939
     16 C          -0.0083   -0.9386   -0.4217 C.ar    1  UNL1        0.2183
     17 N          -0.6722   -0.0563   -1.2121 N.ar    1  UNL1       -0.2191
     18 C          -1.9223    0.3214   -0.9169 C.ar    1  UNL1        0.0743
     19 C          -2.5903   -0.1571    0.1862 C.ar    1  UNL1        0.1571
     20 O          -3.8661    0.2260    0.4915 O.3     1  UNL1       -0.4843
     21 C          -4.5331    1.1464   -0.3477 C.3     1  UNL1        0.1161
     22 C          -5.8770    1.3642    0.2379 C.ar    1  UNL1        0.0099
     23 C          -6.1212    2.5297    0.9263 C.ar    1  UNL1       -0.0360
     24 C          -7.3679    2.7374    1.4755 C.ar    1  UNL1        0.0280
     25 N          -8.2975    1.7848    1.3131 N.ar    1  UNL1       -0.2620
     26 C          -8.0823    0.6353    0.6431 C.ar    1  UNL1        0.0453
     27 C          -6.8336    0.4046    0.0813 C.ar    1  UNL1        0.0762
     28 C          -6.5955   -0.8234   -0.6384 C.1     1  UNL1        0.1011
     29 N          -6.3937   -1.8130   -1.2091 N.1     1  UNL1       -0.1908
     30 C          -1.9061   -1.0506    0.9786 C.ar    1  UNL1        0.0743
     31 N          -0.6723   -1.4054    0.6621 N.ar    1  UNL1       -0.2191
     32 H           0.8306   -2.7899    1.8849 H       1  UNL1        0.0248
     33 H           1.4338   -1.0508    1.7962 H       1  UNL1        0.0248
     34 H           2.5305   -2.3953    2.2317 H       1  UNL1        0.0248
     35 H           1.6572   -3.2992   -0.1577 H       1  UNL1        0.0513
     36 H           3.9731   -2.5481    0.8148 H       1  UNL1        0.0484
     37 H           3.7644   -3.0017   -0.9013 H       1  UNL1        0.0484
     38 H           6.7224    2.4958   -0.2383 H       1  UNL1        0.0789
     39 H           7.6637    1.0119   -0.0337 H       1  UNL1        0.0789
     40 H           2.8779    0.8136   -0.8965 H       1  UNL1        0.0481
     41 H           3.8492    0.1742   -2.3001 H       1  UNL1        0.0481
     42 H           1.3293   -0.1651   -2.4867 H       1  UNL1        0.0480
     43 H           2.2488   -1.7378   -2.5005 H       1  UNL1        0.0480
     44 H          -2.4181    1.0303   -1.5770 H       1  UNL1        0.0869
     45 H          -3.9690    2.1168   -0.3828 H       1  UNL1        0.0748
     46 H          -4.6111    0.7063   -1.3659 H       1  UNL1        0.0748
     47 H          -5.3904    3.3083    1.0694 H       1  UNL1        0.0637
     48 H          -7.6094    3.6281    2.0209 H       1  UNL1        0.0829
     49 H          -8.8653   -0.0940    0.5439 H       1  UNL1        0.0843
     50 H          -2.3869   -1.4675    1.8730 H       1  UNL1        0.0869
@<TRIPOS>BOND
     1     1     2    1
     2     2     3    1
     3     3     4    1
     4     4     5   am
     5     5     6    2
     6     5     7    1
     7     7     8    1
     8     8     9    1
     9     9    10    1
    10     9    11    1
    11     9    12    1
    12     4    13    1
    13    13    14    1
    14    14    15    1
    15    15    16    1
    16    16    17   ar
    17    17    18   ar
    18    18    19   ar
    19    19    20    1
    20    20    21    1
    21    21    22    1
    22    22    23   ar
    23    23    24   ar
    24    24    25   ar
    25    25    26   ar
    26    26    27   ar
    27    27    28    1
    28    28    29    3
    29    19    30   ar
    30    30    31   ar
    31    15     2    1
    32    31    16   ar
    33    27    22   ar
    34     1    32    1
    35     1    33    1
    36     1    34    1
    37     2    35    1
    38     3    36    1
    39     3    37    1
    40     8    38    1
    41     8    39    1
    42    13    40    1
    43    13    41    1
    44    14    42    1
    45    14    43    1
    46    18    44    1
    47    21    45    1
    48    21    46    1
    49    23    47    1
    50    24    48    1
    51    26    49    1
    52    30    50    1
