@<TRIPOS>MOLECULE
*****
 61 62 0 0 0
SMALL
GASTEIGER

@<TRIPOS>ATOM
      1 C           0.1873    3.6924    1.1518 C.3     1  UNL1       -0.0572
      2 C          -0.7729    2.6552    1.6736 C.3     1  UNL1       -0.0035
      3 C          -0.1788    1.7625    2.7381 C.3     1  UNL1       -0.0572
      4 C          -1.4646    1.8913    0.6054 C.ar    1  UNL1        0.0566
      5 N          -2.7454    2.1711    0.3101 N.ar    1  UNL1       -0.2172
      6 C          -3.4777    1.5370   -0.6128 C.ar    1  UNL1        0.2377
      7 N          -2.8613    0.5494   -1.2832 N.ar    1  UNL1       -0.2125
      8 C          -1.5780    0.1939   -1.0618 C.ar    1  UNL1        0.0835
      9 C          -1.2530   -0.8559   -1.9775 C.ar    1  UNL1        0.0013
     10 C          -2.0547   -2.0097   -1.9965 C.ar    1  UNL1       -0.0498
     11 C          -1.9427   -3.1064   -2.8429 C.ar    1  UNL1       -0.0258
     12 C          -0.9165   -3.0150   -3.7537 C.ar    1  UNL1        0.1234
     13 F          -0.7544   -4.0627   -4.6141 F       1  UNL1       -0.2055
     14 C          -0.0589   -1.9425   -3.8427 C.ar    1  UNL1       -0.0258
     15 C          -0.2737   -0.9242   -2.9517 C.ar    1  UNL1       -0.0498
     16 C          -0.8685    0.8664   -0.1080 C.ar    1  UNL1        0.0224
     17 C           0.4849    0.5261    0.1339 C.2     1  UNL1       -0.0523
     18 C           1.3766   -0.3812   -0.1001 C.2     1  UNL1       -0.0551
     19 C           2.7856   -0.5630    0.2451 C.3     1  UNL1        0.0760
     20 O           3.3092    0.4144    1.0853 O.3     1  UNL1       -0.3877
     21 C           3.1095   -1.9142    0.7852 C.3     1  UNL1        0.0034
     22 C           4.5809   -1.9764    1.1073 C.3     1  UNL1        0.0679
     23 O           4.9495   -3.2202    1.6169 O.3     1  UNL1       -0.3912
     24 C           5.4419   -1.5441   -0.0545 C.3     1  UNL1        0.0708
     25 C           6.8743   -1.6530    0.3767 C.2     1  UNL1        0.3072
     26 O           7.8839   -1.3699   -0.3285 O.2     1  UNL1       -0.2509
     27 O           7.9269   -1.9155    1.2051 O.3     1  UNL1       -0.4806
     28 N          -4.8094    1.9994   -0.7555 N.pl3   1  UNL1       -0.1777
     29 C          -4.7907    3.0583   -1.7671 C.3     1  UNL1        0.0261
     30 S          -5.9195    1.1745    0.2766 S.O2    1  UNL1        0.0446
     31 C          -5.8891   -0.5497   -0.1875 C.3     1  UNL1        0.0739
     32 O          -7.3251    1.6662   -0.0072 O.2     1  UNL1       -0.1552
     33 O          -5.5449    1.3760    1.7171 O.2     1  UNL1       -0.1552
     34 H          -0.2521    4.7110    1.1692 H       1  UNL1        0.0236
     35 H           0.4887    3.5063    0.1014 H       1  UNL1        0.0236
     36 H           1.0592    3.7415    1.8358 H       1  UNL1        0.0236
     37 H          -1.5924    3.2389    2.2072 H       1  UNL1        0.0359
     38 H          -0.3416    0.6755    2.5214 H       1  UNL1        0.0236
     39 H          -0.6861    1.8933    3.7423 H       1  UNL1        0.0236
     40 H           0.8814    2.0129    2.9516 H       1  UNL1        0.0236
     41 H          -2.8712   -2.0611   -1.2579 H       1  UNL1        0.0625
     42 H          -2.6323   -3.9247   -2.7423 H       1  UNL1        0.0646
     43 H           0.7453   -1.8710   -4.5570 H       1  UNL1        0.0646
     44 H           0.3719   -0.0529   -2.9769 H       1  UNL1        0.0625
     45 H           1.0739    1.2626    0.7086 H       1  UNL1        0.0622
     46 H           0.9527   -1.2013   -0.6435 H       1  UNL1        0.0598
     47 H           3.3516   -0.4778   -0.7324 H       1  UNL1        0.0638
     48 H           3.1972    0.2312    2.0430 H       1  UNL1        0.2102
     49 H           2.5549   -2.1680    1.7098 H       1  UNL1        0.0318
     50 H           2.8806   -2.6490   -0.0313 H       1  UNL1        0.0318
     51 H           4.7386   -1.1840    1.8988 H       1  UNL1        0.0599
     52 H           5.9471   -3.1717    1.7383 H       1  UNL1        0.2098
     53 H           5.2947   -0.4420   -0.1988 H       1  UNL1        0.0403
     54 H           5.2961   -2.1160   -0.9704 H       1  UNL1        0.0403
     55 H           8.0290   -1.5667    2.1423 H       1  UNL1        0.2951
     56 H          -4.0681    3.8404   -1.4987 H       1  UNL1        0.0447
     57 H          -4.4804    2.5875   -2.7266 H       1  UNL1        0.0447
     58 H          -5.8024    3.4686   -1.8796 H       1  UNL1        0.0447
     59 H          -5.9145   -1.1486    0.7515 H       1  UNL1        0.0482
     60 H          -4.9312   -0.8306   -0.6987 H       1  UNL1        0.0482
     61 H          -6.7216   -0.8347   -0.8402 H       1  UNL1        0.0482
@<TRIPOS>BOND
     1     1     2    1
     2     2     3    1
     3     2     4    1
     4     4     5   ar
     5     5     6   ar
     6     6     7   ar
     7     7     8   ar
     8     8     9    1
     9     9    10   ar
    10    10    11   ar
    11    11    12   ar
    12    12    13    1
    13    12    14   ar
    14    14    15   ar
    15     8    16   ar
    16    16    17    1
    17    17    18    2
    18    18    19    1
    19    19    20    1
    20    19    21    1
    21    21    22    1
    22    22    23    1
    23    22    24    1
    24    24    25    1
    25    25    26    2
    26    25    27    1
    27     6    28    1
    28    28    29    1
    29    28    30    1
    30    30    31    1
    31    30    32    2
    32    30    33    2
    33    16     4   ar
    34    15     9   ar
    35     1    34    1
    36     1    35    1
    37     1    36    1
    38     2    37    1
    39     3    38    1
    40     3    39    1
    41     3    40    1
    42    10    41    1
    43    11    42    1
    44    14    43    1
    45    15    44    1
    46    17    45    1
    47    18    46    1
    48    19    47    1
    49    20    48    1
    50    21    49    1
    51    21    50    1
    52    22    51    1
    53    23    52    1
    54    24    53    1
    55    24    54    1
    56    27    55    1
    57    29    56    1
    58    29    57    1
    59    29    58    1
    60    31    59    1
    61    31    60    1
    62    31    61    1
