
     RDKit          3D

 61 62  0  0  0  0  0  0  0  0999 V2000
    0.1873    3.6924    1.1518 C   0  0  0  0  0  0  0  0  0  0  0  0
   -0.7729    2.6552    1.6736 C   0  0  0  0  0  0  0  0  0  0  0  0
   -0.1788    1.7625    2.7381 C   0  0  0  0  0  0  0  0  0  0  0  0
   -1.4646    1.8913    0.6054 C   0  0  0  0  0  0  0  0  0  0  0  0
   -2.7454    2.1711    0.3101 N   0  0  0  0  0  0  0  0  0  0  0  0
   -3.4777    1.5370   -0.6128 C   0  0  0  0  0  0  0  0  0  0  0  0
   -2.8613    0.5494   -1.2832 N   0  0  0  0  0  0  0  0  0  0  0  0
   -1.5780    0.1939   -1.0618 C   0  0  0  0  0  0  0  0  0  0  0  0
   -1.2530   -0.8559   -1.9775 C   0  0  0  0  0  0  0  0  0  0  0  0
   -2.0547   -2.0097   -1.9965 C   0  0  0  0  0  0  0  0  0  0  0  0
   -1.9427   -3.1064   -2.8429 C   0  0  0  0  0  0  0  0  0  0  0  0
   -0.9165   -3.0150   -3.7537 C   0  0  0  0  0  0  0  0  0  0  0  0
   -0.7544   -4.0627   -4.6141 F   0  0  0  0  0  0  0  0  0  0  0  0
   -0.0589   -1.9425   -3.8427 C   0  0  0  0  0  0  0  0  0  0  0  0
   -0.2737   -0.9242   -2.9517 C   0  0  0  0  0  0  0  0  0  0  0  0
   -0.8685    0.8664   -0.1080 C   0  0  0  0  0  0  0  0  0  0  0  0
    0.4849    0.5261    0.1339 C   0  0  0  0  0  0  0  0  0  0  0  0
    1.3766   -0.3812   -0.1001 C   0  0  0  0  0  0  0  0  0  0  0  0
    2.7856   -0.5630    0.2451 C   0  0  1  0  0  0  0  0  0  0  0  0
    3.3092    0.4144    1.0853 O   0  0  0  0  0  0  0  0  0  0  0  0
    3.1095   -1.9142    0.7852 C   0  0  0  0  0  0  0  0  0  0  0  0
    4.5809   -1.9764    1.1073 C   0  0  1  0  0  0  0  0  0  0  0  0
    4.9495   -3.2202    1.6169 O   0  0  0  0  0  0  0  0  0  0  0  0
    5.4419   -1.5441   -0.0545 C   0  0  0  0  0  0  0  0  0  0  0  0
    6.8743   -1.6530    0.3767 C   0  0  0  0  0  0  0  0  0  0  0  0
    7.8839   -1.3699   -0.3285 O   0  0  0  0  0  0  0  0  0  0  0  0
    7.9269   -1.9155    1.2051 O   0  0  0  0  0  0  0  0  0  0  0  0
   -4.8094    1.9994   -0.7555 N   0  0  0  0  0  0  0  0  0  0  0  0
   -4.7907    3.0583   -1.7671 C   0  0  0  0  0  0  0  0  0  0  0  0
   -5.9195    1.1745    0.2766 S   0  0  0  0  0  0  0  0  0  0  0  0
   -5.8891   -0.5497   -0.1875 C   0  0  0  0  0  0  0  0  0  0  0  0
   -7.3251    1.6662   -0.0072 O   0  0  0  0  0  0  0  0  0  0  0  0
   -5.5449    1.3760    1.7171 O   0  0  0  0  0  0  0  0  0  0  0  0
   -0.2521    4.7110    1.1692 H   0  0  0  0  0  0  0  0  0  0  0  0
    0.4887    3.5063    0.1014 H   0  0  0  0  0  0  0  0  0  0  0  0
    1.0592    3.7415    1.8358 H   0  0  0  0  0  0  0  0  0  0  0  0
   -1.5924    3.2389    2.2072 H   0  0  0  0  0  0  0  0  0  0  0  0
   -0.3416    0.6755    2.5214 H   0  0  0  0  0  0  0  0  0  0  0  0
   -0.6861    1.8933    3.7423 H   0  0  0  0  0  0  0  0  0  0  0  0
    0.8814    2.0129    2.9516 H   0  0  0  0  0  0  0  0  0  0  0  0
   -2.8712   -2.0611   -1.2579 H   0  0  0  0  0  0  0  0  0  0  0  0
   -2.6323   -3.9247   -2.7423 H   0  0  0  0  0  0  0  0  0  0  0  0
    0.7453   -1.8710   -4.5570 H   0  0  0  0  0  0  0  0  0  0  0  0
    0.3719   -0.0529   -2.9769 H   0  0  0  0  0  0  0  0  0  0  0  0
    1.0739    1.2626    0.7086 H   0  0  0  0  0  0  0  0  0  0  0  0
    0.9527   -1.2013   -0.6435 H   0  0  0  0  0  0  0  0  0  0  0  0
    3.3516   -0.4778   -0.7324 H   0  0  0  0  0  0  0  0  0  0  0  0
    3.1972    0.2312    2.0430 H   0  0  0  0  0  0  0  0  0  0  0  0
    2.5549   -2.1680    1.7098 H   0  0  0  0  0  0  0  0  0  0  0  0
    2.8806   -2.6490   -0.0313 H   0  0  0  0  0  0  0  0  0  0  0  0
    4.7386   -1.1840    1.8988 H   0  0  0  0  0  0  0  0  0  0  0  0
    5.9471   -3.1717    1.7383 H   0  0  0  0  0  0  0  0  0  0  0  0
    5.2947   -0.4420   -0.1988 H   0  0  0  0  0  0  0  0  0  0  0  0
    5.2961   -2.1160   -0.9704 H   0  0  0  0  0  0  0  0  0  0  0  0
    8.0290   -1.5667    2.1423 H   0  0  0  0  0  0  0  0  0  0  0  0
   -4.0681    3.8404   -1.4987 H   0  0  0  0  0  0  0  0  0  0  0  0
   -4.4804    2.5875   -2.7266 H   0  0  0  0  0  0  0  0  0  0  0  0
   -5.8024    3.4686   -1.8796 H   0  0  0  0  0  0  0  0  0  0  0  0
   -5.9145   -1.1486    0.7515 H   0  0  0  0  0  0  0  0  0  0  0  0
   -4.9312   -0.8306   -0.6987 H   0  0  0  0  0  0  0  0  0  0  0  0
   -6.7216   -0.8347   -0.8402 H   0  0  0  0  0  0  0  0  0  0  0  0
  1  2  1  0
  2  3  1  0
  2  4  1  0
  4  5  2  0
  5  6  1  0
  6  7  2  0
  7  8  1  0
  8  9  1  0
  9 10  2  0
 10 11  1  0
 11 12  2  0
 12 13  1  0
 12 14  1  0
 14 15  2  0
  8 16  2  0
 16 17  1  0
 17 18  2  0
 18 19  1  0
 19 20  1  0
 19 21  1  0
 21 22  1  0
 22 23  1  0
 22 24  1  0
 24 25  1  0
 25 26  2  0
 25 27  1  0
  6 28  1  0
 28 29  1  0
 28 30  1  0
 30 31  1  0
 30 32  2  0
 30 33  2  0
 16  4  1  0
 15  9  1  0
  1 34  1  0
  1 35  1  0
  1 36  1  0
  2 37  1  0
  3 38  1  0
  3 39  1  0
  3 40  1  0
 10 41  1  0
 11 42  1  0
 14 43  1  0
 15 44  1  0
 17 45  1  0
 18 46  1  0
 19 47  1  6
 20 48  1  0
 21 49  1  0
 21 50  1  0
 22 51  1  1
 23 52  1  0
 24 53  1  0
 24 54  1  0
 27 55  1  0
 29 56  1  0
 29 57  1  0
 29 58  1  0
 31 59  1  0
 31 60  1  0
 31 61  1  0
M  END
$$$$
