@<TRIPOS>MOLECULE
*****
 62 64 0 0 0
SMALL
GASTEIGER

@<TRIPOS>ATOM
      1 C           1.5362   -0.6446   -1.3556 C.3     1  UNL1       -0.0311
      2 C           2.0316   -2.0478   -1.4366 C.3     1  UNL1       -0.0232
      3 C           0.8847   -2.8900   -0.9763 C.3     1  UNL1        0.0586
      4 O           1.3048   -3.7125    0.0727 O.3     1  UNL1       -0.3915
      5 C          -0.1990   -1.9161   -0.4634 C.3     1  UNL1       -0.0115
      6 C          -1.2467   -1.7509   -1.5094 C.3     1  UNL1       -0.0453
      7 C          -2.3428   -0.8133   -1.1405 C.3     1  UNL1       -0.0265
      8 C          -3.1295   -1.1795    0.0726 C.3     1  UNL1        0.0553
      9 O          -2.3059   -1.2216    1.1802 O.3     1  UNL1       -0.3918
     10 C          -4.2349   -0.1879    0.3816 C.3     1  UNL1       -0.0269
     11 C          -5.2337   -0.0561   -0.7096 C.3     1  UNL1       -0.0507
     12 C          -6.3417    0.9294   -0.3718 C.3     1  UNL1       -0.0532
     13 C          -5.8164    2.3036   -0.1136 C.3     1  UNL1       -0.0559
     14 C          -7.0078    3.2081    0.2143 C.3     1  UNL1       -0.0653
     15 C           0.5428   -0.6275   -0.2245 C.3     1  UNL1       -0.0287
     16 C           1.1953   -0.7488    1.1322 C.3     1  UNL1       -0.0239
     17 C           2.6115   -0.3068    1.1045 C.ar    1  UNL1       -0.0404
     18 C           3.3613    0.2201    0.0845 C.ar    1  UNL1       -0.0022
     19 C           2.6377    0.3669   -1.1812 C.3     1  UNL1       -0.0208
     20 C           4.6812    0.5657    0.2868 C.ar    1  UNL1        0.1247
     21 O           5.2768    1.0790   -0.8502 O.3     1  UNL1       -0.4805
     22 C           6.5855    1.5247   -0.9865 C.3     1  UNL1        0.1857
     23 C           6.7838    2.6717   -0.0280 C.2     1  UNL1        0.3427
     24 O           8.0823    3.1582   -0.0917 O.3     1  UNL1       -0.4783
     25 O           5.9861    3.2372    0.7912 O.2     1  UNL1       -0.2472
     26 C           5.2423    0.3746    1.5319 C.ar    1  UNL1       -0.0196
     27 C           4.5292   -0.1514    2.5875 C.ar    1  UNL1       -0.0580
     28 C           3.1920   -0.4956    2.3628 C.ar    1  UNL1       -0.0581
     29 H           0.9996   -0.3905   -2.2834 H       1  UNL1        0.0308
     30 H           2.2511   -2.3369   -2.5000 H       1  UNL1        0.0293
     31 H           2.9391   -2.1985   -0.8208 H       1  UNL1        0.0293
     32 H           0.4362   -3.5092   -1.7815 H       1  UNL1        0.0596
     33 H           0.5367   -4.2408    0.3566 H       1  UNL1        0.2098
     34 H          -0.6168   -2.3816    0.4512 H       1  UNL1        0.0328
     35 H          -1.6822   -2.7457   -1.8083 H       1  UNL1        0.0270
     36 H          -0.7993   -1.3300   -2.4696 H       1  UNL1        0.0270
     37 H          -3.0845   -0.7382   -1.9892 H       1  UNL1        0.0290
     38 H          -1.9478    0.2478   -1.0553 H       1  UNL1        0.0290
     39 H          -3.5507   -2.1976   -0.1186 H       1  UNL1        0.0593
     40 H          -2.6700   -1.7761    1.9208 H       1  UNL1        0.2098
     41 H          -4.7711   -0.4525    1.3077 H       1  UNL1        0.0290
     42 H          -3.7284    0.8032    0.5100 H       1  UNL1        0.0290
     43 H          -5.6807   -1.0448   -0.9301 H       1  UNL1        0.0266
     44 H          -4.7228    0.3105   -1.6288 H       1  UNL1        0.0266
     45 H          -6.8984    0.5584    0.5059 H       1  UNL1        0.0265
     46 H          -7.0322    0.9714   -1.2412 H       1  UNL1        0.0265
     47 H          -5.1656    2.3438    0.7696 H       1  UNL1        0.0263
     48 H          -5.3402    2.7202   -1.0225 H       1  UNL1        0.0263
     49 H          -7.6754    3.3136   -0.6520 H       1  UNL1        0.0230
     50 H          -6.5883    4.2085    0.4463 H       1  UNL1        0.0230
     51 H          -7.5111    2.7741    1.0964 H       1  UNL1        0.0230
     52 H          -0.0764    0.2560   -0.3328 H       1  UNL1        0.0310
     53 H           0.6590   -0.0275    1.7913 H       1  UNL1        0.0316
     54 H           1.0639   -1.7347    1.6103 H       1  UNL1        0.0316
     55 H           3.3698    0.1754   -2.0053 H       1  UNL1        0.0317
     56 H           2.2965    1.4017   -1.2855 H       1  UNL1        0.0317
     57 H           7.3491    0.7488   -0.8479 H       1  UNL1        0.0815
     58 H           6.6642    1.9891   -1.9998 H       1  UNL1        0.0815
     59 H           8.3385    3.9088    0.5394 H       1  UNL1        0.2952
     60 H           6.2783    0.6600    1.6252 H       1  UNL1        0.0654
     61 H           5.0293   -0.2746    3.5363 H       1  UNL1        0.0619
     62 H           2.7239   -0.9009    3.2620 H       1  UNL1        0.0620
@<TRIPOS>BOND
     1     1     2    1
     2     2     3    1
     3     3     4    1
     4     3     5    1
     5     5     6    1
     6     6     7    1
     7     7     8    1
     8     8     9    1
     9     8    10    1
    10    10    11    1
    11    11    12    1
    12    12    13    1
    13    13    14    1
    14     5    15    1
    15    15    16    1
    16    16    17    1
    17    17    18   ar
    18    18    19    1
    19    18    20   ar
    20    20    21    1
    21    21    22    1
    22    22    23    1
    23    23    24    1
    24    23    25    2
    25    20    26   ar
    26    26    27   ar
    27    27    28   ar
    28    15     1    1
    29    28    17   ar
    30    19     1    1
    31     1    29    1
    32     2    30    1
    33     2    31    1
    34     3    32    1
    35     4    33    1
    36     5    34    1
    37     6    35    1
    38     6    36    1
    39     7    37    1
    40     7    38    1
    41     8    39    1
    42     9    40    1
    43    10    41    1
    44    10    42    1
    45    11    43    1
    46    11    44    1
    47    12    45    1
    48    12    46    1
    49    13    47    1
    50    13    48    1
    51    14    49    1
    52    14    50    1
    53    14    51    1
    54    15    52    1
    55    16    53    1
    56    16    54    1
    57    19    55    1
    58    19    56    1
    59    22    57    1
    60    22    58    1
    61    24    59    1
    62    26    60    1
    63    27    61    1
    64    28    62    1
