
     RDKit          3D

 60 62  0  0  0  0  0  0  0  0999 V2000
    8.4794   -1.8011    0.9200 C   0  0  0  0  0  0  0  0  0  0  0  0
    7.6422   -0.9175    0.1503 N   0  0  0  0  0  0  0  0  0  0  0  0
    8.2106    0.0122   -0.7874 C   0  0  0  0  0  0  0  0  0  0  0  0
    6.2234   -0.9828    0.3415 C   0  0  0  0  0  0  0  0  0  0  0  0
    5.9771   -1.8535    1.2011 O   0  0  0  0  0  0  0  0  0  0  0  0
    5.3070   -0.1585   -0.3676 N   0  0  0  0  0  0  0  0  0  0  0  0
    3.8962   -0.1288   -0.2645 C   0  0  1  0  0  0  0  0  0  0  0  0
    3.5383    1.2535    0.2612 C   0  0  0  0  0  0  0  0  0  0  0  0
    2.0985    1.1742    0.7016 C   0  0  0  0  0  0  0  0  0  0  0  0
    1.2206    0.9272   -0.4996 C   0  0  2  0  0  0  0  0  0  0  0  0
   -0.1901    0.7812    0.0023 C   0  0  0  0  0  0  0  0  0  0  0  0
   -1.2065    0.5287   -1.0561 C   0  0  0  0  0  0  0  0  0  0  0  0
   -2.5329    0.3927   -0.5821 N   0  0  0  0  0  0  0  0  0  0  0  0
   -3.1461    1.5424   -0.0595 C   0  0  0  0  0  0  0  0  0  0  0  0
   -4.5219    1.4314    0.4551 C   0  0  0  0  0  0  0  0  0  0  0  0
   -4.8844    0.0497    0.7054 N   0  0  0  0  0  0  0  0  0  0  0  0
   -3.8100   -0.8718    1.1060 C   0  0  0  0  0  0  0  0  0  0  0  0
   -2.8211   -0.8658   -0.0148 C   0  0  0  0  0  0  0  0  0  0  0  0
   -6.2448   -0.3167    0.5504 C   0  0  0  0  0  0  0  0  0  0  0  0
   -6.9888   -0.1963   -0.5931 C   0  0  0  0  0  0  0  0  0  0  0  0
   -6.2000    0.4746   -2.0118 Cl  0  0  0  0  0  0  0  0  0  0  0  0
   -8.3269   -0.5918   -0.6348 C   0  0  0  0  0  0  0  0  0  0  0  0
   -9.1468   -0.3760   -2.1625 Cl  0  0  0  0  0  0  0  0  0  0  0  0
   -8.9278   -1.1196    0.4992 C   0  0  0  0  0  0  0  0  0  0  0  0
   -8.1739   -1.2384    1.6470 C   0  0  0  0  0  0  0  0  0  0  0  0
   -6.8465   -0.8462    1.6894 C   0  0  0  0  0  0  0  0  0  0  0  0
    1.6704   -0.1652   -1.3768 C   0  0  0  0  0  0  0  0  0  0  0  0
    3.1426   -0.3263   -1.5381 C   0  0  0  0  0  0  0  0  0  0  0  0
    9.4546   -1.2832    1.0948 H   0  0  0  0  0  0  0  0  0  0  0  0
    7.9582   -2.0043    1.8884 H   0  0  0  0  0  0  0  0  0  0  0  0
    8.7345   -2.7463    0.4133 H   0  0  0  0  0  0  0  0  0  0  0  0
    9.2793   -0.2703   -0.9533 H   0  0  0  0  0  0  0  0  0  0  0  0
    7.6520    0.0928   -1.7430 H   0  0  0  0  0  0  0  0  0  0  0  0
    8.1611    1.0429   -0.3285 H   0  0  0  0  0  0  0  0  0  0  0  0
    5.7182    0.5282   -1.0677 H   0  0  0  0  0  0  0  0  0  0  0  0
    3.5138   -0.8618    0.5041 H   0  0  0  0  0  0  0  0  0  0  0  0
    3.5642    1.9733   -0.5923 H   0  0  0  0  0  0  0  0  0  0  0  0
    4.2014    1.6066    1.0627 H   0  0  0  0  0  0  0  0  0  0  0  0
    2.0081    0.3034    1.3917 H   0  0  0  0  0  0  0  0  0  0  0  0
    1.7668    2.1161    1.1815 H   0  0  0  0  0  0  0  0  0  0  0  0
    1.2477    1.8826   -1.0866 H   0  0  0  0  0  0  0  0  0  0  0  0
   -0.2737   -0.0763    0.7338 H   0  0  0  0  0  0  0  0  0  0  0  0
   -0.5092    1.6635    0.6064 H   0  0  0  0  0  0  0  0  0  0  0  0
   -1.1795    1.3674   -1.7871 H   0  0  0  0  0  0  0  0  0  0  0  0
   -0.9503   -0.4447   -1.5722 H   0  0  0  0  0  0  0  0  0  0  0  0
   -3.1714    2.3089   -0.8931 H   0  0  0  0  0  0  0  0  0  0  0  0
   -2.4934    2.0128    0.7027 H   0  0  0  0  0  0  0  0  0  0  0  0
   -4.5914    1.9330    1.4613 H   0  0  0  0  0  0  0  0  0  0  0  0
   -5.2743    1.9580   -0.1633 H   0  0  0  0  0  0  0  0  0  0  0  0
   -4.1532   -1.8857    1.2911 H   0  0  0  0  0  0  0  0  0  0  0  0
   -3.3625   -0.4067    2.0269 H   0  0  0  0  0  0  0  0  0  0  0  0
   -1.8773   -1.3208    0.3574 H   0  0  0  0  0  0  0  0  0  0  0  0
   -3.1965   -1.5404   -0.8134 H   0  0  0  0  0  0  0  0  0  0  0  0
   -9.9632   -1.3995    0.3810 H   0  0  0  0  0  0  0  0  0  0  0  0
   -8.6798   -1.6564    2.5097 H   0  0  0  0  0  0  0  0  0  0  0  0
   -6.3774   -0.9950    2.6508 H   0  0  0  0  0  0  0  0  0  0  0  0
    1.2217   -0.0309   -2.3877 H   0  0  0  0  0  0  0  0  0  0  0  0
    1.2530   -1.1320   -1.0048 H   0  0  0  0  0  0  0  0  0  0  0  0
    3.5617    0.4024   -2.2783 H   0  0  0  0  0  0  0  0  0  0  0  0
    3.3187   -1.3866   -1.8680 H   0  0  0  0  0  0  0  0  0  0  0  0
  1  2  1  0
  2  3  1  0
  2  4  1  0
  4  5  2  0
  4  6  1  0
  6  7  1  0
  7  8  1  0
  8  9  1  0
  9 10  1  0
 10 11  1  0
 11 12  1  0
 12 13  1  0
 13 14  1  0
 14 15  1  0
 15 16  1  0
 16 17  1  0
 17 18  1  0
 16 19  1  0
 19 20  2  0
 20 21  1  0
 20 22  1  0
 22 23  1  0
 22 24  2  0
 24 25  1  0
 25 26  2  0
 10 27  1  0
 27 28  1  0
 28  7  1  0
 18 13  1  0
 26 19  1  0
  1 29  1  0
  1 30  1  0
  1 31  1  0
  3 32  1  0
  3 33  1  0
  3 34  1  0
  6 35  1  0
  7 36  1  1
  8 37  1  0
  8 38  1  0
  9 39  1  0
  9 40  1  0
 10 41  1  6
 11 42  1  0
 11 43  1  0
 12 44  1  0
 12 45  1  0
 14 46  1  0
 14 47  1  0
 15 48  1  0
 15 49  1  0
 17 50  1  0
 17 51  1  0
 18 52  1  0
 18 53  1  0
 24 54  1  0
 25 55  1  0
 26 56  1  0
 27 57  1  0
 27 58  1  0
 28 59  1  0
 28 60  1  0
M  END
$$$$
