
     RDKit          3D

 76 80  0  0  0  0  0  0  0  0999 V2000
   -5.1636    0.9274   -5.4769 C   0  0  0  0  0  0  0  0  0  0  0  0
   -5.1193    0.7063   -4.0047 C   0  0  0  0  0  0  0  0  0  0  0  0
   -5.2608    1.7462   -3.1097 C   0  0  0  0  0  0  0  0  0  0  0  0
   -5.2155    1.5099   -1.7354 C   0  0  0  0  0  0  0  0  0  0  0  0
   -5.0298    0.2428   -1.2252 C   0  0  0  0  0  0  0  0  0  0  0  0
   -4.9858    0.0085    0.1753 N   0  0  0  0  0  0  0  0  0  0  0  0
   -5.8055   -0.7839    0.8642 N   0  0  0  0  0  0  0  0  0  0  0  0
   -5.4775   -0.7704    2.1714 C   0  0  0  0  0  0  0  0  0  0  0  0
   -6.1637   -1.5283    3.2444 C   0  0  0  0  0  0  0  0  0  0  0  0
   -7.3051   -2.3448    2.7378 C   0  0  0  0  0  0  0  0  0  0  0  0
   -6.7158   -0.5484    4.2831 C   0  0  0  0  0  0  0  0  0  0  0  0
   -5.2023   -2.4459    3.9693 C   0  0  0  0  0  0  0  0  0  0  0  0
   -4.3967    0.0858    2.2468 C   0  0  0  0  0  0  0  0  0  0  0  0
   -4.0924    0.5712    0.9937 C   0  0  0  0  0  0  0  0  0  0  0  0
   -3.0411    1.4729    0.7196 N   0  0  0  0  0  0  0  0  0  0  0  0
   -1.7467    0.9704    0.4107 C   0  0  0  0  0  0  0  0  0  0  0  0
   -1.5817   -0.2657    0.3929 O   0  0  0  0  0  0  0  0  0  0  0  0
   -0.6366    1.7956    0.1230 N   0  0  0  0  0  0  0  0  0  0  0  0
    0.6600    1.2963   -0.1846 C   0  0  0  0  0  0  0  0  0  0  0  0
    1.1032    0.9987   -1.4375 C   0  0  0  0  0  0  0  0  0  0  0  0
    2.3882    0.5180   -1.6230 C   0  0  0  0  0  0  0  0  0  0  0  0
    3.2599    0.3225   -0.5736 C   0  0  0  0  0  0  0  0  0  0  0  0
    4.5543   -0.1558   -0.7074 O   0  0  0  0  0  0  0  0  0  0  0  0
    5.0074   -0.4608   -1.9879 C   0  0  0  0  0  0  0  0  0  0  0  0
    6.4038   -0.9729   -2.0856 C   0  0  0  0  0  0  0  0  0  0  0  0
    7.4301   -0.1203   -1.6180 N   0  0  0  0  0  0  0  0  0  0  0  0
    7.5079    0.1262   -0.2330 C   0  0  0  0  0  0  0  0  0  0  0  0
    8.7294   -0.3693    0.4697 C   0  0  0  0  0  0  0  0  0  0  0  0
    9.8860   -0.0677   -0.2436 O   0  0  0  0  0  0  0  0  0  0  0  0
    9.7933   -0.8329   -1.4271 C   0  0  0  0  0  0  0  0  0  0  0  0
    8.6920   -0.2289   -2.2588 C   0  0  0  0  0  0  0  0  0  0  0  0
    2.8192    0.6214    0.6976 C   0  0  0  0  0  0  0  0  0  0  0  0
    3.6575    0.4447    1.8035 C   0  0  0  0  0  0  0  0  0  0  0  0
    3.2457    0.7354    3.0885 C   0  0  0  0  0  0  0  0  0  0  0  0
    1.9688    1.2114    3.2591 C   0  0  0  0  0  0  0  0  0  0  0  0
    1.1408    1.3861    2.1695 C   0  0  0  0  0  0  0  0  0  0  0  0
    1.5332    1.1017    0.8774 C   0  0  0  0  0  0  0  0  0  0  0  0
   -4.8876   -0.8021   -2.1147 C   0  0  0  0  0  0  0  0  0  0  0  0
   -4.9340   -0.5572   -3.4817 C   0  0  0  0  0  0  0  0  0  0  0  0
   -4.2215    1.3637   -5.8680 H   0  0  0  0  0  0  0  0  0  0  0  0
   -6.0555    1.5159   -5.7761 H   0  0  0  0  0  0  0  0  0  0  0  0
   -5.2556   -0.0758   -5.9665 H   0  0  0  0  0  0  0  0  0  0  0  0
   -5.4068    2.7426   -3.4935 H   0  0  0  0  0  0  0  0  0  0  0  0
   -5.3256    2.3196   -1.0396 H   0  0  0  0  0  0  0  0  0  0  0  0
   -7.1609   -2.5837    1.6839 H   0  0  0  0  0  0  0  0  0  0  0  0
   -7.4730   -3.2524    3.3730 H   0  0  0  0  0  0  0  0  0  0  0  0
   -8.2617   -1.7497    2.8254 H   0  0  0  0  0  0  0  0  0  0  0  0
   -6.9816    0.3992    3.7314 H   0  0  0  0  0  0  0  0  0  0  0  0
   -7.6241   -0.9622    4.7297 H   0  0  0  0  0  0  0  0  0  0  0  0
   -5.9651   -0.3294    5.0646 H   0  0  0  0  0  0  0  0  0  0  0  0
   -4.2388   -1.9213    4.1771 H   0  0  0  0  0  0  0  0  0  0  0  0
   -5.0208   -3.3376    3.3317 H   0  0  0  0  0  0  0  0  0  0  0  0
   -5.6785   -2.7229    4.9261 H   0  0  0  0  0  0  0  0  0  0  0  0
   -3.9039    0.3014    3.1915 H   0  0  0  0  0  0  0  0  0  0  0  0
   -3.1507    2.5122    0.7275 H   0  0  0  0  0  0  0  0  0  0  0  0
   -0.8122    2.8391    0.1459 H   0  0  0  0  0  0  0  0  0  0  0  0
    0.4432    1.1423   -2.2723 H   0  0  0  0  0  0  0  0  0  0  0  0
    2.7322    0.2829   -2.6330 H   0  0  0  0  0  0  0  0  0  0  0  0
    4.8587    0.4694   -2.6025 H   0  0  0  0  0  0  0  0  0  0  0  0
    4.2904   -1.2048   -2.4199 H   0  0  0  0  0  0  0  0  0  0  0  0
    6.5910   -1.1643   -3.1818 H   0  0  0  0  0  0  0  0  0  0  0  0
    6.4362   -1.9998   -1.6363 H   0  0  0  0  0  0  0  0  0  0  0  0
    7.3566    1.1992    0.0182 H   0  0  0  0  0  0  0  0  0  0  0  0
    6.6305   -0.3924    0.2596 H   0  0  0  0  0  0  0  0  0  0  0  0
    8.6769   -1.4668    0.6995 H   0  0  0  0  0  0  0  0  0  0  0  0
    8.7414    0.1210    1.4824 H   0  0  0  0  0  0  0  0  0  0  0  0
   10.7374   -0.7136   -1.9966 H   0  0  0  0  0  0  0  0  0  0  0  0
    9.5850   -1.8654   -1.1185 H   0  0  0  0  0  0  0  0  0  0  0  0
    9.0506    0.7926   -2.5601 H   0  0  0  0  0  0  0  0  0  0  0  0
    8.6053   -0.8843   -3.1633 H   0  0  0  0  0  0  0  0  0  0  0  0
    4.6728    0.0616    1.6225 H   0  0  0  0  0  0  0  0  0  0  0  0
    3.9409    0.5772    3.9010 H   0  0  0  0  0  0  0  0  0  0  0  0
    1.6101    1.4506    4.2518 H   0  0  0  0  0  0  0  0  0  0  0  0
    0.1226    1.7680    2.3282 H   0  0  0  0  0  0  0  0  0  0  0  0
   -4.7409   -1.8068   -1.7297 H   0  0  0  0  0  0  0  0  0  0  0  0
   -4.8233   -1.3746   -4.1823 H   0  0  0  0  0  0  0  0  0  0  0  0
  1  2  1  0
  2  3  2  0
  3  4  1  0
  4  5  2  0
  5  6  1  0
  6  7  1  0
  7  8  2  0
  8  9  1  0
  9 10  1  0
  9 11  1  0
  9 12  1  0
  8 13  1  0
 13 14  2  0
 14 15  1  0
 15 16  1  0
 16 17  2  0
 16 18  1  0
 18 19  1  0
 19 20  2  0
 20 21  1  0
 21 22  2  0
 22 23  1  0
 23 24  1  0
 24 25  1  0
 25 26  1  0
 26 27  1  0
 27 28  1  0
 28 29  1  0
 29 30  1  0
 30 31  1  0
 22 32  1  0
 32 33  2  0
 33 34  1  0
 34 35  2  0
 35 36  1  0
 36 37  2  0
  5 38  1  0
 38 39  2  0
 39  2  1  0
 14  6  1  0
 37 19  1  0
 31 26  1  0
 37 32  1  0
  1 40  1  0
  1 41  1  0
  1 42  1  0
  3 43  1  0
  4 44  1  0
 10 45  1  0
 10 46  1  0
 10 47  1  0
 11 48  1  0
 11 49  1  0
 11 50  1  0
 12 51  1  0
 12 52  1  0
 12 53  1  0
 13 54  1  0
 15 55  1  0
 18 56  1  0
 20 57  1  0
 21 58  1  0
 24 59  1  0
 24 60  1  0
 25 61  1  0
 25 62  1  0
 27 63  1  0
 27 64  1  0
 28 65  1  0
 28 66  1  0
 30 67  1  0
 30 68  1  0
 31 69  1  0
 31 70  1  0
 33 71  1  0
 34 72  1  0
 35 73  1  0
 36 74  1  0
 38 75  1  0
 39 76  1  0
M  END
$$$$
