@<TRIPOS>MOLECULE
*****
 76 80 0 0 0
SMALL
GASTEIGER

@<TRIPOS>ATOM
      1 C          -5.1636    0.9274   -5.4769 C.3     1  UNL1       -0.0397
      2 C          -5.1193    0.7063   -4.0047 C.ar    1  UNL1       -0.0503
      3 C          -5.2608    1.7462   -3.1097 C.ar    1  UNL1       -0.0568
      4 C          -5.2155    1.5099   -1.7354 C.ar    1  UNL1       -0.0359
      5 C          -5.0298    0.2428   -1.2252 C.ar    1  UNL1        0.0674
      6 N          -4.9858    0.0085    0.1753 N.ar    1  UNL1       -0.2181
      7 N          -5.8055   -0.7839    0.8642 N.ar    1  UNL1       -0.1691
      8 C          -5.4775   -0.7704    2.1714 C.ar    1  UNL1        0.0706
      9 C          -6.1637   -1.5283    3.2444 C.3     1  UNL1        0.0063
     10 C          -7.3051   -2.3448    2.7378 C.3     1  UNL1       -0.0546
     11 C          -6.7158   -0.5484    4.2831 C.3     1  UNL1       -0.0546
     12 C          -5.2023   -2.4459    3.9693 C.3     1  UNL1       -0.0546
     13 C          -4.3967    0.0858    2.2468 C.ar    1  UNL1        0.0021
     14 C          -4.0924    0.5712    0.9937 C.ar    1  UNL1        0.1299
     15 N          -3.0411    1.4729    0.7196 N.am    1  UNL1       -0.2538
     16 C          -1.7467    0.9704    0.4107 C.2     1  UNL1        0.3092
     17 O          -1.5817   -0.2657    0.3929 O.2     1  UNL1       -0.2521
     18 N          -0.6366    1.7956    0.1230 N.am    1  UNL1       -0.2686
     19 C           0.6600    1.2963   -0.1846 C.ar    1  UNL1        0.0427
     20 C           1.1032    0.9987   -1.4375 C.ar    1  UNL1       -0.0364
     21 C           2.3882    0.5180   -1.6230 C.ar    1  UNL1       -0.0176
     22 C           3.2599    0.3225   -0.5736 C.ar    1  UNL1        0.1283
     23 O           4.5543   -0.1558   -0.7074 O.3     1  UNL1       -0.4901
     24 C           5.0074   -0.4608   -1.9879 C.3     1  UNL1        0.1023
     25 C           6.4038   -0.9729   -2.0856 C.3     1  UNL1        0.0333
     26 N           7.4301   -0.1203   -1.6180 N.3     1  UNL1       -0.2948
     27 C           7.5079    0.1262   -0.2330 C.3     1  UNL1        0.0225
     28 C           8.7294   -0.3693    0.4697 C.3     1  UNL1        0.0604
     29 O           9.8860   -0.0677   -0.2436 O.3     1  UNL1       -0.3772
     30 C           9.7933   -0.8329   -1.4271 C.3     1  UNL1        0.0604
     31 C           8.6920   -0.2289   -2.2588 C.3     1  UNL1        0.0225
     32 C           2.8192    0.6214    0.6976 C.ar    1  UNL1        0.0256
     33 C           3.6575    0.4447    1.8035 C.ar    1  UNL1       -0.0505
     34 C           3.2457    0.7354    3.0885 C.ar    1  UNL1       -0.0611
     35 C           1.9688    1.2114    3.2591 C.ar    1  UNL1       -0.0611
     36 C           1.1408    1.3861    2.1695 C.ar    1  UNL1       -0.0521
     37 C           1.5332    1.1017    0.8774 C.ar    1  UNL1        0.0069
     38 C          -4.8876   -0.8021   -2.1147 C.ar    1  UNL1       -0.0359
     39 C          -4.9340   -0.5572   -3.4817 C.ar    1  UNL1       -0.0568
     40 H          -4.2215    1.3637   -5.8680 H       1  UNL1        0.0278
     41 H          -6.0555    1.5159   -5.7761 H       1  UNL1        0.0278
     42 H          -5.2556   -0.0758   -5.9665 H       1  UNL1        0.0278
     43 H          -5.4068    2.7426   -3.4935 H       1  UNL1        0.0621
     44 H          -5.3256    2.3196   -1.0396 H       1  UNL1        0.0639
     45 H          -7.1609   -2.5837    1.6839 H       1  UNL1        0.0239
     46 H          -7.4730   -3.2524    3.3730 H       1  UNL1        0.0239
     47 H          -8.2617   -1.7497    2.8254 H       1  UNL1        0.0239
     48 H          -6.9816    0.3992    3.7314 H       1  UNL1        0.0239
     49 H          -7.6241   -0.9622    4.7297 H       1  UNL1        0.0239
     50 H          -5.9651   -0.3294    5.0646 H       1  UNL1        0.0239
     51 H          -4.2388   -1.9213    4.1771 H       1  UNL1        0.0239
     52 H          -5.0208   -3.3376    3.3317 H       1  UNL1        0.0239
     53 H          -5.6785   -2.7229    4.9261 H       1  UNL1        0.0239
     54 H          -3.9039    0.3014    3.1915 H       1  UNL1        0.0671
     55 H          -3.1507    2.5122    0.7275 H       1  UNL1        0.1578
     56 H          -0.8122    2.8391    0.1459 H       1  UNL1        0.1564
     57 H           0.4432    1.1423   -2.2723 H       1  UNL1        0.0637
     58 H           2.7322    0.2829   -2.6330 H       1  UNL1        0.0655
     59 H           4.8587    0.4694   -2.6025 H       1  UNL1        0.0709
     60 H           4.2904   -1.2048   -2.4199 H       1  UNL1        0.0709
     61 H           6.5910   -1.1643   -3.1818 H       1  UNL1        0.0460
     62 H           6.4362   -1.9998   -1.6363 H       1  UNL1        0.0460
     63 H           7.3566    1.1992    0.0182 H       1  UNL1        0.0449
     64 H           6.6305   -0.3924    0.2596 H       1  UNL1        0.0449
     65 H           8.6769   -1.4668    0.6995 H       1  UNL1        0.0572
     66 H           8.7414    0.1210    1.4824 H       1  UNL1        0.0572
     67 H          10.7374   -0.7136   -1.9966 H       1  UNL1        0.0572
     68 H           9.5850   -1.8654   -1.1185 H       1  UNL1        0.0572
     69 H           9.0506    0.7926   -2.5601 H       1  UNL1        0.0449
     70 H           8.6053   -0.8843   -3.1633 H       1  UNL1        0.0449
     71 H           4.6728    0.0616    1.6225 H       1  UNL1        0.0625
     72 H           3.9409    0.5772    3.9010 H       1  UNL1        0.0618
     73 H           1.6101    1.4506    4.2518 H       1  UNL1        0.0618
     74 H           0.1226    1.7680    2.3282 H       1  UNL1        0.0624
     75 H          -4.7409   -1.8068   -1.7297 H       1  UNL1        0.0639
     76 H          -4.8233   -1.3746   -4.1823 H       1  UNL1        0.0621
@<TRIPOS>BOND
     1     1     2    1
     2     2     3   ar
     3     3     4   ar
     4     4     5   ar
     5     5     6    1
     6     6     7   ar
     7     7     8   ar
     8     8     9    1
     9     9    10    1
    10     9    11    1
    11     9    12    1
    12     8    13   ar
    13    13    14   ar
    14    14    15    1
    15    15    16   am
    16    16    17    2
    17    16    18   am
    18    18    19    1
    19    19    20   ar
    20    20    21   ar
    21    21    22   ar
    22    22    23    1
    23    23    24    1
    24    24    25    1
    25    25    26    1
    26    26    27    1
    27    27    28    1
    28    28    29    1
    29    29    30    1
    30    30    31    1
    31    22    32   ar
    32    32    33   ar
    33    33    34   ar
    34    34    35   ar
    35    35    36   ar
    36    36    37   ar
    37     5    38   ar
    38    38    39   ar
    39    39     2   ar
    40    14     6   ar
    41    37    19   ar
    42    31    26    1
    43    37    32   ar
    44     1    40    1
    45     1    41    1
    46     1    42    1
    47     3    43    1
    48     4    44    1
    49    10    45    1
    50    10    46    1
    51    10    47    1
    52    11    48    1
    53    11    49    1
    54    11    50    1
    55    12    51    1
    56    12    52    1
    57    12    53    1
    58    13    54    1
    59    15    55    1
    60    18    56    1
    61    20    57    1
    62    21    58    1
    63    24    59    1
    64    24    60    1
    65    25    61    1
    66    25    62    1
    67    27    63    1
    68    27    64    1
    69    28    65    1
    70    28    66    1
    71    30    67    1
    72    30    68    1
    73    31    69    1
    74    31    70    1
    75    33    71    1
    76    34    72    1
    77    35    73    1
    78    36    74    1
    79    38    75    1
    80    39    76    1
