
     RDKit          3D

 22 22  0  0  0  0  0  0  0  0999 V2000
   -3.6665   -0.4634   -0.7862 C   0  0  0  0  0  0  0  0  0  0  0  0
   -3.2763   -0.0363    0.6043 C   0  0  0  0  0  0  0  0  0  0  0  0
   -1.9571    0.5024    0.6230 O   0  0  0  0  0  0  0  0  0  0  0  0
   -0.8518   -0.2437    0.2327 C   0  0  0  0  0  0  0  0  0  0  0  0
   -1.3856   -1.3379   -0.0719 O   0  0  0  0  0  0  0  0  0  0  0  0
    0.4837    0.2477    0.2333 N   0  0  0  0  0  0  0  0  0  0  0  0
    0.9606    1.4564    0.5838 C   0  0  0  0  0  0  0  0  0  0  0  0
    2.3098    1.3431    0.3777 C   0  0  0  0  0  0  0  0  0  0  0  0
    2.6303    0.1280   -0.0741 N   0  0  0  0  0  0  0  0  0  0  0  0
    3.9777   -0.3221   -0.3942 C   0  0  0  0  0  0  0  0  0  0  0  0
    1.4799   -0.5662   -0.1665 C   0  0  0  0  0  0  0  0  0  0  0  0
    1.4309   -2.1139   -0.6851 S   0  0  0  0  0  0  0  0  0  0  0  0
   -3.6986   -1.5704   -0.8929 H   0  0  0  0  0  0  0  0  0  0  0  0
   -4.6325    0.0045   -1.0371 H   0  0  0  0  0  0  0  0  0  0  0  0
   -2.9052   -0.0322   -1.4883 H   0  0  0  0  0  0  0  0  0  0  0  0
   -3.3853   -0.8812    1.2960 H   0  0  0  0  0  0  0  0  0  0  0  0
   -3.9582    0.7516    0.9827 H   0  0  0  0  0  0  0  0  0  0  0  0
    0.3599    2.2827    0.9385 H   0  0  0  0  0  0  0  0  0  0  0  0
    3.0382    2.1280    0.5532 H   0  0  0  0  0  0  0  0  0  0  0  0
    4.5297   -0.5884    0.5437 H   0  0  0  0  0  0  0  0  0  0  0  0
    4.5288    0.4982   -0.9169 H   0  0  0  0  0  0  0  0  0  0  0  0
    3.9875   -1.1869   -1.0599 H   0  0  0  0  0  0  0  0  0  0  0  0
  1  2  1  0
  2  3  1  0
  3  4  1  0
  4  5  2  0
  4  6  1  0
  6  7  1  0
  7  8  2  0
  8  9  1  0
  9 10  1  0
  9 11  1  0
 11 12  2  0
 11  6  1  0
  1 13  1  0
  1 14  1  0
  1 15  1  0
  2 16  1  0
  2 17  1  0
  7 18  1  0
  8 19  1  0
 10 20  1  0
 10 21  1  0
 10 22  1  0
M  END
$$$$
