@<TRIPOS>MOLECULE
*****
 22 22 0 0 0
SMALL
GASTEIGER

@<TRIPOS>ATOM
      1 C          -3.6665   -0.4634   -0.7862 C.3     1  UNL1       -0.0305
      2 C          -3.2763   -0.0363    0.6043 C.3     1  UNL1        0.0915
      3 O          -1.9571    0.5024    0.6230 O.3     1  UNL1       -0.4484
      4 C          -0.8518   -0.2437    0.2327 C.2     1  UNL1        0.4214
      5 O          -1.3856   -1.3379   -0.0719 O.2     1  UNL1       -0.2227
      6 N           0.4837    0.2477    0.2333 N.ar    1  UNL1       -0.2308
      7 C           0.9606    1.4564    0.5838 C.ar    1  UNL1        0.0342
      8 C           2.3098    1.3431    0.3777 C.ar    1  UNL1        0.0233
      9 N           2.6303    0.1280   -0.0741 N.ar    1  UNL1       -0.3290
     10 C           3.9777   -0.3221   -0.3942 C.3     1  UNL1        0.0137
     11 C           1.4799   -0.5662   -0.1665 C.ar    1  UNL1        0.1695
     12 S           1.4309   -2.1139   -0.6851 S.2     1  UNL1       -0.0122
     13 H          -3.6986   -1.5704   -0.8929 H       1  UNL1        0.0262
     14 H          -4.6325    0.0045   -1.0371 H       1  UNL1        0.0262
     15 H          -2.9052   -0.0322   -1.4883 H       1  UNL1        0.0262
     16 H          -3.3853   -0.8812    1.2960 H       1  UNL1        0.0695
     17 H          -3.9582    0.7516    0.9827 H       1  UNL1        0.0695
     18 H           0.3599    2.2827    0.9385 H       1  UNL1        0.0830
     19 H           3.0382    2.1280    0.5532 H       1  UNL1        0.0824
     20 H           4.5297   -0.5884    0.5437 H       1  UNL1        0.0456
     21 H           4.5288    0.4982   -0.9169 H       1  UNL1        0.0456
     22 H           3.9875   -1.1869   -1.0599 H       1  UNL1        0.0456
@<TRIPOS>BOND
     1     1     2    1
     2     2     3    1
     3     3     4    1
     4     4     5    2
     5     4     6   am
     6     6     7   ar
     7     7     8   ar
     8     8     9   ar
     9     9    10    1
    10     9    11   ar
    11    11    12    2
    12    11     6   ar
    13     1    13    1
    14     1    14    1
    15     1    15    1
    16     2    16    1
    17     2    17    1
    18     7    18    1
    19     8    19    1
    20    10    20    1
    21    10    21    1
    22    10    22    1
