
     RDKit          3D

 60 64  0  0  0  0  0  0  0  0999 V2000
   -0.5320   -2.0456    0.8593 O   0  0  0  0  0  0  0  0  0  0  0  0
    0.0234   -0.9792    0.4861 C   0  0  0  0  0  0  0  0  0  0  0  0
   -0.8062    0.1669    0.3847 N   0  0  0  0  0  0  0  0  0  0  0  0
   -2.2335    0.1385    0.6919 C   0  0  1  0  0  0  0  0  0  0  0  0
   -2.4710    1.2219    1.7232 C   0  0  0  0  0  0  0  0  0  0  0  0
   -2.2048    2.4674    0.9036 C   0  0  0  0  0  0  0  0  0  0  0  0
   -2.4914    2.1061   -0.5367 C   0  0  0  0  0  0  0  0  0  0  0  0
   -3.0345    0.6947   -0.4835 C   0  0  2  0  0  0  0  0  0  0  0  0
   -4.3605    0.6467   -0.1180 O   0  0  0  0  0  0  0  0  0  0  0  0
   -5.1665   -0.0869   -0.9440 C   0  0  0  0  0  0  0  0  0  0  0  0
   -6.5591   -0.0103   -0.3726 C   0  0  0  0  0  0  0  0  0  0  0  0
   -6.9662   -0.9521    0.5422 C   0  0  0  0  0  0  0  0  0  0  0  0
   -8.2217   -0.9350    1.0977 C   0  0  0  0  0  0  0  0  0  0  0  0
   -9.1050    0.0565    0.7290 C   0  0  0  0  0  0  0  0  0  0  0  0
   -8.7271    1.0185   -0.1882 C   0  0  0  0  0  0  0  0  0  0  0  0
   -7.4432    0.9644   -0.7278 C   0  0  0  0  0  0  0  0  0  0  0  0
    1.4630   -0.9757    0.1827 C   0  0  0  0  0  0  0  0  0  0  0  0
    2.0355   -2.3582    0.3907 C   0  0  0  0  0  0  0  0  0  0  0  0
    3.4960   -2.4474    0.0545 C   0  0  0  0  0  0  0  0  0  0  0  0
    3.9467   -1.3566   -0.7611 N   0  0  0  0  0  0  0  0  0  0  0  0
    5.2176   -0.7740   -0.5763 C   0  0  0  0  0  0  0  0  0  0  0  0
    5.8052    0.2337   -1.2259 N   0  0  0  0  0  0  0  0  0  0  0  0
    7.0222    0.4517   -0.7103 C   0  0  0  0  0  0  0  0  0  0  0  0
    8.0465    1.3443   -0.9822 C   0  0  0  0  0  0  0  0  0  0  0  0
    9.2080    1.3088   -0.2475 C   0  0  0  0  0  0  0  0  0  0  0  0
   10.5360    2.4061   -0.5403 Cl  0  0  0  0  0  0  0  0  0  0  0  0
    9.3577    0.3718    0.7754 C   0  0  0  0  0  0  0  0  0  0  0  0
    8.3467   -0.5065    1.0412 C   0  0  0  0  0  0  0  0  0  0  0  0
    7.1831   -0.4671    0.3015 C   0  0  0  0  0  0  0  0  0  0  0  0
    6.0908   -1.1724    0.3461 O   0  0  0  0  0  0  0  0  0  0  0  0
    3.0603   -0.8716   -1.7775 C   0  0  0  0  0  0  0  0  0  0  0  0
    1.8304   -0.3491   -1.1053 C   0  0  0  0  0  0  0  0  0  0  0  0
   -0.3360    1.0419    0.0747 H   0  0  0  0  0  0  0  0  0  0  0  0
   -2.5765   -0.8416    1.0031 H   0  0  0  0  0  0  0  0  0  0  0  0
   -1.7011    1.0947    2.5141 H   0  0  0  0  0  0  0  0  0  0  0  0
   -3.4982    1.1995    2.1311 H   0  0  0  0  0  0  0  0  0  0  0  0
   -1.1109    2.7013    0.9666 H   0  0  0  0  0  0  0  0  0  0  0  0
   -2.8170    3.3266    1.2465 H   0  0  0  0  0  0  0  0  0  0  0  0
   -1.5810    2.1229   -1.1691 H   0  0  0  0  0  0  0  0  0  0  0  0
   -3.2005    2.8261   -0.9693 H   0  0  0  0  0  0  0  0  0  0  0  0
   -2.8714    0.1198   -1.3954 H   0  0  0  0  0  0  0  0  0  0  0  0
   -5.2444    0.2949   -1.9709 H   0  0  0  0  0  0  0  0  0  0  0  0
   -4.9202   -1.1803   -0.9641 H   0  0  0  0  0  0  0  0  0  0  0  0
   -6.2680   -1.7251    0.8251 H   0  0  0  0  0  0  0  0  0  0  0  0
   -8.4979   -1.7082    1.8224 H   0  0  0  0  0  0  0  0  0  0  0  0
  -10.1084    0.0800    1.1654 H   0  0  0  0  0  0  0  0  0  0  0  0
   -9.4343    1.7915   -0.4671 H   0  0  0  0  0  0  0  0  0  0  0  0
   -7.1681    1.7132   -1.4331 H   0  0  0  0  0  0  0  0  0  0  0  0
    1.9439   -0.3551    0.9997 H   0  0  0  0  0  0  0  0  0  0  0  0
    1.8972   -2.7127    1.4298 H   0  0  0  0  0  0  0  0  0  0  0  0
    1.4927   -3.0648   -0.2671 H   0  0  0  0  0  0  0  0  0  0  0  0
    3.7068   -3.3842   -0.4793 H   0  0  0  0  0  0  0  0  0  0  0  0
    4.0886   -2.4050    1.0053 H   0  0  0  0  0  0  0  0  0  0  0  0
    7.9194    2.0625   -1.7738 H   0  0  0  0  0  0  0  0  0  0  0  0
   10.2686    0.3290    1.3665 H   0  0  0  0  0  0  0  0  0  0  0  0
    8.4572   -1.2410    1.8388 H   0  0  0  0  0  0  0  0  0  0  0  0
    2.7522   -1.7406   -2.3980 H   0  0  0  0  0  0  0  0  0  0  0  0
    3.5047   -0.0604   -2.3905 H   0  0  0  0  0  0  0  0  0  0  0  0
    0.9453   -0.3479   -1.7767 H   0  0  0  0  0  0  0  0  0  0  0  0
    2.0108    0.7528   -0.9220 H   0  0  0  0  0  0  0  0  0  0  0  0
  1  2  2  0
  2  3  1  0
  3  4  1  0
  4  5  1  0
  5  6  1  0
  6  7  1  0
  7  8  1  0
  8  9  1  0
  9 10  1  0
 10 11  1  0
 11 12  2  0
 12 13  1  0
 13 14  2  0
 14 15  1  0
 15 16  2  0
  2 17  1  0
 17 18  1  0
 18 19  1  0
 19 20  1  0
 20 21  1  0
 21 22  2  0
 22 23  1  0
 23 24  2  0
 24 25  1  0
 25 26  1  0
 25 27  2  0
 27 28  1  0
 28 29  2  0
 29 30  1  0
 20 31  1  0
 31 32  1  0
  8  4  1  0
 16 11  1  0
 32 17  1  0
 30 21  1  0
 29 23  1  0
  3 33  1  0
  4 34  1  1
  5 35  1  0
  5 36  1  0
  6 37  1  0
  6 38  1  0
  7 39  1  0
  7 40  1  0
  8 41  1  6
 10 42  1  0
 10 43  1  0
 12 44  1  0
 13 45  1  0
 14 46  1  0
 15 47  1  0
 16 48  1  0
 17 49  1  0
 18 50  1  0
 18 51  1  0
 19 52  1  0
 19 53  1  0
 24 54  1  0
 27 55  1  0
 28 56  1  0
 31 57  1  0
 31 58  1  0
 32 59  1  0
 32 60  1  0
M  END
$$$$
