@<TRIPOS>MOLECULE
*****
 60 64 0 0 0
SMALL
GASTEIGER

@<TRIPOS>ATOM
      1 O          -0.5320   -2.0456    0.8593 O.2     1  UNL1       -0.2755
      2 C           0.0234   -0.9792    0.4861 C.2     1  UNL1        0.2165
      3 N          -0.8062    0.1669    0.3847 N.am    1  UNL1       -0.3098
      4 C          -2.2335    0.1385    0.6919 C.3     1  UNL1        0.0493
      5 C          -2.4710    1.2219    1.7232 C.3     1  UNL1       -0.0320
      6 C          -2.2048    2.4674    0.9036 C.3     1  UNL1       -0.0489
      7 C          -2.4914    2.1061   -0.5367 C.3     1  UNL1       -0.0248
      8 C          -3.0345    0.6947   -0.4835 C.3     1  UNL1        0.0774
      9 O          -4.3605    0.6467   -0.1180 O.3     1  UNL1       -0.3702
     10 C          -5.1665   -0.0869   -0.9440 C.3     1  UNL1        0.0731
     11 C          -6.5591   -0.0103   -0.3726 C.ar    1  UNL1       -0.0219
     12 C          -6.9662   -0.9521    0.5422 C.ar    1  UNL1       -0.0564
     13 C          -8.2217   -0.9350    1.0977 C.ar    1  UNL1       -0.0614
     14 C          -9.1050    0.0565    0.7290 C.ar    1  UNL1       -0.0617
     15 C          -8.7271    1.0185   -0.1882 C.ar    1  UNL1       -0.0614
     16 C          -7.4432    0.9644   -0.7278 C.ar    1  UNL1       -0.0564
     17 C           1.4630   -0.9757    0.1827 C.3     1  UNL1        0.0384
     18 C           2.0355   -2.3582    0.3907 C.3     1  UNL1       -0.0259
     19 C           3.4960   -2.4474    0.0545 C.3     1  UNL1        0.0170
     20 N           3.9467   -1.3566   -0.7611 N.pl3   1  UNL1       -0.2850
     21 C           5.2176   -0.7740   -0.5763 C.ar    1  UNL1        0.2911
     22 N           5.8052    0.2337   -1.2259 N.ar    1  UNL1       -0.1953
     23 C           7.0222    0.4517   -0.7103 C.ar    1  UNL1        0.1126
     24 C           8.0465    1.3443   -0.9822 C.ar    1  UNL1       -0.0142
     25 C           9.2080    1.3088   -0.2475 C.ar    1  UNL1        0.0432
     26 CL         10.5360    2.4061   -0.5403 Cl      1  UNL1       -0.0835
     27 C           9.3577    0.3718    0.7754 C.ar    1  UNL1       -0.0398
     28 C           8.3467   -0.5065    1.0412 C.ar    1  UNL1       -0.0157
     29 C           7.1831   -0.4671    0.3015 C.ar    1  UNL1        0.1571
     30 O           6.0908   -1.1724    0.3461 O.2     1  UNL1       -0.4244
     31 C           3.0603   -0.8716   -1.7775 C.3     1  UNL1        0.0170
     32 C           1.8304   -0.3491   -1.1053 C.3     1  UNL1       -0.0259
     33 H          -0.3360    1.0419    0.0747 H       1  UNL1        0.1491
     34 H          -2.5765   -0.8416    1.0031 H       1  UNL1        0.0524
     35 H          -1.7011    1.0947    2.5141 H       1  UNL1        0.0284
     36 H          -3.4982    1.1995    2.1311 H       1  UNL1        0.0284
     37 H          -1.1109    2.7013    0.9666 H       1  UNL1        0.0267
     38 H          -2.8170    3.3266    1.2465 H       1  UNL1        0.0267
     39 H          -1.5810    2.1229   -1.1691 H       1  UNL1        0.0291
     40 H          -3.2005    2.8261   -0.9693 H       1  UNL1        0.0291
     41 H          -2.8714    0.1198   -1.3954 H       1  UNL1        0.0614
     42 H          -5.2444    0.2949   -1.9709 H       1  UNL1        0.0610
     43 H          -4.9202   -1.1803   -0.9641 H       1  UNL1        0.0610
     44 H          -6.2680   -1.7251    0.8251 H       1  UNL1        0.0621
     45 H          -8.4979   -1.7082    1.8224 H       1  UNL1        0.0618
     46 H         -10.1084    0.0800    1.1654 H       1  UNL1        0.0618
     47 H          -9.4343    1.7915   -0.4671 H       1  UNL1        0.0618
     48 H          -7.1681    1.7132   -1.4331 H       1  UNL1        0.0621
     49 H           1.9439   -0.3551    0.9997 H       1  UNL1        0.0395
     50 H           1.8972   -2.7127    1.4298 H       1  UNL1        0.0288
     51 H           1.4927   -3.0648   -0.2671 H       1  UNL1        0.0288
     52 H           3.7068   -3.3842   -0.4793 H       1  UNL1        0.0465
     53 H           4.0886   -2.4050    1.0053 H       1  UNL1        0.0465
     54 H           7.9194    2.0625   -1.7738 H       1  UNL1        0.0654
     55 H          10.2686    0.3290    1.3665 H       1  UNL1        0.0633
     56 H           8.4572   -1.2410    1.8388 H       1  UNL1        0.0655
     57 H           2.7522   -1.7406   -2.3980 H       1  UNL1        0.0465
     58 H           3.5047   -0.0604   -2.3905 H       1  UNL1        0.0465
     59 H           0.9453   -0.3479   -1.7767 H       1  UNL1        0.0288
     60 H           2.0108    0.7528   -0.9220 H       1  UNL1        0.0288
@<TRIPOS>BOND
     1     1     2    2
     2     2     3   am
     3     3     4    1
     4     4     5    1
     5     5     6    1
     6     6     7    1
     7     7     8    1
     8     8     9    1
     9     9    10    1
    10    10    11    1
    11    11    12   ar
    12    12    13   ar
    13    13    14   ar
    14    14    15   ar
    15    15    16   ar
    16     2    17    1
    17    17    18    1
    18    18    19    1
    19    19    20    1
    20    20    21    1
    21    21    22   ar
    22    22    23   ar
    23    23    24   ar
    24    24    25   ar
    25    25    26    1
    26    25    27   ar
    27    27    28   ar
    28    28    29   ar
    29    29    30   ar
    30    20    31    1
    31    31    32    1
    32     8     4    1
    33    16    11   ar
    34    32    17    1
    35    30    21   ar
    36    29    23   ar
    37     3    33    1
    38     4    34    1
    39     5    35    1
    40     5    36    1
    41     6    37    1
    42     6    38    1
    43     7    39    1
    44     7    40    1
    45     8    41    1
    46    10    42    1
    47    10    43    1
    48    12    44    1
    49    13    45    1
    50    14    46    1
    51    15    47    1
    52    16    48    1
    53    17    49    1
    54    18    50    1
    55    18    51    1
    56    19    52    1
    57    19    53    1
    58    24    54    1
    59    27    55    1
    60    28    56    1
    61    31    57    1
    62    31    58    1
    63    32    59    1
    64    32    60    1
