@<TRIPOS>MOLECULE
*****
 55 54 0 0 0
SMALL
GASTEIGER

@<TRIPOS>ATOM
      1 C          -8.6393   -0.2980   -0.3374 C.3     1  UNL1       -0.0653
      2 C          -7.8726    0.3884   -1.4361 C.3     1  UNL1       -0.0559
      3 C          -6.3973    0.4559   -1.0598 C.3     1  UNL1       -0.0533
      4 C          -5.8645   -0.9236   -0.8716 C.3     1  UNL1       -0.0531
      5 C          -4.3987   -0.8565   -0.4778 C.3     1  UNL1       -0.0530
      6 C          -3.6031   -0.1803   -1.5429 C.3     1  UNL1       -0.0510
      7 C          -2.1443   -0.1477   -1.1800 C.3     1  UNL1       -0.0295
      8 C          -1.9297    0.6007    0.0827 C.3     1  UNL1        0.0478
      9 O          -0.5817    0.6825    0.4495 O.3     1  UNL1       -0.3775
     10 C           0.0325   -0.5217    0.6541 C.3     1  UNL1        0.0710
     11 C           1.4863   -0.1829    1.0455 C.3     1  UNL1        0.0711
     12 O           1.5514    0.5691    2.1650 O.3     1  UNL1       -0.3752
     13 C           2.7564    0.9629    2.6383 C.3     1  UNL1        0.0711
     14 C           3.7379   -0.1093    3.0185 C.3     1  UNL1        0.0711
     15 O           4.1495   -0.9561    2.0598 O.3     1  UNL1       -0.3752
     16 C           4.8613   -0.4626    0.9906 C.3     1  UNL1        0.0711
     17 C           6.1381    0.1963    1.3182 C.3     1  UNL1        0.0711
     18 O           6.7679    0.6653    0.1973 O.3     1  UNL1       -0.3752
     19 C           7.0949   -0.3095   -0.7166 C.3     1  UNL1        0.0708
     20 C           7.8414    0.3258   -1.8993 C.3     1  UNL1        0.0676
     21 O           8.1747   -0.6529   -2.8261 O.3     1  UNL1       -0.3927
     22 H          -8.3526    0.1259    0.6426 H       1  UNL1        0.0230
     23 H          -8.4006   -1.3791   -0.3923 H       1  UNL1        0.0230
     24 H          -9.7240   -0.1481   -0.5436 H       1  UNL1        0.0230
     25 H          -7.9796   -0.1595   -2.3868 H       1  UNL1        0.0263
     26 H          -8.2361    1.4335   -1.5101 H       1  UNL1        0.0263
     27 H          -5.8808    0.9264   -1.9329 H       1  UNL1        0.0265
     28 H          -6.2523    1.0731   -0.1644 H       1  UNL1        0.0265
     29 H          -5.8935   -1.4889   -1.8260 H       1  UNL1        0.0265
     30 H          -6.3716   -1.4623   -0.0587 H       1  UNL1        0.0265
     31 H          -4.3355   -0.3603    0.5283 H       1  UNL1        0.0265
     32 H          -4.0837   -1.8947   -0.3039 H       1  UNL1        0.0265
     33 H          -3.7242   -0.7832   -2.4734 H       1  UNL1        0.0266
     34 H          -3.9146    0.8770   -1.7028 H       1  UNL1        0.0266
     35 H          -1.8537   -1.2342   -1.0541 H       1  UNL1        0.0287
     36 H          -1.5645    0.2907   -2.0439 H       1  UNL1        0.0287
     37 H          -2.3009    1.6389   -0.0178 H       1  UNL1        0.0560
     38 H          -2.4719    0.0557    0.9092 H       1  UNL1        0.0560
     39 H           0.0147   -1.1336   -0.2583 H       1  UNL1        0.0583
     40 H          -0.3669   -1.1253    1.4856 H       1  UNL1        0.0583
     41 H           2.0695   -1.1458    1.0775 H       1  UNL1        0.0583
     42 H           1.8784    0.3917    0.1733 H       1  UNL1        0.0583
     43 H           2.5835    1.6587    3.5186 H       1  UNL1        0.0583
     44 H           3.2086    1.6750    1.8801 H       1  UNL1        0.0583
     45 H           4.5452    0.3557    3.6260 H       1  UNL1        0.0583
     46 H           3.1849   -0.7394    3.7836 H       1  UNL1        0.0583
     47 H           4.2405    0.2189    0.4114 H       1  UNL1        0.0583
     48 H           5.0709   -1.3586    0.3347 H       1  UNL1        0.0583
     49 H           6.8750   -0.4689    1.8292 H       1  UNL1        0.0583
     50 H           5.9478    1.1149    1.9581 H       1  UNL1        0.0583
     51 H           7.7323   -1.0706   -0.2251 H       1  UNL1        0.0583
     52 H           6.2027   -0.8582   -1.1345 H       1  UNL1        0.0583
     53 H           8.7766    0.7665   -1.5190 H       1  UNL1        0.0580
     54 H           7.2124    1.1002   -2.3538 H       1  UNL1        0.0580
     55 H           9.0031   -1.0999   -2.5287 H       1  UNL1        0.2095
@<TRIPOS>BOND
     1     1     2    1
     2     2     3    1
     3     3     4    1
     4     4     5    1
     5     5     6    1
     6     6     7    1
     7     7     8    1
     8     8     9    1
     9     9    10    1
    10    10    11    1
    11    11    12    1
    12    12    13    1
    13    13    14    1
    14    14    15    1
    15    15    16    1
    16    16    17    1
    17    17    18    1
    18    18    19    1
    19    19    20    1
    20    20    21    1
    21     1    22    1
    22     1    23    1
    23     1    24    1
    24     2    25    1
    25     2    26    1
    26     3    27    1
    27     3    28    1
    28     4    29    1
    29     4    30    1
    30     5    31    1
    31     5    32    1
    32     6    33    1
    33     6    34    1
    34     7    35    1
    35     7    36    1
    36     8    37    1
    37     8    38    1
    38    10    39    1
    39    10    40    1
    40    11    41    1
    41    11    42    1
    42    13    43    1
    43    13    44    1
    44    14    45    1
    45    14    46    1
    46    16    47    1
    47    16    48    1
    48    17    49    1
    49    17    50    1
    50    19    51    1
    51    19    52    1
    52    20    53    1
    53    20    54    1
    54    21    55    1
