@<TRIPOS>MOLECULE
*****
 57 59 0 0 0
SMALL
GASTEIGER

@<TRIPOS>ATOM
      1 C          -8.6236   -1.7314    3.6147 C.3     1  UNL1        0.0817
      2 O          -7.3490   -1.3847    3.1298 O.3     1  UNL1       -0.4679
      3 C          -7.1511   -0.4407    2.1178 C.2     1  UNL1        0.3075
      4 O          -8.2120    0.0758    1.6706 O.2     1  UNL1       -0.2508
      5 C          -5.8654   -0.0012    1.5321 C.3     1  UNL1        0.0560
      6 C          -5.7535   -0.1729    0.0518 C.3     1  UNL1        0.0474
      7 C          -4.3894    0.3307   -0.3928 C.3     1  UNL1       -0.0197
      8 C          -4.5534    1.8093   -0.6323 C.3     1  UNL1        0.0578
      9 C          -3.6584    2.2964   -1.7539 C.3     1  UNL1        0.1079
     10 O          -2.3364    2.3843   -1.5399 O.3     1  UNL1       -0.4901
     11 C          -1.3051    1.6129   -1.2520 C.ar    1  UNL1        0.1206
     12 C          -0.2123    2.5000   -1.1743 C.ar    1  UNL1       -0.0194
     13 C           1.0831    2.0894   -0.8880 C.ar    1  UNL1       -0.0506
     14 C           1.3227    0.7277   -0.6638 C.ar    1  UNL1       -0.0177
     15 C           0.3029   -0.1786   -0.7257 C.ar    1  UNL1       -0.0506
     16 C          -0.9480    0.3083   -1.0149 C.ar    1  UNL1       -0.0194
     17 C           2.6332    0.1626   -0.3603 C.ar    1  UNL1       -0.0178
     18 C           2.8579   -0.9514    0.4274 C.ar    1  UNL1       -0.0532
     19 C           4.1384   -1.4159    0.6533 C.ar    1  UNL1       -0.0465
     20 C           5.2161   -0.7513    0.0781 C.ar    1  UNL1        0.0635
     21 C           4.9832    0.3716   -0.7153 C.ar    1  UNL1       -0.0465
     22 C           3.6972    0.8542   -0.9535 C.ar    1  UNL1       -0.0532
     23 C           6.6187   -1.1604    0.2445 C.2     1  UNL1        0.3144
     24 N           7.6441   -0.1449    0.2094 N.pl3   1  UNL1       -0.2476
     25 N           7.0468   -2.3667    0.4227 N.am    1  UNL1        0.0652
     26 C           8.4360   -2.6542    0.5737 C.2     1  UNL1        0.5414
     27 O           8.8666   -3.6427    1.2275 O.2     1  UNL1       -0.1977
     28 O           9.3592   -1.8066   -0.0264 O.3     1  UNL1       -0.4328
     29 C          10.7426   -1.9750    0.0441 C.3     1  UNL1        0.0856
     30 N          -5.9351    1.8795   -1.1634 N.am    1  UNL1       -0.3089
     31 C          -6.6510    0.7654   -0.6531 C.2     1  UNL1        0.2170
     32 O          -7.9207    0.6978   -0.8481 O.2     1  UNL1       -0.2755
     33 H          -8.8449   -1.3144    4.6217 H       1  UNL1        0.0661
     34 H          -8.6974   -2.8366    3.6147 H       1  UNL1        0.0661
     35 H          -9.3638   -1.3969    2.8470 H       1  UNL1        0.0661
     36 H          -5.0132   -0.4762    2.0857 H       1  UNL1        0.0385
     37 H          -5.7644    1.0967    1.7987 H       1  UNL1        0.0385
     38 H          -5.9168   -1.2223   -0.2728 H       1  UNL1        0.0400
     39 H          -3.6383    0.0726    0.3605 H       1  UNL1        0.0291
     40 H          -4.1392   -0.1867   -1.3462 H       1  UNL1        0.0291
     41 H          -4.4508    2.4070    0.2776 H       1  UNL1        0.0532
     42 H          -4.0664    3.2805   -2.1427 H       1  UNL1        0.0715
     43 H          -3.8462    1.6101   -2.6434 H       1  UNL1        0.0715
     44 H          -0.1344    3.5890   -1.3060 H       1  UNL1        0.0654
     45 H           1.9978    2.6491   -0.7977 H       1  UNL1        0.0625
     46 H           0.3685   -1.2412   -0.5713 H       1  UNL1        0.0625
     47 H          -1.7801   -0.3356   -1.0931 H       1  UNL1        0.0654
     48 H           1.9925   -1.4370    0.8546 H       1  UNL1        0.0624
     49 H           4.3428   -2.2793    1.2604 H       1  UNL1        0.0626
     50 H           5.8386    0.8815   -1.1602 H       1  UNL1        0.0626
     51 H           3.6380    1.7245   -1.5791 H       1  UNL1        0.0624
     52 H           7.8096    0.5382   -0.5775 H       1  UNL1        0.2883
     53 H           8.3949    0.1203    0.9059 H       1  UNL1        0.2883
     54 H          11.2745   -1.8872   -0.9224 H       1  UNL1        0.0662
     55 H          11.1568   -1.1565    0.6933 H       1  UNL1        0.0662
     56 H          11.0271   -2.9263    0.5885 H       1  UNL1        0.0662
     57 H          -6.2699    2.6393   -1.7975 H       1  UNL1        0.1491
@<TRIPOS>BOND
     1     1     2    1
     2     2     3    1
     3     3     4    2
     4     3     5    1
     5     5     6    1
     6     6     7    1
     7     7     8    1
     8     8     9    1
     9     9    10    1
    10    10    11    1
    11    11    12   ar
    12    12    13   ar
    13    13    14   ar
    14    14    15   ar
    15    15    16   ar
    16    14    17    1
    17    17    18   ar
    18    18    19   ar
    19    19    20   ar
    20    20    21   ar
    21    21    22   ar
    22    20    23    1
    23    23    24    1
    24    23    25    2
    25    25    26    1
    26    26    27    2
    27    26    28    1
    28    28    29    1
    29     8    30    1
    30    30    31   am
    31    31    32    2
    32    31     6    1
    33    16    11   ar
    34    22    17   ar
    35     1    33    1
    36     1    34    1
    37     1    35    1
    38     5    36    1
    39     5    37    1
    40     6    38    1
    41     7    39    1
    42     7    40    1
    43     8    41    1
    44     9    42    1
    45     9    43    1
    46    12    44    1
    47    13    45    1
    48    15    46    1
    49    16    47    1
    50    18    48    1
    51    19    49    1
    52    21    50    1
    53    22    51    1
    54    24    52    1
    55    24    53    1
    56    29    54    1
    57    29    55    1
    58    29    56    1
    59    30    57    1
