
     RDKit          3D

 72 78  0  0  0  0  0  0  0  0999 V2000
   -5.4597    1.6404   -2.6917 C   0  0  0  0  0  0  0  0  0  0  0  0
   -6.2456    0.4079   -2.7268 N   0  0  0  0  0  0  0  0  0  0  0  0
   -7.5910    0.4632   -3.2535 C   0  0  0  0  0  0  0  0  0  0  0  0
   -5.7089   -0.8306   -2.2535 C   0  0  0  0  0  0  0  0  0  0  0  0
   -6.4731   -1.8377   -2.3296 O   0  0  0  0  0  0  0  0  0  0  0  0
   -4.3656   -0.9050   -1.7242 C   0  0  0  0  0  0  0  0  0  0  0  0
   -3.2804   -1.2213   -2.5610 C   0  0  0  0  0  0  0  0  0  0  0  0
   -2.1879   -1.1921   -1.7355 C   0  0  0  0  0  0  0  0  0  0  0  0
   -0.8283   -1.4156   -1.9766 C   0  0  0  0  0  0  0  0  0  0  0  0
    0.0072   -1.3038   -0.9368 N   0  0  0  0  0  0  0  0  0  0  0  0
   -0.3515   -0.9982    0.3045 C   0  0  0  0  0  0  0  0  0  0  0  0
    0.5207   -0.8670    1.4186 N   0  0  0  0  0  0  0  0  0  0  0  0
    1.8998   -1.0020    1.4347 C   0  0  0  0  0  0  0  0  0  0  0  0
    2.6422   -1.2923    0.3335 C   0  0  0  0  0  0  0  0  0  0  0  0
    4.0340   -1.4265    0.3357 C   0  0  0  0  0  0  0  0  0  0  0  0
    4.7062   -1.2572    1.5173 C   0  0  0  0  0  0  0  0  0  0  0  0
    6.1493   -1.3763    1.6067 C   0  0  0  0  0  0  0  0  0  0  0  0
    6.7187   -2.2148    2.3585 O   0  0  0  0  0  0  0  0  0  0  0  0
    6.9627   -0.5200    0.8214 N   0  0  0  0  0  0  0  0  0  0  0  0
    8.4242   -0.5967    0.8748 C   0  0  0  0  0  0  0  0  0  0  0  0
    9.0675    0.7535    0.7837 C   0  0  0  0  0  0  0  0  0  0  0  0
    9.5041    1.0145   -0.6524 C   0  0  0  0  0  0  0  0  0  0  0  0
    8.1910    1.3743   -1.3051 C   0  0  0  0  0  0  0  0  0  0  0  0
    7.2181    1.6477   -0.1590 C   0  0  0  0  0  0  0  0  0  0  0  0
    6.3182    0.4436   -0.0463 C   0  0  0  0  0  0  0  0  0  0  0  0
    8.0711    1.8152    0.9850 N   0  0  0  0  0  0  0  0  0  0  0  0
    3.9470   -0.9596    2.6484 C   0  0  0  0  0  0  0  0  0  0  0  0
    2.6160   -0.8408    2.5993 N   0  0  0  0  0  0  0  0  0  0  0  0
   -1.6913   -0.7867    0.5012 N   0  0  0  0  0  0  0  0  0  0  0  0
   -2.5904   -0.8789   -0.4845 C   0  0  0  0  0  0  0  0  0  0  0  0
   -3.9684   -0.6975   -0.4769 N   0  0  0  0  0  0  0  0  0  0  0  0
   -4.7056   -0.3588    0.6781 C   0  0  0  0  0  0  0  0  0  0  0  0
   -5.8448   -1.2197    1.0884 C   0  0  0  0  0  0  0  0  0  0  0  0
   -6.7508   -0.2063    1.7731 C   0  0  1  0  0  0  0  0  0  0  0  0
   -5.9597    0.4000    2.9078 C   0  0  0  0  0  0  0  0  0  0  0  0
   -5.0444    1.4598    2.2685 C   0  0  0  0  0  0  0  0  0  0  0  0
   -5.1781    1.0683    0.7786 C   0  0  2  0  0  0  0  0  0  0  0  0
   -6.6972    0.9577    0.7712 C   0  0  0  0  0  0  0  0  0  0  0  0
   -5.9744    2.3123   -1.9521 H   0  0  0  0  0  0  0  0  0  0  0  0
   -5.4147    2.1000   -3.6959 H   0  0  0  0  0  0  0  0  0  0  0  0
   -4.4591    1.3658   -2.3040 H   0  0  0  0  0  0  0  0  0  0  0  0
   -8.2816   -0.1057   -2.5827 H   0  0  0  0  0  0  0  0  0  0  0  0
   -7.6042   -0.0532   -4.2564 H   0  0  0  0  0  0  0  0  0  0  0  0
   -7.9253    1.4868   -3.4126 H   0  0  0  0  0  0  0  0  0  0  0  0
   -3.3071   -1.4394   -3.6239 H   0  0  0  0  0  0  0  0  0  0  0  0
   -0.5304   -1.6622   -2.9705 H   0  0  0  0  0  0  0  0  0  0  0  0
    0.0771   -0.6338    2.3820 H   0  0  0  0  0  0  0  0  0  0  0  0
    2.1949   -1.4402   -0.6357 H   0  0  0  0  0  0  0  0  0  0  0  0
    4.5837   -1.6589   -0.5652 H   0  0  0  0  0  0  0  0  0  0  0  0
    8.7781   -1.2383    0.0538 H   0  0  0  0  0  0  0  0  0  0  0  0
    8.7165   -1.0444    1.8693 H   0  0  0  0  0  0  0  0  0  0  0  0
    9.8886    0.8408    1.4988 H   0  0  0  0  0  0  0  0  0  0  0  0
    9.9664    0.1117   -1.0954 H   0  0  0  0  0  0  0  0  0  0  0  0
   10.2517    1.8280   -0.7008 H   0  0  0  0  0  0  0  0  0  0  0  0
    8.2410    2.3066   -1.9017 H   0  0  0  0  0  0  0  0  0  0  0  0
    7.8242    0.5330   -1.9381 H   0  0  0  0  0  0  0  0  0  0  0  0
    6.5806    2.5185   -0.3695 H   0  0  0  0  0  0  0  0  0  0  0  0
    5.3179    0.7050    0.3470 H   0  0  0  0  0  0  0  0  0  0  0  0
    6.1966    0.0382   -1.0732 H   0  0  0  0  0  0  0  0  0  0  0  0
    8.5819    2.7358    0.8264 H   0  0  0  0  0  0  0  0  0  0  0  0
    4.5169   -0.8337    3.5629 H   0  0  0  0  0  0  0  0  0  0  0  0
   -3.9791   -0.4469    1.5679 H   0  0  0  0  0  0  0  0  0  0  0  0
   -5.5816   -1.9531    1.9117 H   0  0  0  0  0  0  0  0  0  0  0  0
   -6.3471   -1.8119    0.3461 H   0  0  0  0  0  0  0  0  0  0  0  0
   -7.7349   -0.5430    2.0000 H   0  0  0  0  0  0  0  0  0  0  0  0
   -6.7153    0.9309    3.5555 H   0  0  0  0  0  0  0  0  0  0  0  0
   -5.3988   -0.3389    3.4801 H   0  0  0  0  0  0  0  0  0  0  0  0
   -5.4868    2.4568    2.4319 H   0  0  0  0  0  0  0  0  0  0  0  0
   -4.0200    1.3349    2.6271 H   0  0  0  0  0  0  0  0  0  0  0  0
   -4.7471    1.7722    0.1096 H   0  0  0  0  0  0  0  0  0  0  0  0
   -7.1300    1.8461    1.2900 H   0  0  0  0  0  0  0  0  0  0  0  0
   -7.1540    0.7398   -0.1691 H   0  0  0  0  0  0  0  0  0  0  0  0
  1  2  1  0
  2  3  1  0
  2  4  1  0
  4  5  2  0
  4  6  1  0
  6  7  2  0
  7  8  1  0
  8  9  2  0
  9 10  1  0
 10 11  2  0
 11 12  1  0
 12 13  1  0
 13 14  2  0
 14 15  1  0
 15 16  2  0
 16 17  1  0
 17 18  2  0
 17 19  1  0
 19 20  1  0
 20 21  1  0
 21 22  1  0
 22 23  1  0
 23 24  1  0
 24 25  1  0
 24 26  1  0
 16 27  1  0
 27 28  2  0
 11 29  1  0
 29 30  2  0
 30 31  1  0
 31 32  1  0
 32 33  1  0
 33 34  1  0
 34 35  1  0
 35 36  1  0
 36 37  1  0
 37 38  1  0
 31  6  1  0
 37 32  1  0
 30  8  1  0
 38 34  1  0
 28 13  1  0
 25 19  1  0
 26 21  1  0
  1 39  1  0
  1 40  1  0
  1 41  1  0
  3 42  1  0
  3 43  1  0
  3 44  1  0
  7 45  1  0
  9 46  1  0
 12 47  1  0
 14 48  1  0
 15 49  1  0
 20 50  1  0
 20 51  1  0
 21 52  1  0
 22 53  1  0
 22 54  1  0
 23 55  1  0
 23 56  1  0
 24 57  1  0
 25 58  1  0
 25 59  1  0
 26 60  1  0
 27 61  1  0
 32 62  1  0
 33 63  1  0
 33 64  1  0
 34 65  1  1
 35 66  1  0
 35 67  1  0
 36 68  1  0
 36 69  1  0
 37 70  1  6
 38 71  1  0
 38 72  1  0
M  END
$$$$
