@<TRIPOS>MOLECULE
*****
 72 78 0 0 0
SMALL
GASTEIGER

@<TRIPOS>ATOM
      1 C          -5.4597    1.6404   -2.6917 C.3     1  UNL1        0.0032
      2 N          -6.2456    0.4079   -2.7268 N.am    1  UNL1       -0.3024
      3 C          -7.5910    0.4632   -3.2535 C.3     1  UNL1        0.0032
      4 C          -5.7089   -0.8306   -2.2535 C.2     1  UNL1        0.2627
      5 O          -6.4731   -1.8377   -2.3296 O.2     1  UNL1       -0.2684
      6 C          -4.3656   -0.9050   -1.7242 C.ar    1  UNL1        0.1070
      7 C          -3.2804   -1.2213   -2.5610 C.ar    1  UNL1       -0.0209
      8 C          -2.1879   -1.1921   -1.7355 C.ar    1  UNL1        0.0378
      9 C          -0.8283   -1.4156   -1.9766 C.ar    1  UNL1        0.0419
     10 N           0.0072   -1.3038   -0.9368 N.ar    1  UNL1       -0.2219
     11 C          -0.3515   -0.9982    0.3045 C.ar    1  UNL1        0.2224
     12 N           0.5207   -0.8670    1.4186 N.pl3   1  UNL1       -0.2685
     13 C           1.8998   -1.0020    1.4347 C.ar    1  UNL1        0.1250
     14 C           2.6422   -1.2923    0.3335 C.ar    1  UNL1       -0.0208
     15 C           4.0340   -1.4265    0.3357 C.ar    1  UNL1       -0.0449
     16 C           4.7062   -1.2572    1.5173 C.ar    1  UNL1        0.0551
     17 C           6.1493   -1.3763    1.6067 C.2     1  UNL1        0.2482
     18 O           6.7187   -2.2148    2.3585 O.2     1  UNL1       -0.2699
     19 N           6.9627   -0.5200    0.8214 N.am    1  UNL1       -0.2945
     20 C           8.4242   -0.5967    0.8748 C.3     1  UNL1        0.0304
     21 C           9.0675    0.7535    0.7837 C.3     1  UNL1        0.0237
     22 C           9.5041    1.0145   -0.6524 C.3     1  UNL1       -0.0346
     23 C           8.1910    1.3743   -1.3051 C.3     1  UNL1       -0.0346
     24 C           7.2181    1.6477   -0.1590 C.3     1  UNL1        0.0237
     25 C           6.3182    0.4436   -0.0463 C.3     1  UNL1        0.0304
     26 N           8.0711    1.8152    0.9850 N.3     1  UNL1       -0.3075
     27 C           3.9470   -0.9596    2.6484 C.ar    1  UNL1        0.0418
     28 N           2.6160   -0.8408    2.5993 N.ar    1  UNL1       -0.2394
     29 N          -1.6913   -0.7867    0.5012 N.ar    1  UNL1       -0.1962
     30 C          -2.5904   -0.8789   -0.4845 C.ar    1  UNL1        0.1466
     31 N          -3.9684   -0.6975   -0.4769 N.ar    1  UNL1       -0.3177
     32 C          -4.7056   -0.3588    0.6781 C.3     1  UNL1        0.0396
     33 C          -5.8448   -1.2197    1.0884 C.3     1  UNL1       -0.0289
     34 C          -6.7508   -0.2063    1.7731 C.3     1  UNL1       -0.0388
     35 C          -5.9597    0.4000    2.9078 C.3     1  UNL1       -0.0498
     36 C          -5.0444    1.4598    2.2685 C.3     1  UNL1       -0.0481
     37 C          -5.1781    1.0683    0.7786 C.3     1  UNL1       -0.0199
     38 C          -6.6972    0.9577    0.7712 C.3     1  UNL1       -0.0454
     39 H          -5.9744    2.3123   -1.9521 H       1  UNL1        0.0428
     40 H          -5.4147    2.1000   -3.6959 H       1  UNL1        0.0428
     41 H          -4.4591    1.3658   -2.3040 H       1  UNL1        0.0428
     42 H          -8.2816   -0.1057   -2.5827 H       1  UNL1        0.0428
     43 H          -7.6042   -0.0532   -4.2564 H       1  UNL1        0.0428
     44 H          -7.9253    1.4868   -3.4126 H       1  UNL1        0.0428
     45 H          -3.3071   -1.4394   -3.6239 H       1  UNL1        0.0647
     46 H          -0.5304   -1.6622   -2.9705 H       1  UNL1        0.0838
     47 H           0.0771   -0.6338    2.3820 H       1  UNL1        0.1564
     48 H           2.1949   -1.4402   -0.6357 H       1  UNL1        0.0652
     49 H           4.5837   -1.6589   -0.5652 H       1  UNL1        0.0627
     50 H           8.7781   -1.2383    0.0538 H       1  UNL1        0.0480
     51 H           8.7165   -1.0444    1.8693 H       1  UNL1        0.0480
     52 H           9.8886    0.8408    1.4988 H       1  UNL1        0.0476
     53 H           9.9664    0.1117   -1.0954 H       1  UNL1        0.0281
     54 H          10.2517    1.8280   -0.7008 H       1  UNL1        0.0281
     55 H           8.2410    2.3066   -1.9017 H       1  UNL1        0.0281
     56 H           7.8242    0.5330   -1.9381 H       1  UNL1        0.0281
     57 H           6.5806    2.5185   -0.3695 H       1  UNL1        0.0476
     58 H           5.3179    0.7050    0.3470 H       1  UNL1        0.0480
     59 H           6.1966    0.0382   -1.0732 H       1  UNL1        0.0480
     60 H           8.5819    2.7358    0.8264 H       1  UNL1        0.1226
     61 H           4.5169   -0.8337    3.5629 H       1  UNL1        0.0838
     62 H          -3.9791   -0.4469    1.5679 H       1  UNL1        0.0531
     63 H          -5.5816   -1.9531    1.9117 H       1  UNL1        0.0288
     64 H          -6.3471   -1.8119    0.3461 H       1  UNL1        0.0288
     65 H          -7.7349   -0.5430    2.0000 H       1  UNL1        0.0302
     66 H          -6.7153    0.9309    3.5555 H       1  UNL1        0.0268
     67 H          -5.3988   -0.3389    3.4801 H       1  UNL1        0.0268
     68 H          -5.4868    2.4568    2.4319 H       1  UNL1        0.0269
     69 H          -4.0200    1.3349    2.6271 H       1  UNL1        0.0269
     70 H          -4.7471    1.7722    0.1096 H       1  UNL1        0.0321
     71 H          -7.1300    1.8461    1.2900 H       1  UNL1        0.0271
     72 H          -7.1540    0.7398   -0.1691 H       1  UNL1        0.0271
@<TRIPOS>BOND
     1     1     2    1
     2     2     3    1
     3     2     4   am
     4     4     5    2
     5     4     6    1
     6     6     7   ar
     7     7     8   ar
     8     8     9   ar
     9     9    10   ar
    10    10    11   ar
    11    11    12    1
    12    12    13    1
    13    13    14   ar
    14    14    15   ar
    15    15    16   ar
    16    16    17    1
    17    17    18    2
    18    17    19   am
    19    19    20    1
    20    20    21    1
    21    21    22    1
    22    22    23    1
    23    23    24    1
    24    24    25    1
    25    24    26    1
    26    16    27   ar
    27    27    28   ar
    28    11    29   ar
    29    29    30   ar
    30    30    31   ar
    31    31    32    1
    32    32    33    1
    33    33    34    1
    34    34    35    1
    35    35    36    1
    36    36    37    1
    37    37    38    1
    38    31     6   ar
    39    37    32    1
    40    30     8   ar
    41    38    34    1
    42    28    13   ar
    43    25    19    1
    44    26    21    1
    45     1    39    1
    46     1    40    1
    47     1    41    1
    48     3    42    1
    49     3    43    1
    50     3    44    1
    51     7    45    1
    52     9    46    1
    53    12    47    1
    54    14    48    1
    55    15    49    1
    56    20    50    1
    57    20    51    1
    58    21    52    1
    59    22    53    1
    60    22    54    1
    61    23    55    1
    62    23    56    1
    63    24    57    1
    64    25    58    1
    65    25    59    1
    66    26    60    1
    67    27    61    1
    68    32    62    1
    69    33    63    1
    70    33    64    1
    71    34    65    1
    72    35    66    1
    73    35    67    1
    74    36    68    1
    75    36    69    1
    76    37    70    1
    77    38    71    1
    78    38    72    1
