@<TRIPOS>MOLECULE
*****
 66 68 0 0 0
SMALL
GASTEIGER

@<TRIPOS>ATOM
      1 NH1         8.9892   -0.2910   -1.4311 N.pl3   1  UNL1       -0.1298
      2 CZ          8.6838    0.5557   -0.5181 C.cat   1  UNL1        0.3762
      3 NH2         9.3987    1.7949   -0.4287 N.pl3   1  UNL1       -0.2893
      4 NE          7.6305    0.2486    0.3995 N.pl3   1  UNL1       -0.2761
      5 CD          6.6040   -0.7483    0.0430 C.3     1  UNL1        0.0647
      6 CG          5.7387   -0.2396   -1.0658 C.3     1  UNL1       -0.0202
      7 CB          4.6766   -1.1365   -1.5602 C.3     1  UNL1       -0.0250
      8 CA          3.6261   -1.5833   -0.6208 C.3     1  UNL1        0.0786
      9 C           4.2194   -2.3427    0.5031 C.2     1  UNL1        0.1404
     10 O           4.9329   -3.3156    0.3245 O.2     1  UNL1       -0.2991
     11 N           2.8583   -0.4966   -0.0491 N.am    1  UNL1       -0.3044
     12 C           1.4155   -0.4796   -0.1331 C.2     1  UNL1        0.2341
     13 O           0.9139   -1.4453   -0.7162 O.2     1  UNL1       -0.2738
     14 CA          0.7239    0.6163    0.4476 C.3     1  UNL1        0.1023
     15 CB          1.1681    1.0341    1.8469 C.3     1  UNL1       -0.0243
     16 CG          0.1384    2.1401    2.1267 C.3     1  UNL1       -0.0350
     17 CD         -0.9269    1.9970    1.0293 C.3     1  UNL1        0.0156
     18 N          -0.7022    0.5815    0.6538 N.am    1  UNL1       -0.2886
     19 C          -1.6930   -0.3911    0.5714 C.2     1  UNL1        0.2332
     20 O          -1.3030   -1.5894    0.2702 O.2     1  UNL1       -0.2739
     21 CA         -3.1424   -0.2827    0.7731 C.3     1  UNL1        0.0852
     22 C          -3.8379   -0.8207   -0.4770 C.3     1  UNL1       -0.0259
     23 C          -5.3023   -0.8318   -0.1947 C.3     1  UNL1       -0.0352
     24 C          -6.1196   -1.4276   -1.3077 C.3     1  UNL1       -0.0499
     25 C          -7.5695   -1.4037   -0.8347 C.3     1  UNL1       -0.0528
     26 C          -8.0251    0.0238   -0.8477 C.3     1  UNL1       -0.0527
     27 C          -6.8720    0.9819   -0.9126 C.3     1  UNL1       -0.0488
     28 C          -5.8341    0.5550    0.0953 C.3     1  UNL1       -0.0256
     29 C          -4.6401    1.4980    0.0967 C.3     1  UNL1       -0.0003
     30 N          -3.6909    0.9815    1.0606 N.3     1  UNL1       -0.3054
     31 HH1         8.5110   -1.1969   -1.5439 H       1  UNL1        0.3062
     32 HH21        9.4543    2.3039    0.4759 H       1  UNL1        0.2546
     33 HH22        9.8741    2.2142   -1.2507 H       1  UNL1        0.2546
     34 HE          7.6475    0.7616    1.2964 H       1  UNL1        0.2579
     35 HD1         7.0918   -1.7005   -0.1724 H       1  UNL1        0.0655
     36 HD2         6.0006   -0.8361    0.9943 H       1  UNL1        0.0655
     37 HG1         6.4412   -0.0615   -1.9383 H       1  UNL1        0.0296
     38 HG2         5.3810    0.7920   -0.8259 H       1  UNL1        0.0296
     39 HB1         5.1946   -2.0107   -2.0596 H       1  UNL1        0.0288
     40 HB2         4.1862   -0.5954   -2.4327 H       1  UNL1        0.0288
     41 HA          2.9443   -2.3141   -1.1401 H       1  UNL1        0.0574
     42 H           4.0546   -2.0791    1.5635 H       1  UNL1        0.1046
     43 H           3.3172    0.2813    0.4256 H       1  UNL1        0.1494
     44 HA          0.8850    1.5412   -0.2045 H       1  UNL1        0.0597
     45 HB1         1.0516    0.1810    2.5151 H       1  UNL1        0.0288
     46 HB2         2.1931    1.4263    1.8266 H       1  UNL1        0.0288
     47 HG1         0.6660    3.0882    2.0432 H       1  UNL1        0.0281
     48 HG2        -0.2873    1.9254    3.1254 H       1  UNL1        0.0281
     49 HD1        -0.5751    2.5840    0.1538 H       1  UNL1        0.0465
     50 HD2        -1.9052    2.2332    1.3794 H       1  UNL1        0.0465
     51 HA         -3.4041   -1.0321    1.5820 H       1  UNL1        0.0556
     52 H          -3.5352   -0.2963   -1.3798 H       1  UNL1        0.0288
     53 H          -3.5237   -1.8911   -0.6144 H       1  UNL1        0.0288
     54 H          -5.4733   -1.4684    0.7023 H       1  UNL1        0.0304
     55 H          -5.8392   -2.4857   -1.5116 H       1  UNL1        0.0268
     56 H          -6.0346   -0.8704   -2.2624 H       1  UNL1        0.0268
     57 H          -8.1996   -2.0832   -1.4431 H       1  UNL1        0.0265
     58 H          -7.5656   -1.7739    0.2243 H       1  UNL1        0.0265
     59 H          -8.7241    0.1576   -1.7243 H       1  UNL1        0.0265
     60 H          -8.6645    0.1872    0.0416 H       1  UNL1        0.0265
     61 H          -7.2524    1.9710   -0.5718 H       1  UNL1        0.0268
     62 H          -6.4652    1.0943   -1.9160 H       1  UNL1        0.0268
     63 H          -6.2733    0.5993    1.1047 H       1  UNL1        0.0316
     64 H          -4.9407    2.5237    0.4072 H       1  UNL1        0.0427
     65 H          -4.1692    1.5731   -0.9150 H       1  UNL1        0.0427
     66 H          -4.1208    1.0745    2.0031 H       1  UNL1        0.1226
@<TRIPOS>BOND
     1     1     2    2
     2     2     3    1
     3     2     4    1
     4     4     5    1
     5     5     6    1
     6     6     7    1
     7     7     8    1
     8     8     9    1
     9     9    10    2
    10     8    11    1
    11    11    12   am
    12    12    13    2
    13    12    14    1
    14    14    15    1
    15    15    16    1
    16    16    17    1
    17    17    18    1
    18    18    19   am
    19    19    20    2
    20    19    21    1
    21    21    22    1
    22    22    23    1
    23    23    24    1
    24    24    25    1
    25    25    26    1
    26    26    27    1
    27    27    28    1
    28    28    29    1
    29    29    30    1
    30    18    14    1
    31    30    21    1
    32    28    23    1
    33     1    31    1
    34     3    32    1
    35     3    33    1
    36     4    34    1
    37     5    35    1
    38     5    36    1
    39     6    37    1
    40     6    38    1
    41     7    39    1
    42     7    40    1
    43     8    41    1
    44     9    42    1
    45    11    43    1
    46    14    44    1
    47    15    45    1
    48    15    46    1
    49    16    47    1
    50    16    48    1
    51    17    49    1
    52    17    50    1
    53    21    51    1
    54    22    52    1
    55    22    53    1
    56    23    54    1
    57    24    55    1
    58    24    56    1
    59    25    57    1
    60    25    58    1
    61    26    59    1
    62    26    60    1
    63    27    61    1
    64    27    62    1
    65    28    63    1
    66    29    64    1
    67    29    65    1
    68    30    66    1
