
     RDKit          3D

 66 68  0  0  0  0  0  0  0  0999 V2000
    8.9892   -0.2910   -1.4311 N   0  0  0  0  0  0  0  0  0  0  0  0
    8.6838    0.5557   -0.5181 C   0  0  0  0  0  0  0  0  0  0  0  0
    9.3987    1.7949   -0.4287 N   0  0  0  0  0  0  0  0  0  0  0  0
    7.6305    0.2486    0.3995 N   0  0  0  0  0  0  0  0  0  0  0  0
    6.6040   -0.7483    0.0430 C   0  0  0  0  0  0  0  0  0  0  0  0
    5.7387   -0.2396   -1.0658 C   0  0  0  0  0  0  0  0  0  0  0  0
    4.6766   -1.1365   -1.5602 C   0  0  0  0  0  0  0  0  0  0  0  0
    3.6261   -1.5833   -0.6208 C   0  0  1  0  0  0  0  0  0  0  0  0
    4.2194   -2.3427    0.5031 C   0  0  0  0  0  0  0  0  0  0  0  0
    4.9329   -3.3156    0.3245 O   0  0  0  0  0  0  0  0  0  0  0  0
    2.8583   -0.4966   -0.0491 N   0  0  0  0  0  0  0  0  0  0  0  0
    1.4155   -0.4796   -0.1331 C   0  0  0  0  0  0  0  0  0  0  0  0
    0.9139   -1.4453   -0.7162 O   0  0  0  0  0  0  0  0  0  0  0  0
    0.7239    0.6163    0.4476 C   0  0  2  0  0  0  0  0  0  0  0  0
    1.1681    1.0341    1.8469 C   0  0  0  0  0  0  0  0  0  0  0  0
    0.1384    2.1401    2.1267 C   0  0  0  0  0  0  0  0  0  0  0  0
   -0.9269    1.9970    1.0293 C   0  0  0  0  0  0  0  0  0  0  0  0
   -0.7022    0.5815    0.6538 N   0  0  0  0  0  0  0  0  0  0  0  0
   -1.6930   -0.3911    0.5714 C   0  0  0  0  0  0  0  0  0  0  0  0
   -1.3030   -1.5894    0.2702 O   0  0  0  0  0  0  0  0  0  0  0  0
   -3.1424   -0.2827    0.7731 C   0  0  2  0  0  0  0  0  0  0  0  0
   -3.8379   -0.8207   -0.4770 C   0  0  0  0  0  0  0  0  0  0  0  0
   -5.3023   -0.8318   -0.1947 C   0  0  2  0  0  0  0  0  0  0  0  0
   -6.1196   -1.4276   -1.3077 C   0  0  0  0  0  0  0  0  0  0  0  0
   -7.5695   -1.4037   -0.8347 C   0  0  0  0  0  0  0  0  0  0  0  0
   -8.0251    0.0238   -0.8477 C   0  0  0  0  0  0  0  0  0  0  0  0
   -6.8720    0.9819   -0.9126 C   0  0  0  0  0  0  0  0  0  0  0  0
   -5.8341    0.5550    0.0953 C   0  0  2  0  0  0  0  0  0  0  0  0
   -4.6401    1.4980    0.0967 C   0  0  0  0  0  0  0  0  0  0  0  0
   -3.6909    0.9815    1.0606 N   0  0  0  0  0  0  0  0  0  0  0  0
    8.5110   -1.1969   -1.5439 H   0  0  0  0  0  0  0  0  0  0  0  0
    9.4543    2.3039    0.4759 H   0  0  0  0  0  0  0  0  0  0  0  0
    9.8741    2.2142   -1.2507 H   0  0  0  0  0  0  0  0  0  0  0  0
    7.6475    0.7616    1.2964 H   0  0  0  0  0  0  0  0  0  0  0  0
    7.0918   -1.7005   -0.1724 H   0  0  0  0  0  0  0  0  0  0  0  0
    6.0006   -0.8361    0.9943 H   0  0  0  0  0  0  0  0  0  0  0  0
    6.4412   -0.0615   -1.9383 H   0  0  0  0  0  0  0  0  0  0  0  0
    5.3810    0.7920   -0.8259 H   0  0  0  0  0  0  0  0  0  0  0  0
    5.1946   -2.0107   -2.0596 H   0  0  0  0  0  0  0  0  0  0  0  0
    4.1862   -0.5954   -2.4327 H   0  0  0  0  0  0  0  0  0  0  0  0
    2.9443   -2.3141   -1.1401 H   0  0  0  0  0  0  0  0  0  0  0  0
    4.0546   -2.0791    1.5635 H   0  0  0  0  0  0  0  0  0  0  0  0
    3.3172    0.2813    0.4256 H   0  0  0  0  0  0  0  0  0  0  0  0
    0.8850    1.5412   -0.2045 H   0  0  0  0  0  0  0  0  0  0  0  0
    1.0516    0.1810    2.5151 H   0  0  0  0  0  0  0  0  0  0  0  0
    2.1931    1.4263    1.8266 H   0  0  0  0  0  0  0  0  0  0  0  0
    0.6660    3.0882    2.0432 H   0  0  0  0  0  0  0  0  0  0  0  0
   -0.2873    1.9254    3.1254 H   0  0  0  0  0  0  0  0  0  0  0  0
   -0.5751    2.5840    0.1538 H   0  0  0  0  0  0  0  0  0  0  0  0
   -1.9052    2.2332    1.3794 H   0  0  0  0  0  0  0  0  0  0  0  0
   -3.4041   -1.0321    1.5820 H   0  0  0  0  0  0  0  0  0  0  0  0
   -3.5352   -0.2963   -1.3798 H   0  0  0  0  0  0  0  0  0  0  0  0
   -3.5237   -1.8911   -0.6144 H   0  0  0  0  0  0  0  0  0  0  0  0
   -5.4733   -1.4684    0.7023 H   0  0  0  0  0  0  0  0  0  0  0  0
   -5.8392   -2.4857   -1.5116 H   0  0  0  0  0  0  0  0  0  0  0  0
   -6.0346   -0.8704   -2.2624 H   0  0  0  0  0  0  0  0  0  0  0  0
   -8.1996   -2.0832   -1.4431 H   0  0  0  0  0  0  0  0  0  0  0  0
   -7.5656   -1.7739    0.2243 H   0  0  0  0  0  0  0  0  0  0  0  0
   -8.7241    0.1576   -1.7243 H   0  0  0  0  0  0  0  0  0  0  0  0
   -8.6645    0.1872    0.0416 H   0  0  0  0  0  0  0  0  0  0  0  0
   -7.2524    1.9710   -0.5718 H   0  0  0  0  0  0  0  0  0  0  0  0
   -6.4652    1.0943   -1.9160 H   0  0  0  0  0  0  0  0  0  0  0  0
   -6.2733    0.5993    1.1047 H   0  0  0  0  0  0  0  0  0  0  0  0
   -4.9407    2.5237    0.4072 H   0  0  0  0  0  0  0  0  0  0  0  0
   -4.1692    1.5731   -0.9150 H   0  0  0  0  0  0  0  0  0  0  0  0
   -4.1208    1.0745    2.0031 H   0  0  0  0  0  0  0  0  0  0  0  0
  1  2  2  3
  2  3  1  0
  2  4  1  0
  4  5  1  0
  5  6  1  0
  6  7  1  0
  7  8  1  0
  8  9  1  0
  9 10  2  0
  8 11  1  0
 11 12  1  0
 12 13  2  0
 12 14  1  0
 14 15  1  0
 15 16  1  0
 16 17  1  0
 17 18  1  0
 18 19  1  0
 19 20  2  0
 19 21  1  0
 21 22  1  0
 22 23  1  0
 23 24  1  0
 24 25  1  0
 25 26  1  0
 26 27  1  0
 27 28  1  0
 28 29  1  0
 29 30  1  0
 18 14  1  0
 30 21  1  0
 28 23  1  0
  1 31  1  0
  3 32  1  0
  3 33  1  0
  4 34  1  0
  5 35  1  0
  5 36  1  0
  6 37  1  0
  6 38  1  0
  7 39  1  0
  7 40  1  0
  8 41  1  6
  9 42  1  0
 11 43  1  0
 14 44  1  6
 15 45  1  0
 15 46  1  0
 16 47  1  0
 16 48  1  0
 17 49  1  0
 17 50  1  0
 21 51  1  1
 22 52  1  0
 22 53  1  0
 23 54  1  1
 24 55  1  0
 24 56  1  0
 25 57  1  0
 25 58  1  0
 26 59  1  0
 26 60  1  0
 27 61  1  0
 27 62  1  0
 28 63  1  1
 29 64  1  0
 29 65  1  0
 30 66  1  0
M  END
$$$$
