@<TRIPOS>MOLECULE
*****
 64 69 0 0 0
SMALL
GASTEIGER

@<TRIPOS>ATOM
      1 O          -4.6269   -1.2727   -0.8172 O.2     1  UNL1       -0.2444
      2 C          -3.3905   -1.4026   -1.0002 C.ar    1  UNL1        0.3518
      3 N          -2.7246   -2.4824   -1.4360 N.ar    1  UNL1       -0.2079
      4 C          -3.3003   -3.7663   -1.7997 C.3     1  UNL1        0.0719
      5 C          -3.3706   -4.6835   -0.6386 C.ar    1  UNL1       -0.0231
      6 C          -2.3059   -5.5133   -0.3796 C.ar    1  UNL1       -0.0387
      7 C          -2.2911   -6.3912    0.6741 C.ar    1  UNL1        0.0279
      8 N          -3.3720   -6.4304    1.4797 N.ar    1  UNL1       -0.2632
      9 C          -4.4258   -5.6269    1.2448 C.ar    1  UNL1        0.0279
     10 C          -4.4610   -4.7362    0.1899 C.ar    1  UNL1       -0.0387
     11 N          -1.4168   -2.1853   -1.4844 N.ar    1  UNL1       -0.1478
     12 C          -1.2410   -0.9144   -1.0798 C.ar    1  UNL1        0.1696
     13 C           0.0309   -0.2253   -0.9933 C.ar    1  UNL1        0.0243
     14 C           0.1784    1.0367   -1.5681 C.ar    1  UNL1       -0.0327
     15 C           1.3735    1.7139   -1.5015 C.ar    1  UNL1        0.0304
     16 N           2.3871    1.1179   -0.8660 N.ar    1  UNL1       -0.2405
     17 C           2.3116   -0.0822   -0.2977 C.ar    1  UNL1        0.1195
     18 N           3.4434   -0.6283    0.3528 N.pl3   1  UNL1       -0.3262
     19 C           4.6630    0.1039    0.4046 C.3     1  UNL1        0.0220
     20 C           4.5832    1.4295    1.1141 C.3     1  UNL1       -0.0345
     21 C           5.8471    2.1952    0.7740 C.3     1  UNL1       -0.0514
     22 C           7.0907    1.4452    1.1900 C.3     1  UNL1       -0.0529
     23 C           7.0800    0.0162    0.7106 C.3     1  UNL1       -0.0514
     24 C           5.7804   -0.6856    1.0907 C.3     1  UNL1       -0.0345
     25 C           1.1158   -0.7907   -0.3491 C.ar    1  UNL1       -0.0112
     26 N          -2.4658   -0.4480   -0.7858 N.ar    1  UNL1       -0.2435
     27 C          -2.7129    0.8616   -0.3205 C.ar    1  UNL1        0.0535
     28 C          -2.2535    1.2217    0.9278 C.ar    1  UNL1       -0.0370
     29 C          -2.4555    2.4815    1.4512 C.ar    1  UNL1       -0.0521
     30 C          -3.1411    3.4165    0.7018 C.ar    1  UNL1       -0.0178
     31 C          -3.3624    4.6893    1.1943 C.ar    1  UNL1       -0.0540
     32 C          -4.0507    5.6254    0.4398 C.ar    1  UNL1       -0.0612
     33 C          -4.5307    5.3125   -0.8164 C.ar    1  UNL1       -0.0612
     34 C          -4.3016    4.0388   -1.2929 C.ar    1  UNL1       -0.0540
     35 C          -3.6084    3.0774   -0.5473 C.ar    1  UNL1       -0.0159
     36 C          -3.3935    1.8111   -1.0483 C.ar    1  UNL1       -0.0299
     37 H          -4.2978   -3.5698   -2.2440 H       1  UNL1        0.0560
     38 H          -2.6509   -4.2425   -2.5665 H       1  UNL1        0.0560
     39 H          -1.4196   -5.4905   -1.0288 H       1  UNL1        0.0636
     40 H          -1.4239   -7.0359    0.8473 H       1  UNL1        0.0829
     41 H          -5.2581   -5.7177    1.9385 H       1  UNL1        0.0829
     42 H          -5.3199   -4.0981    0.0188 H       1  UNL1        0.0636
     43 H          -0.7011    1.4410   -2.0636 H       1  UNL1        0.0640
     44 H           1.4357    2.6890   -1.9629 H       1  UNL1        0.0830
     45 H           3.3967   -1.5791    0.8045 H       1  UNL1        0.1477
     46 H           5.0478    0.3154   -0.6188 H       1  UNL1        0.0498
     47 H           3.7389    2.0572    0.8385 H       1  UNL1        0.0283
     48 H           4.6404    1.2123    2.2032 H       1  UNL1        0.0283
     49 H           5.8158    3.1326    1.3694 H       1  UNL1        0.0266
     50 H           5.8924    2.4893   -0.2943 H       1  UNL1        0.0266
     51 H           7.9561    1.9494    0.7113 H       1  UNL1        0.0265
     52 H           7.2575    1.5018    2.2803 H       1  UNL1        0.0265
     53 H           7.9427   -0.4984    1.1825 H       1  UNL1        0.0266
     54 H           7.2314   -0.0419   -0.3800 H       1  UNL1        0.0266
     55 H           5.8355   -1.7159    0.7348 H       1  UNL1        0.0283
     56 H           5.6575   -0.5715    2.1742 H       1  UNL1        0.0283
     57 H           1.0712   -1.7471    0.1090 H       1  UNL1        0.0659
     58 H          -1.7080    0.4859    1.5301 H       1  UNL1        0.0638
     59 H          -2.0942    2.7499    2.4217 H       1  UNL1        0.0624
     60 H          -2.9924    4.9396    2.1698 H       1  UNL1        0.0624
     61 H          -4.2392    6.6374    0.8048 H       1  UNL1        0.0618
     62 H          -5.0658    6.0453   -1.3992 H       1  UNL1        0.0618
     63 H          -4.6606    3.7636   -2.2637 H       1  UNL1        0.0624
     64 H          -3.7710    1.5702   -2.0325 H       1  UNL1        0.0644
@<TRIPOS>BOND
     1     1     2    2
     2     2     3   ar
     3     3     4    1
     4     4     5    1
     5     5     6   ar
     6     6     7   ar
     7     7     8   ar
     8     8     9   ar
     9     9    10   ar
    10     3    11   ar
    11    11    12   ar
    12    12    13    1
    13    13    14   ar
    14    14    15   ar
    15    15    16   ar
    16    16    17   ar
    17    17    18    1
    18    18    19    1
    19    19    20    1
    20    20    21    1
    21    21    22    1
    22    22    23    1
    23    23    24    1
    24    17    25   ar
    25    12    26   ar
    26    26    27    1
    27    27    28   ar
    28    28    29   ar
    29    29    30   ar
    30    30    31   ar
    31    31    32   ar
    32    32    33   ar
    33    33    34   ar
    34    34    35   ar
    35    35    36   ar
    36    26     2   ar
    37    36    27   ar
    38    10     5   ar
    39    25    13   ar
    40    35    30   ar
    41    24    19    1
    42     4    37    1
    43     4    38    1
    44     6    39    1
    45     7    40    1
    46     9    41    1
    47    10    42    1
    48    14    43    1
    49    15    44    1
    50    18    45    1
    51    19    46    1
    52    20    47    1
    53    20    48    1
    54    21    49    1
    55    21    50    1
    56    22    51    1
    57    22    52    1
    58    23    53    1
    59    23    54    1
    60    24    55    1
    61    24    56    1
    62    25    57    1
    63    28    58    1
    64    29    59    1
    65    31    60    1
    66    32    61    1
    67    33    62    1
    68    34    63    1
    69    36    64    1
