
     RDKit          3D

 85 89  0  0  0  0  0  0  0  0999 V2000
   -0.5922    5.1893   -1.9210 C   0  0  0  0  0  0  0  0  0  0  0  0
   -1.9957    4.8802   -2.4404 C   0  0  0  0  0  0  0  0  0  0  0  0
   -2.5546    3.6967   -1.6737 C   0  0  0  0  0  0  0  0  0  0  0  0
   -1.7180    2.4724   -1.8294 C   0  0  0  0  0  0  0  0  0  0  0  0
   -2.3248    1.3755   -1.0594 N   0  0  0  0  0  0  0  0  0  0  0  0
   -3.2777    0.5175   -1.6726 C   0  0  0  0  0  0  0  0  0  0  0  0
   -3.2291    0.3080   -2.9074 O   0  0  0  0  0  0  0  0  0  0  0  0
   -4.3709   -0.1629   -0.8588 C   0  0  1  0  0  0  0  0  0  0  0  0
   -4.1992   -1.6240   -0.8584 C   0  0  2  0  0  0  0  0  0  0  0  0
   -4.1346   -2.0228   -2.2228 O   0  0  0  0  0  0  0  0  0  0  0  0
   -5.3023   -2.4112   -0.2607 C   0  0  0  0  0  0  0  0  0  0  0  0
   -5.0292   -3.9224   -0.3674 C   0  0  0  0  0  0  0  0  0  0  0  0
   -6.0983   -4.5746    0.4819 C   0  0  0  0  0  0  0  0  0  0  0  0
   -7.3239   -3.6987    0.6639 C   0  0  0  0  0  0  0  0  0  0  0  0
   -7.0212   -2.4314    1.4403 C   0  0  0  0  0  0  0  0  0  0  0  0
   -5.5158   -2.2040    1.2288 C   0  0  0  0  0  0  0  0  0  0  0  0
   -4.4666    0.5328    0.3739 N   0  0  0  0  0  0  0  0  0  0  0  0
   -3.2522    0.8404    1.0554 C   0  0  0  0  0  0  0  0  0  0  0  0
   -3.3066    0.8629    2.3243 O   0  0  0  0  0  0  0  0  0  0  0  0
   -1.9897    1.1205    0.3253 C   0  0  0  0  0  0  0  0  0  0  0  0
   -1.3345    2.2939    0.9923 C   0  0  0  0  0  0  0  0  0  0  0  0
   -0.5182    1.8136    2.1661 C   0  0  0  0  0  0  0  0  0  0  0  0
    0.5840    1.0457    1.6988 N   0  0  0  0  0  0  0  0  0  0  0  0
    1.8490    1.6677    1.6696 C   0  0  0  0  0  0  0  0  0  0  0  0
    2.9062    0.7291    1.1821 C   0  0  0  0  0  0  0  0  0  0  0  0
    3.3000    0.6803   -0.1362 C   0  0  0  0  0  0  0  0  0  0  0  0
    4.2808   -0.2172   -0.5549 C   0  0  0  0  0  0  0  0  0  0  0  0
    4.8941   -1.0857    0.3204 C   0  0  0  0  0  0  0  0  0  0  0  0
    5.8722   -1.9768   -0.1114 O   0  0  0  0  0  0  0  0  0  0  0  0
    7.2050   -1.5450   -0.0821 C   0  0  0  0  0  0  0  0  0  0  0  0
    7.5561   -0.2884    0.3554 C   0  0  0  0  0  0  0  0  0  0  0  0
    8.8668    0.1367    0.3843 C   0  0  0  0  0  0  0  0  0  0  0  0
    9.8546   -0.7299   -0.0402 C   0  0  0  0  0  0  0  0  0  0  0  0
   11.2713   -0.3255   -0.0296 C   0  0  0  0  0  0  0  0  0  0  0  0
   11.5949    0.8207    0.3692 O   0  0  0  0  0  0  0  0  0  0  0  0
   12.2281   -1.2297   -0.4652 O   0  0  0  0  0  0  0  0  0  0  0  0
    9.4907   -1.9774   -0.4730 C   0  0  0  0  0  0  0  0  0  0  0  0
    8.1886   -2.4088   -0.5052 C   0  0  0  0  0  0  0  0  0  0  0  0
    4.4846   -1.0182    1.6320 C   0  0  0  0  0  0  0  0  0  0  0  0
    3.5225   -0.1471    2.0758 C   0  0  0  0  0  0  0  0  0  0  0  0
    0.3354    0.2435    0.5646 C   0  0  0  0  0  0  0  0  0  0  0  0
   -1.1355   -0.1287    0.4157 C   0  0  0  0  0  0  0  0  0  0  0  0
    0.0995    4.5551   -2.5179 H   0  0  0  0  0  0  0  0  0  0  0  0
   -0.3917    6.2699   -2.0859 H   0  0  0  0  0  0  0  0  0  0  0  0
   -0.5191    4.9504   -0.8524 H   0  0  0  0  0  0  0  0  0  0  0  0
   -1.9720    4.7072   -3.5191 H   0  0  0  0  0  0  0  0  0  0  0  0
   -2.5897    5.7974   -2.2546 H   0  0  0  0  0  0  0  0  0  0  0  0
   -3.5588    3.4908   -2.1237 H   0  0  0  0  0  0  0  0  0  0  0  0
   -2.7298    4.0258   -0.6510 H   0  0  0  0  0  0  0  0  0  0  0  0
   -0.6529    2.5899   -1.6502 H   0  0  0  0  0  0  0  0  0  0  0  0
   -1.8056    2.1643   -2.9140 H   0  0  0  0  0  0  0  0  0  0  0  0
   -5.2976    0.0612   -1.4692 H   0  0  0  0  0  0  0  0  0  0  0  0
   -3.2321   -1.9568   -0.3885 H   0  0  0  0  0  0  0  0  0  0  0  0
   -3.2236   -2.2085   -2.5047 H   0  0  0  0  0  0  0  0  0  0  0  0
   -6.2369   -2.2241   -0.8220 H   0  0  0  0  0  0  0  0  0  0  0  0
   -4.0523   -4.1455    0.1057 H   0  0  0  0  0  0  0  0  0  0  0  0
   -5.0743   -4.2672   -1.4105 H   0  0  0  0  0  0  0  0  0  0  0  0
   -5.7140   -4.9152    1.4604 H   0  0  0  0  0  0  0  0  0  0  0  0
   -6.4363   -5.4749   -0.0574 H   0  0  0  0  0  0  0  0  0  0  0  0
   -7.7565   -3.4937   -0.3363 H   0  0  0  0  0  0  0  0  0  0  0  0
   -8.0324   -4.2809    1.2768 H   0  0  0  0  0  0  0  0  0  0  0  0
   -7.5355   -1.5761    0.9592 H   0  0  0  0  0  0  0  0  0  0  0  0
   -7.2806   -2.4913    2.4937 H   0  0  0  0  0  0  0  0  0  0  0  0
   -5.0000   -3.0294    1.8205 H   0  0  0  0  0  0  0  0  0  0  0  0
   -5.1436   -1.2903    1.6460 H   0  0  0  0  0  0  0  0  0  0  0  0
   -5.3521    0.8508    0.8138 H   0  0  0  0  0  0  0  0  0  0  0  0
   -2.0970    2.9965    1.4209 H   0  0  0  0  0  0  0  0  0  0  0  0
   -0.6725    2.8843    0.3579 H   0  0  0  0  0  0  0  0  0  0  0  0
   -1.0915    1.1887    2.8843 H   0  0  0  0  0  0  0  0  0  0  0  0
   -0.0940    2.7148    2.6827 H   0  0  0  0  0  0  0  0  0  0  0  0
    2.1591    2.0677    2.6743 H   0  0  0  0  0  0  0  0  0  0  0  0
    1.9049    2.5553    0.9925 H   0  0  0  0  0  0  0  0  0  0  0  0
    2.8471    1.3572   -0.8615 H   0  0  0  0  0  0  0  0  0  0  0  0
    4.5829   -0.2465   -1.5983 H   0  0  0  0  0  0  0  0  0  0  0  0
    6.7595    0.3757    0.6847 H   0  0  0  0  0  0  0  0  0  0  0  0
    9.1310    1.1294    0.7313 H   0  0  0  0  0  0  0  0  0  0  0  0
   13.1891   -0.9169   -0.5466 H   0  0  0  0  0  0  0  0  0  0  0  0
   10.2603   -2.6718   -0.8111 H   0  0  0  0  0  0  0  0  0  0  0  0
    7.9624   -3.4174   -0.8619 H   0  0  0  0  0  0  0  0  0  0  0  0
    4.9523   -1.6908    2.3385 H   0  0  0  0  0  0  0  0  0  0  0  0
    3.1959   -0.0853    3.0924 H   0  0  0  0  0  0  0  0  0  0  0  0
    0.8978   -0.7076    0.6477 H   0  0  0  0  0  0  0  0  0  0  0  0
    0.6434    0.6993   -0.4146 H   0  0  0  0  0  0  0  0  0  0  0  0
   -1.4142   -0.7689    1.2696 H   0  0  0  0  0  0  0  0  0  0  0  0
   -1.2229   -0.6693   -0.5459 H   0  0  0  0  0  0  0  0  0  0  0  0
  1  2  1  0
  2  3  1  0
  3  4  1  0
  4  5  1  0
  5  6  1  0
  6  7  2  0
  6  8  1  0
  8  9  1  0
  9 10  1  0
  9 11  1  0
 11 12  1  0
 12 13  1  0
 13 14  1  0
 14 15  1  0
 15 16  1  0
  8 17  1  0
 17 18  1  0
 18 19  2  0
 18 20  1  0
 20 21  1  0
 21 22  1  0
 22 23  1  0
 23 24  1  0
 24 25  1  0
 25 26  2  0
 26 27  1  0
 27 28  2  0
 28 29  1  0
 29 30  1  0
 30 31  2  0
 31 32  1  0
 32 33  2  0
 33 34  1  0
 34 35  2  0
 34 36  1  0
 33 37  1  0
 37 38  2  0
 28 39  1  0
 39 40  2  0
 23 41  1  0
 41 42  1  0
 20  5  1  0
 40 25  1  0
 16 11  1  0
 42 20  1  0
 38 30  1  0
  1 43  1  0
  1 44  1  0
  1 45  1  0
  2 46  1  0
  2 47  1  0
  3 48  1  0
  3 49  1  0
  4 50  1  0
  4 51  1  0
  8 52  1  6
  9 53  1  1
 10 54  1  0
 11 55  1  0
 12 56  1  0
 12 57  1  0
 13 58  1  0
 13 59  1  0
 14 60  1  0
 14 61  1  0
 15 62  1  0
 15 63  1  0
 16 64  1  0
 16 65  1  0
 17 66  1  0
 21 67  1  0
 21 68  1  0
 22 69  1  0
 22 70  1  0
 24 71  1  0
 24 72  1  0
 26 73  1  0
 27 74  1  0
 31 75  1  0
 32 76  1  0
 36 77  1  0
 37 78  1  0
 38 79  1  0
 39 80  1  0
 40 81  1  0
 41 82  1  0
 41 83  1  0
 42 84  1  0
 42 85  1  0
M  END
$$$$
