@<TRIPOS>MOLECULE
*****
 85 89 0 0 0
SMALL
GASTEIGER

@<TRIPOS>ATOM
      1 C          -0.5922    5.1893   -1.9210 C.3     1  UNL1       -0.0652
      2 C          -1.9957    4.8802   -2.4404 C.3     1  UNL1       -0.0545
      3 C          -2.5546    3.6967   -1.6737 C.3     1  UNL1       -0.0374
      4 C          -1.7180    2.4724   -1.8294 C.3     1  UNL1        0.0158
      5 N          -2.3248    1.3755   -1.0594 N.am    1  UNL1       -0.2855
      6 C          -3.2777    0.5175   -1.6726 C.2     1  UNL1        0.2393
      7 O          -3.2291    0.3080   -2.9074 O.2     1  UNL1       -0.2734
      8 C          -4.3709   -0.1629   -0.8588 C.3     1  UNL1        0.1259
      9 C          -4.1992   -1.6240   -0.8584 C.3     1  UNL1        0.0848
     10 O          -4.1346   -2.0228   -2.2228 O.3     1  UNL1       -0.3892
     11 C          -5.3023   -2.4112   -0.2607 C.3     1  UNL1       -0.0127
     12 C          -5.0292   -3.9224   -0.3674 C.3     1  UNL1       -0.0478
     13 C          -6.0983   -4.5746    0.4819 C.3     1  UNL1       -0.0527
     14 C          -7.3239   -3.6987    0.6639 C.3     1  UNL1       -0.0530
     15 C          -7.0212   -2.4314    1.4403 C.3     1  UNL1       -0.0527
     16 C          -5.5158   -2.2040    1.2288 C.3     1  UNL1       -0.0478
     17 N          -4.4666    0.5328    0.3739 N.am    1  UNL1       -0.3001
     18 C          -3.2522    0.8404    1.0554 C.2     1  UNL1        0.2375
     19 O          -3.3066    0.8629    2.3243 O.2     1  UNL1       -0.2734
     20 C          -1.9897    1.1205    0.3253 C.3     1  UNL1        0.1156
     21 C          -1.3345    2.2939    0.9923 C.3     1  UNL1       -0.0100
     22 C          -0.5182    1.8136    2.1661 C.3     1  UNL1        0.0016
     23 N           0.5840    1.0457    1.6988 N.3     1  UNL1       -0.2980
     24 C           1.8490    1.6677    1.6696 C.3     1  UNL1        0.0240
     25 C           2.9062    0.7291    1.1821 C.ar    1  UNL1       -0.0331
     26 C           3.3000    0.6803   -0.1362 C.ar    1  UNL1       -0.0539
     27 C           4.2808   -0.2172   -0.5549 C.ar    1  UNL1       -0.0190
     28 C           4.8941   -1.0857    0.3204 C.ar    1  UNL1        0.1285
     29 O           5.8722   -1.9768   -0.1114 O.3     1  UNL1       -0.4560
     30 C           7.2050   -1.5450   -0.0821 C.ar    1  UNL1        0.1285
     31 C           7.5561   -0.2884    0.3554 C.ar    1  UNL1       -0.0186
     32 C           8.8668    0.1367    0.3843 C.ar    1  UNL1       -0.0443
     33 C           9.8546   -0.7299   -0.0402 C.ar    1  UNL1        0.0591
     34 C          11.2713   -0.3255   -0.0296 C.2     1  UNL1        0.3368
     35 O          11.5949    0.8207    0.3692 O.2     1  UNL1       -0.2451
     36 O          12.2281   -1.2297   -0.4652 O.3     1  UNL1       -0.4771
     37 C           9.4907   -1.9774   -0.4730 C.ar    1  UNL1       -0.0443
     38 C           8.1886   -2.4088   -0.5052 C.ar    1  UNL1       -0.0186
     39 C           4.4846   -1.0182    1.6320 C.ar    1  UNL1       -0.0190
     40 C           3.5225   -0.1471    2.0758 C.ar    1  UNL1       -0.0539
     41 C           0.3354    0.2435    0.5646 C.3     1  UNL1        0.0016
     42 C          -1.1355   -0.1287    0.4157 C.3     1  UNL1       -0.0100
     43 H           0.0995    4.5551   -2.5179 H       1  UNL1        0.0230
     44 H          -0.3917    6.2699   -2.0859 H       1  UNL1        0.0230
     45 H          -0.5191    4.9504   -0.8524 H       1  UNL1        0.0230
     46 H          -1.9720    4.7072   -3.5191 H       1  UNL1        0.0263
     47 H          -2.5897    5.7974   -2.2546 H       1  UNL1        0.0263
     48 H          -3.5588    3.4908   -2.1237 H       1  UNL1        0.0280
     49 H          -2.7298    4.0258   -0.6510 H       1  UNL1        0.0280
     50 H          -0.6529    2.5899   -1.6502 H       1  UNL1        0.0465
     51 H          -1.8056    2.1643   -2.9140 H       1  UNL1        0.0465
     52 H          -5.2976    0.0612   -1.4692 H       1  UNL1        0.0621
     53 H          -3.2321   -1.9568   -0.3885 H       1  UNL1        0.0619
     54 H          -3.2236   -2.2085   -2.5047 H       1  UNL1        0.2099
     55 H          -6.2369   -2.2241   -0.8220 H       1  UNL1        0.0326
     56 H          -4.0523   -4.1455    0.1057 H       1  UNL1        0.0269
     57 H          -5.0743   -4.2672   -1.4105 H       1  UNL1        0.0269
     58 H          -5.7140   -4.9152    1.4604 H       1  UNL1        0.0265
     59 H          -6.4363   -5.4749   -0.0574 H       1  UNL1        0.0265
     60 H          -7.7565   -3.4937   -0.3363 H       1  UNL1        0.0265
     61 H          -8.0324   -4.2809    1.2768 H       1  UNL1        0.0265
     62 H          -7.5355   -1.5761    0.9592 H       1  UNL1        0.0265
     63 H          -7.2806   -2.4913    2.4937 H       1  UNL1        0.0265
     64 H          -5.0000   -3.0294    1.8205 H       1  UNL1        0.0269
     65 H          -5.1436   -1.2903    1.6460 H       1  UNL1        0.0269
     66 H          -5.3521    0.8508    0.8138 H       1  UNL1        0.1496
     67 H          -2.0970    2.9965    1.4209 H       1  UNL1        0.0303
     68 H          -0.6725    2.8843    0.3579 H       1  UNL1        0.0303
     69 H          -1.0915    1.1887    2.8843 H       1  UNL1        0.0427
     70 H          -0.0940    2.7148    2.6827 H       1  UNL1        0.0427
     71 H           2.1591    2.0677    2.6743 H       1  UNL1        0.0476
     72 H           1.9049    2.5553    0.9925 H       1  UNL1        0.0476
     73 H           2.8471    1.3572   -0.8615 H       1  UNL1        0.0622
     74 H           4.5829   -0.2465   -1.5983 H       1  UNL1        0.0654
     75 H           6.7595    0.3757    0.6847 H       1  UNL1        0.0654
     76 H           9.1310    1.1294    0.7313 H       1  UNL1        0.0627
     77 H          13.1891   -0.9169   -0.5466 H       1  UNL1        0.2954
     78 H          10.2603   -2.6718   -0.8111 H       1  UNL1        0.0627
     79 H           7.9624   -3.4174   -0.8619 H       1  UNL1        0.0654
     80 H           4.9523   -1.6908    2.3385 H       1  UNL1        0.0654
     81 H           3.1959   -0.0853    3.0924 H       1  UNL1        0.0622
     82 H           0.8978   -0.7076    0.6477 H       1  UNL1        0.0427
     83 H           0.6434    0.6993   -0.4146 H       1  UNL1        0.0427
     84 H          -1.4142   -0.7689    1.2696 H       1  UNL1        0.0303
     85 H          -1.2229   -0.6693   -0.5459 H       1  UNL1        0.0303
@<TRIPOS>BOND
     1     1     2    1
     2     2     3    1
     3     3     4    1
     4     4     5    1
     5     5     6   am
     6     6     7    2
     7     6     8    1
     8     8     9    1
     9     9    10    1
    10     9    11    1
    11    11    12    1
    12    12    13    1
    13    13    14    1
    14    14    15    1
    15    15    16    1
    16     8    17    1
    17    17    18   am
    18    18    19    2
    19    18    20    1
    20    20    21    1
    21    21    22    1
    22    22    23    1
    23    23    24    1
    24    24    25    1
    25    25    26   ar
    26    26    27   ar
    27    27    28   ar
    28    28    29    1
    29    29    30    1
    30    30    31   ar
    31    31    32   ar
    32    32    33   ar
    33    33    34    1
    34    34    35    2
    35    34    36    1
    36    33    37   ar
    37    37    38   ar
    38    28    39   ar
    39    39    40   ar
    40    23    41    1
    41    41    42    1
    42    20     5    1
    43    40    25   ar
    44    16    11    1
    45    42    20    1
    46    38    30   ar
    47     1    43    1
    48     1    44    1
    49     1    45    1
    50     2    46    1
    51     2    47    1
    52     3    48    1
    53     3    49    1
    54     4    50    1
    55     4    51    1
    56     8    52    1
    57     9    53    1
    58    10    54    1
    59    11    55    1
    60    12    56    1
    61    12    57    1
    62    13    58    1
    63    13    59    1
    64    14    60    1
    65    14    61    1
    66    15    62    1
    67    15    63    1
    68    16    64    1
    69    16    65    1
    70    17    66    1
    71    21    67    1
    72    21    68    1
    73    22    69    1
    74    22    70    1
    75    24    71    1
    76    24    72    1
    77    26    73    1
    78    27    74    1
    79    31    75    1
    80    32    76    1
    81    36    77    1
    82    37    78    1
    83    38    79    1
    84    39    80    1
    85    40    81    1
    86    41    82    1
    87    41    83    1
    88    42    84    1
    89    42    85    1
