@<TRIPOS>MOLECULE
*****
 38 40 0 0 0
SMALL
GASTEIGER

@<TRIPOS>ATOM
      1 F           0.1327    5.2923    1.0544 F       1  UNL1       -0.2040
      2 C          -0.0782    4.2677    0.1990 C.ar    1  UNL1        0.1420
      3 C          -0.0455    2.9779    0.6947 C.ar    1  UNL1       -0.0183
      4 C          -0.2543    1.9249   -0.1429 C.ar    1  UNL1       -0.0046
      5 C          -0.2194    0.5472    0.3864 C.3     1  UNL1        0.1256
      6 C          -1.6798    0.1089    0.4515 C.3     1  UNL1       -0.0064
      7 C          -1.8071   -1.2985    0.9808 C.3     1  UNL1       -0.0123
      8 C          -3.2634   -1.7082    1.0351 C.3     1  UNL1        0.0000
      9 N          -2.8815   -3.0132    0.5337 N.3     1  UNL1       -0.3154
     10 C          -1.7539   -2.3537   -0.1280 C.3     1  UNL1        0.0000
     11 O           0.5227   -0.2380   -0.4847 O.3     1  UNL1       -0.4842
     12 C           1.6587   -0.9028   -0.1341 C.ar    1  UNL1        0.1228
     13 C           2.2782   -1.6494   -1.1473 C.ar    1  UNL1       -0.0198
     14 C           3.4255   -2.3564   -0.9045 C.ar    1  UNL1       -0.0569
     15 C           4.0061   -2.3564    0.3402 C.ar    1  UNL1       -0.0432
     16 C           3.4304   -1.6366    1.3632 C.ar    1  UNL1        0.0444
     17 CL          4.1036   -1.5823    2.9765 Cl      1  UNL1       -0.0834
     18 C           2.2666   -0.9306    1.0818 C.ar    1  UNL1       -0.0016
     19 C          -0.4951    2.1359   -1.4661 C.ar    1  UNL1       -0.0535
     20 C          -0.5322    3.4186   -1.9834 C.ar    1  UNL1       -0.0402
     21 C          -0.3212    4.4799   -1.1360 C.ar    1  UNL1        0.0761
     22 CL         -0.3663    6.1073   -1.7822 Cl      1  UNL1       -0.0806
     23 H           0.1493    2.8528    1.7536 H       1  UNL1        0.0650
     24 H           0.2127    0.5797    1.4151 H       1  UNL1        0.0784
     25 H          -2.0999    0.1997   -0.5460 H       1  UNL1        0.0308
     26 H          -2.2250    0.7896    1.1360 H       1  UNL1        0.0308
     27 H          -1.1978   -1.5426    1.8490 H       1  UNL1        0.0327
     28 H          -3.8617   -1.1501    0.2741 H       1  UNL1        0.0427
     29 H          -3.7017   -1.6993    2.0498 H       1  UNL1        0.0427
     30 H          -3.5772   -3.3878   -0.1422 H       1  UNL1        0.1220
     31 H          -0.8723   -2.9927   -0.1083 H       1  UNL1        0.0427
     32 H          -2.0673   -1.9379   -1.1011 H       1  UNL1        0.0427
     33 H           1.8579   -1.6792   -2.1418 H       1  UNL1        0.0654
     34 H           3.8845   -2.9259   -1.7064 H       1  UNL1        0.0619
     35 H           4.9136   -2.9131    0.5400 H       1  UNL1        0.0632
     36 H           1.8508   -0.3825    1.9094 H       1  UNL1        0.0669
     37 H          -0.6693    1.3420   -2.1862 H       1  UNL1        0.0622
     38 H          -0.7230    3.6123   -3.0381 H       1  UNL1        0.0633
@<TRIPOS>BOND
     1     1     2    1
     2     2     3   ar
     3     3     4   ar
     4     4     5    1
     5     5     6    1
     6     6     7    1
     7     7     8    1
     8     8     9    1
     9     9    10    1
    10     5    11    1
    11    11    12    1
    12    12    13   ar
    13    13    14   ar
    14    14    15   ar
    15    15    16   ar
    16    16    17    1
    17    16    18   ar
    18     4    19   ar
    19    19    20   ar
    20    20    21   ar
    21    21    22    1
    22    21     2   ar
    23    10     7    1
    24    18    12   ar
    25     3    23    1
    26     5    24    1
    27     6    25    1
    28     6    26    1
    29     7    27    1
    30     8    28    1
    31     8    29    1
    32     9    30    1
    33    10    31    1
    34    10    32    1
    35    13    33    1
    36    14    34    1
    37    15    35    1
    38    18    36    1
    39    19    37    1
    40    20    38    1
