
     RDKit          3D

 53 56  0  0  0  0  0  0  0  0999 V2000
    6.8278    3.4072   -0.6405 O   0  0  0  0  0  0  0  0  0  0  0  0
    7.0197    2.5953    0.3262 C   0  0  0  0  0  0  0  0  0  0  0  0
    6.6251    2.9202    1.5979 O   0  0  0  0  0  0  0  0  0  0  0  0
    7.6820    1.3131   -0.0222 C   0  0  0  0  0  0  0  0  0  0  0  0
    6.7480    0.4824   -0.8925 C   0  0  0  0  0  0  0  0  0  0  0  0
    5.4665    0.1781   -0.1841 C   0  0  0  0  0  0  0  0  0  0  0  0
    5.3444    0.6226    0.9731 O   0  0  0  0  0  0  0  0  0  0  0  0
    4.5011   -0.5783   -0.8616 N   0  0  0  0  0  0  0  0  0  0  0  0
    3.2563   -0.9444   -0.3322 C   0  0  0  0  0  0  0  0  0  0  0  0
    2.3894   -1.7071   -1.1261 C   0  0  0  0  0  0  0  0  0  0  0  0
    1.1685   -2.0865   -0.6603 C   0  0  0  0  0  0  0  0  0  0  0  0
    0.6937   -1.7644    0.5918 C   0  0  0  0  0  0  0  0  0  0  0  0
   -0.6283   -2.2251    0.9724 C   0  0  0  0  0  0  0  0  0  0  0  0
   -0.8026   -3.4383    1.5901 C   0  0  0  0  0  0  0  0  0  0  0  0
    0.3161   -4.2076    1.8427 O   0  0  0  0  0  0  0  0  0  0  0  0
   -2.0888   -3.8299    1.9281 C   0  0  0  0  0  0  0  0  0  0  0  0
   -3.1474   -2.9958    1.6365 C   0  0  0  0  0  0  0  0  0  0  0  0
   -3.0009   -1.7732    1.0176 C   0  0  0  0  0  0  0  0  0  0  0  0
   -4.0542   -0.9310    0.7207 C   0  0  0  0  0  0  0  0  0  0  0  0
   -3.8814    0.2900    0.0985 C   0  0  0  0  0  0  0  0  0  0  0  0
   -4.9844    1.1833   -0.2199 C   0  0  0  0  0  0  0  0  0  0  0  0
   -6.1255    1.2712    0.5442 C   0  0  0  0  0  0  0  0  0  0  0  0
   -7.1702    2.1374    0.2226 C   0  0  0  0  0  0  0  0  0  0  0  0
   -7.0767    2.9424   -0.8960 C   0  0  0  0  0  0  0  0  0  0  0  0
   -5.9437    2.8696   -1.6738 C   0  0  0  0  0  0  0  0  0  0  0  0
   -5.7961    3.6465   -2.7973 O   0  0  0  0  0  0  0  0  0  0  0  0
   -4.9111    1.9963   -1.3338 C   0  0  0  0  0  0  0  0  0  0  0  0
   -2.5719    0.6359   -0.2199 C   0  0  0  0  0  0  0  0  0  0  0  0
   -1.5099   -0.1897    0.0680 C   0  0  0  0  0  0  0  0  0  0  0  0
   -1.7131   -1.4057    0.6910 C   0  0  0  0  0  0  0  0  0  0  0  0
    1.5378   -1.0180    1.3733 C   0  0  0  0  0  0  0  0  0  0  0  0
    2.7995   -0.6145    0.9179 C   0  0  0  0  0  0  0  0  0  0  0  0
    6.0338    3.7360    1.7607 H   0  0  0  0  0  0  0  0  0  0  0  0
    8.0377    0.7851    0.8509 H   0  0  0  0  0  0  0  0  0  0  0  0
    8.5453    1.5656   -0.6747 H   0  0  0  0  0  0  0  0  0  0  0  0
    6.4944    1.1063   -1.7724 H   0  0  0  0  0  0  0  0  0  0  0  0
    7.2684   -0.4623   -1.1598 H   0  0  0  0  0  0  0  0  0  0  0  0
    4.7379   -0.8959   -1.8528 H   0  0  0  0  0  0  0  0  0  0  0  0
    2.7437   -1.9689   -2.1103 H   0  0  0  0  0  0  0  0  0  0  0  0
    0.5524   -2.6816   -1.3432 H   0  0  0  0  0  0  0  0  0  0  0  0
    1.2215   -3.8559    2.0501 H   0  0  0  0  0  0  0  0  0  0  0  0
   -2.1977   -4.7876    2.4125 H   0  0  0  0  0  0  0  0  0  0  0  0
   -4.1444   -3.3136    1.9038 H   0  0  0  0  0  0  0  0  0  0  0  0
   -5.0685   -1.2402    0.9866 H   0  0  0  0  0  0  0  0  0  0  0  0
   -6.2305    0.6653    1.4124 H   0  0  0  0  0  0  0  0  0  0  0  0
   -8.0550    2.1692    0.8617 H   0  0  0  0  0  0  0  0  0  0  0  0
   -7.9031    3.6166   -1.1370 H   0  0  0  0  0  0  0  0  0  0  0  0
   -6.6439    3.8982   -3.3037 H   0  0  0  0  0  0  0  0  0  0  0  0
   -4.0226    1.9456   -1.9517 H   0  0  0  0  0  0  0  0  0  0  0  0
   -2.4418    1.6044   -0.7133 H   0  0  0  0  0  0  0  0  0  0  0  0
   -0.5057    0.1016   -0.1891 H   0  0  0  0  0  0  0  0  0  0  0  0
    1.1998   -0.7465    2.3640 H   0  0  0  0  0  0  0  0  0  0  0  0
    3.4085   -0.0234    1.5993 H   0  0  0  0  0  0  0  0  0  0  0  0
  1  2  2  0
  2  3  1  0
  2  4  1  0
  4  5  1  0
  5  6  1  0
  6  7  2  0
  6  8  1  0
  8  9  1  0
  9 10  2  0
 10 11  1  0
 11 12  2  0
 12 13  1  0
 13 14  2  0
 14 15  1  0
 14 16  1  0
 16 17  2  0
 17 18  1  0
 18 19  2  0
 19 20  1  0
 20 21  1  0
 21 22  2  0
 22 23  1  0
 23 24  2  0
 24 25  1  0
 25 26  1  0
 25 27  2  0
 20 28  2  0
 28 29  1  0
 29 30  2  0
 12 31  1  0
 31 32  2  0
 32  9  1  0
 30 13  1  0
 30 18  1  0
 27 21  1  0
  3 33  1  0
  4 34  1  0
  4 35  1  0
  5 36  1  0
  5 37  1  0
  8 38  1  0
 10 39  1  0
 11 40  1  0
 15 41  1  0
 16 42  1  0
 17 43  1  0
 19 44  1  0
 22 45  1  0
 23 46  1  0
 24 47  1  0
 26 48  1  0
 27 49  1  0
 28 50  1  0
 29 51  1  0
 31 52  1  0
 32 53  1  0
M  END
$$$$
