@<TRIPOS>MOLECULE
*****
 53 56 0 0 0
SMALL
GASTEIGER

@<TRIPOS>ATOM
      1 O           6.8278    3.4072   -0.6405 O.2     1  UNL1       -0.2510
      2 C           7.0197    2.5953    0.3262 C.2     1  UNL1        0.3052
      3 O           6.6251    2.9202    1.5979 O.3     1  UNL1       -0.4806
      4 C           7.6820    1.3131   -0.0222 C.3     1  UNL1        0.0530
      5 C           6.7480    0.4824   -0.8925 C.3     1  UNL1        0.0343
      6 C           5.4665    0.1781   -0.1841 C.2     1  UNL1        0.2177
      7 O           5.3444    0.6226    0.9731 O.2     1  UNL1       -0.2755
      8 N           4.5011   -0.5783   -0.8616 N.am    1  UNL1       -0.2855
      9 C           3.2563   -0.9444   -0.3322 C.ar    1  UNL1        0.0334
     10 C           2.3894   -1.7071   -1.1261 C.ar    1  UNL1       -0.0399
     11 C           1.1685   -2.0865   -0.6603 C.ar    1  UNL1       -0.0521
     12 C           0.6937   -1.7644    0.5918 C.ar    1  UNL1       -0.0137
     13 C          -0.6283   -2.2251    0.9724 C.ar    1  UNL1        0.0312
     14 C          -0.8026   -3.4383    1.5901 C.ar    1  UNL1        0.1251
     15 O           0.3161   -4.2076    1.8427 O.3     1  UNL1       -0.5061
     16 C          -2.0888   -3.8299    1.9281 C.ar    1  UNL1       -0.0190
     17 C          -3.1474   -2.9958    1.6365 C.ar    1  UNL1       -0.0505
     18 C          -3.0009   -1.7732    1.0176 C.ar    1  UNL1       -0.0165
     19 C          -4.0542   -0.9310    0.7207 C.ar    1  UNL1       -0.0463
     20 C          -3.8814    0.2900    0.0985 C.ar    1  UNL1       -0.0172
     21 C          -4.9844    1.1833   -0.2199 C.ar    1  UNL1       -0.0144
     22 C          -6.1255    1.2712    0.5442 C.ar    1  UNL1       -0.0538
     23 C          -7.1702    2.1374    0.2226 C.ar    1  UNL1       -0.0577
     24 C          -7.0767    2.9424   -0.8960 C.ar    1  UNL1       -0.0201
     25 C          -5.9437    2.8696   -1.6738 C.ar    1  UNL1        0.1174
     26 O          -5.7961    3.6465   -2.7973 O.3     1  UNL1       -0.5067
     27 C          -4.9111    1.9963   -1.3338 C.ar    1  UNL1       -0.0125
     28 C          -2.5719    0.6359   -0.2199 C.ar    1  UNL1       -0.0534
     29 C          -1.5099   -0.1897    0.0680 C.ar    1  UNL1       -0.0528
     30 C          -1.7131   -1.4057    0.6910 C.ar    1  UNL1       -0.0067
     31 C           1.5378   -1.0180    1.3733 C.ar    1  UNL1       -0.0521
     32 C           2.7995   -0.6145    0.9179 C.ar    1  UNL1       -0.0399
     33 H           6.0338    3.7360    1.7607 H       1  UNL1        0.2951
     34 H           8.0377    0.7851    0.8509 H       1  UNL1        0.0382
     35 H           8.5453    1.5656   -0.6747 H       1  UNL1        0.0382
     36 H           6.4944    1.1063   -1.7724 H       1  UNL1        0.0364
     37 H           7.2684   -0.4623   -1.1598 H       1  UNL1        0.0364
     38 H           4.7379   -0.8959   -1.8528 H       1  UNL1        0.1548
     39 H           2.7437   -1.9689   -2.1103 H       1  UNL1        0.0636
     40 H           0.5524   -2.6816   -1.3432 H       1  UNL1        0.0624
     41 H           1.2215   -3.8559    2.0501 H       1  UNL1        0.2922
     42 H          -2.1977   -4.7876    2.4125 H       1  UNL1        0.0654
     43 H          -4.1444   -3.3136    1.9038 H       1  UNL1        0.0625
     44 H          -5.0685   -1.2402    0.9866 H       1  UNL1        0.0630
     45 H          -6.2305    0.6653    1.4124 H       1  UNL1        0.0624
     46 H          -8.0550    2.1692    0.8617 H       1  UNL1        0.0619
     47 H          -7.9031    3.6166   -1.1370 H       1  UNL1        0.0654
     48 H          -6.6439    3.8982   -3.3037 H       1  UNL1        0.2921
     49 H          -4.0226    1.9456   -1.9517 H       1  UNL1        0.0660
     50 H          -2.4418    1.6044   -0.7133 H       1  UNL1        0.0624
     51 H          -0.5057    0.1016   -0.1891 H       1  UNL1        0.0624
     52 H           1.1998   -0.7465    2.3640 H       1  UNL1        0.0624
     53 H           3.4085   -0.0234    1.5993 H       1  UNL1        0.0636
@<TRIPOS>BOND
     1     1     2    2
     2     2     3    1
     3     2     4    1
     4     4     5    1
     5     5     6    1
     6     6     7    2
     7     6     8   am
     8     8     9    1
     9     9    10   ar
    10    10    11   ar
    11    11    12   ar
    12    12    13    1
    13    13    14   ar
    14    14    15    1
    15    14    16   ar
    16    16    17   ar
    17    17    18   ar
    18    18    19   ar
    19    19    20   ar
    20    20    21    1
    21    21    22   ar
    22    22    23   ar
    23    23    24   ar
    24    24    25   ar
    25    25    26    1
    26    25    27   ar
    27    20    28   ar
    28    28    29   ar
    29    29    30   ar
    30    12    31   ar
    31    31    32   ar
    32    32     9   ar
    33    30    13   ar
    34    30    18   ar
    35    27    21   ar
    36     3    33    1
    37     4    34    1
    38     4    35    1
    39     5    36    1
    40     5    37    1
    41     8    38    1
    42    10    39    1
    43    11    40    1
    44    15    41    1
    45    16    42    1
    46    17    43    1
    47    19    44    1
    48    22    45    1
    49    23    46    1
    50    24    47    1
    51    26    48    1
    52    27    49    1
    53    28    50    1
    54    29    51    1
    55    31    52    1
    56    32    53    1
