@<TRIPOS>MOLECULE
*****
 45 47 0 0 0
SMALL
GASTEIGER

@<TRIPOS>ATOM
      1 C          -3.2892   -1.8018   -1.0488 C.3     1  UNL1        0.0067
      2 C          -3.7696   -0.8239   -0.0004 C.3     1  UNL1        0.2351
      3 C          -3.6943   -1.4219    1.3913 C.3     1  UNL1        0.0067
      4 N          -5.1350   -0.5155   -0.2802 N.2     1  UNL1       -0.0704
      5 C          -5.6464    0.6288   -0.4645 C.cat   1  UNL1        0.4197
      6 N          -7.0509    0.7465   -0.7349 N.pl3   1  UNL1       -0.2468
      7 N          -4.8221    1.7766   -0.4201 N.2     1  UNL1       -0.0088
      8 C          -3.5339    1.6318   -0.1906 C.cat   1  UNL1        0.3829
      9 N          -2.6851    2.7650   -0.1388 N.pl3   1  UNL1       -0.2507
     10 N          -2.9389    0.3618   -0.0102 N.pl3   1  UNL1       -0.1537
     11 C          -1.5197    0.2851    0.1461 C.ar    1  UNL1        0.0983
     12 C          -0.9088    0.3424    1.3764 C.ar    1  UNL1       -0.0215
     13 C           0.4795    0.2650    1.5071 C.ar    1  UNL1       -0.0168
     14 C           1.2717    0.1287    0.3933 C.ar    1  UNL1        0.1212
     15 O           2.6739    0.0497    0.5107 O.3     1  UNL1       -0.4873
     16 C           3.4795   -0.0866   -0.6454 C.3     1  UNL1        0.1160
     17 C           4.8921   -0.1482   -0.2270 C.ar    1  UNL1        0.0080
     18 C           5.6866    0.9633   -0.3765 C.ar    1  UNL1       -0.0526
     19 C           7.0163    0.9876   -0.0113 C.ar    1  UNL1       -0.0429
     20 C           7.5604   -0.1552    0.5241 C.ar    1  UNL1        0.0424
     21 CL          9.2527   -0.1715    1.0024 Cl      1  UNL1       -0.0835
     22 C           6.8096   -1.2941    0.6948 C.ar    1  UNL1       -0.0247
     23 C           5.4716   -1.2687    0.3108 C.ar    1  UNL1        0.0487
     24 CL          4.5269   -2.7205    0.5292 Cl      1  UNL1       -0.0831
     25 C           0.6632    0.0713   -0.8374 C.ar    1  UNL1       -0.0168
     26 C          -0.7015    0.1479   -0.9572 C.ar    1  UNL1       -0.0215
     27 H          -3.4452   -1.3318   -2.0393 H       1  UNL1        0.0299
     28 H          -2.2393   -2.0619   -0.8731 H       1  UNL1        0.0299
     29 H          -3.8875   -2.7352   -0.9555 H       1  UNL1        0.0299
     30 H          -2.6420   -1.5616    1.6918 H       1  UNL1        0.0299
     31 H          -4.2204   -2.4012    1.3591 H       1  UNL1        0.0299
     32 H          -4.2406   -0.7483    2.0917 H       1  UNL1        0.0299
     33 H          -7.6073    1.4267   -0.1751 H       1  UNL1        0.2415
     34 H          -7.4747    0.1597   -1.4741 H       1  UNL1        0.2415
     35 H          -2.0848    2.9821   -0.9468 H       1  UNL1        0.2412
     36 H          -2.6682    3.3644    0.6987 H       1  UNL1        0.2412
     37 H          -1.4968    0.4523    2.2894 H       1  UNL1        0.0651
     38 H           0.9434    0.3133    2.5014 H       1  UNL1        0.0655
     39 H           3.3359    0.7855   -1.3449 H       1  UNL1        0.0748
     40 H           3.2403   -1.0244   -1.1596 H       1  UNL1        0.0748
     41 H           5.2784    1.8732   -0.7945 H       1  UNL1        0.0622
     42 H           7.6378    1.8630   -0.1313 H       1  UNL1        0.0632
     43 H           7.2984   -2.1583    1.1206 H       1  UNL1        0.0647
     44 H           1.3267   -0.0382   -1.7033 H       1  UNL1        0.0655
     45 H          -1.1428    0.0977   -1.9577 H       1  UNL1        0.0651
@<TRIPOS>BOND
     1     1     2    1
     2     2     3    1
     3     2     4    1
     4     4     5    2
     5     5     6    1
     6     5     7    1
     7     7     8    2
     8     8     9    1
     9     8    10    1
    10    10    11    1
    11    11    12   ar
    12    12    13   ar
    13    13    14   ar
    14    14    15    1
    15    15    16    1
    16    16    17    1
    17    17    18   ar
    18    18    19   ar
    19    19    20   ar
    20    20    21    1
    21    20    22   ar
    22    22    23   ar
    23    23    24    1
    24    14    25   ar
    25    25    26   ar
    26    10     2    1
    27    26    11   ar
    28    23    17   ar
    29     1    27    1
    30     1    28    1
    31     1    29    1
    32     3    30    1
    33     3    31    1
    34     3    32    1
    35     6    33    1
    36     6    34    1
    37     9    35    1
    38     9    36    1
    39    12    37    1
    40    13    38    1
    41    16    39    1
    42    16    40    1
    43    18    41    1
    44    19    42    1
    45    22    43    1
    46    25    44    1
    47    26    45    1
