@<TRIPOS>MOLECULE
*****
 59 63 0 0 0
SMALL
GASTEIGER

@<TRIPOS>ATOM
      1 C          -3.3037    6.3031    3.4692 C.3     1  UNL1        0.0804
      2 O          -3.5460    5.9125    2.1314 O.3     1  UNL1       -0.4796
      3 C          -3.1526    4.6329    1.7395 C.ar    1  UNL1        0.2144
      4 C          -3.3514    4.1712    0.4527 C.ar    1  UNL1        0.0003
      5 C          -2.9543    2.8927    0.0747 C.ar    1  UNL1       -0.0485
      6 C          -2.3418    2.0386    0.9896 C.ar    1  UNL1        0.0128
      7 C          -1.9145    0.6697    0.5909 C.3     1  UNL1        0.1445
      8 O          -0.6515    0.3317    1.0392 O.3     1  UNL1       -0.4823
      9 C           0.4991    0.0581    0.3903 C.ar    1  UNL1        0.1222
     10 C           1.6255   -0.2544    1.1647 C.ar    1  UNL1       -0.0179
     11 C           2.8235   -0.5412    0.5503 C.ar    1  UNL1       -0.0322
     12 C           2.9430   -0.5277   -0.8368 C.ar    1  UNL1        0.0748
     13 C           1.8095   -0.2152   -1.5572 C.ar    1  UNL1        0.0236
     14 C           2.2170   -0.2766   -2.8921 C.ar    1  UNL1        0.0576
     15 N           3.5117   -0.6073   -2.8955 N.ar    1  UNL1       -0.1737
     16 N           3.9797   -0.7658   -1.6757 N.ar    1  UNL1       -0.2321
     17 C           5.2937   -1.1152   -1.2402 C.ar    1  UNL1        0.0662
     18 C           5.8980   -2.2540   -1.7314 C.ar    1  UNL1       -0.0335
     19 C           7.1572   -2.6445   -1.3536 C.ar    1  UNL1       -0.0244
     20 C           7.8432   -1.8630   -0.4452 C.ar    1  UNL1        0.1235
     21 F           9.0817   -2.1975   -0.0387 F       1  UNL1       -0.2055
     22 C           7.2536   -0.7160    0.0594 C.ar    1  UNL1       -0.0244
     23 C           5.9886   -0.3371   -0.3295 C.ar    1  UNL1       -0.0335
     24 C           0.5921    0.0772   -0.9638 C.ar    1  UNL1       -0.0092
     25 C          -2.9703   -0.3682    0.8907 C.3     1  UNL1        0.0614
     26 C          -3.1404   -0.6810    2.3318 C.3     1  UNL1       -0.0429
     27 N          -2.5309   -1.5968    0.2139 N.am    1  UNL1       -0.3086
     28 C          -3.2313   -2.1727   -0.8512 C.2     1  UNL1        0.2164
     29 O          -4.2855   -1.6455   -1.2752 O.2     1  UNL1       -0.2755
     30 C          -2.7097   -3.4133   -1.4699 C.3     1  UNL1        0.0356
     31 C          -2.7103   -3.3468   -3.0049 C.3     1  UNL1       -0.0412
     32 C          -3.5936   -4.2822   -2.2826 C.3     1  UNL1       -0.0412
     33 C          -2.1706    2.5519    2.2529 C.ar    1  UNL1        0.0381
     34 N          -2.5589    3.7879    2.6034 N.ar    1  UNL1       -0.2209
     35 H          -2.3415    5.8372    3.7666 H       1  UNL1        0.0660
     36 H          -4.0909    5.7905    4.0851 H       1  UNL1        0.0660
     37 H          -3.3128    7.3919    3.6105 H       1  UNL1        0.0660
     38 H          -3.8277    4.8262   -0.2711 H       1  UNL1        0.0671
     39 H          -3.1356    2.5925   -0.9371 H       1  UNL1        0.0624
     40 H          -1.8617    0.6906   -0.5210 H       1  UNL1        0.0804
     41 H           1.5740   -0.2755    2.2467 H       1  UNL1        0.0655
     42 H           3.7223   -0.7881    1.0939 H       1  UNL1        0.0640
     43 H           1.5472   -0.0793   -3.7144 H       1  UNL1        0.0854
     44 H           5.3398   -2.8603   -2.4495 H       1  UNL1        0.0640
     45 H           7.6359   -3.5371   -1.7359 H       1  UNL1        0.0647
     46 H           7.8067   -0.1141    0.7720 H       1  UNL1        0.0647
     47 H           5.4962    0.5484    0.0407 H       1  UNL1        0.0640
     48 H          -0.2191    0.3056   -1.6267 H       1  UNL1        0.0661
     49 H          -3.9070   -0.0306    0.4047 H       1  UNL1        0.0535
     50 H          -2.2438   -0.5593    2.9449 H       1  UNL1        0.0249
     51 H          -4.0006   -0.0518    2.7097 H       1  UNL1        0.0249
     52 H          -3.4907   -1.7305    2.4771 H       1  UNL1        0.0249
     53 H          -1.6523   -2.0536    0.5523 H       1  UNL1        0.1491
     54 H          -1.7771   -3.8014   -1.0284 H       1  UNL1        0.0394
     55 H          -3.2088   -2.4983   -3.4995 H       1  UNL1        0.0273
     56 H          -1.7882   -3.6657   -3.5038 H       1  UNL1        0.0273
     57 H          -4.6697   -4.1147   -2.2227 H       1  UNL1        0.0273
     58 H          -3.2884   -5.3691   -2.2912 H       1  UNL1        0.0273
     59 H          -1.7061    1.9409    2.9957 H       1  UNL1        0.0835
@<TRIPOS>BOND
     1     1     2    1
     2     2     3    1
     3     3     4   ar
     4     4     5   ar
     5     5     6   ar
     6     6     7    1
     7     7     8    1
     8     8     9    1
     9     9    10   ar
    10    10    11   ar
    11    11    12   ar
    12    12    13   ar
    13    13    14   ar
    14    14    15   ar
    15    15    16   ar
    16    16    17    1
    17    17    18   ar
    18    18    19   ar
    19    19    20   ar
    20    20    21    1
    21    20    22   ar
    22    22    23   ar
    23    13    24   ar
    24     7    25    1
    25    25    26    1
    26    25    27    1
    27    27    28   am
    28    28    29    2
    29    28    30    1
    30    30    31    1
    31    31    32    1
    32     6    33   ar
    33    33    34   ar
    34    34     3   ar
    35    24     9   ar
    36    32    30    1
    37    16    12   ar
    38    23    17   ar
    39     1    35    1
    40     1    36    1
    41     1    37    1
    42     4    38    1
    43     5    39    1
    44     7    40    1
    45    10    41    1
    46    11    42    1
    47    14    43    1
    48    18    44    1
    49    19    45    1
    50    22    46    1
    51    23    47    1
    52    24    48    1
    53    25    49    1
    54    26    50    1
    55    26    51    1
    56    26    52    1
    57    27    53    1
    58    30    54    1
    59    31    55    1
    60    31    56    1
    61    32    57    1
    62    32    58    1
    63    33    59    1
