
     RDKit          3D

 59 63  0  0  0  0  0  0  0  0999 V2000
   -3.3037    6.3031    3.4692 C   0  0  0  0  0  0  0  0  0  0  0  0
   -3.5460    5.9125    2.1314 O   0  0  0  0  0  0  0  0  0  0  0  0
   -3.1526    4.6329    1.7395 C   0  0  0  0  0  0  0  0  0  0  0  0
   -3.3514    4.1712    0.4527 C   0  0  0  0  0  0  0  0  0  0  0  0
   -2.9543    2.8927    0.0747 C   0  0  0  0  0  0  0  0  0  0  0  0
   -2.3418    2.0386    0.9896 C   0  0  0  0  0  0  0  0  0  0  0  0
   -1.9145    0.6697    0.5909 C   0  0  1  0  0  0  0  0  0  0  0  0
   -0.6515    0.3317    1.0392 O   0  0  0  0  0  0  0  0  0  0  0  0
    0.4991    0.0581    0.3903 C   0  0  0  0  0  0  0  0  0  0  0  0
    1.6255   -0.2544    1.1647 C   0  0  0  0  0  0  0  0  0  0  0  0
    2.8235   -0.5412    0.5503 C   0  0  0  0  0  0  0  0  0  0  0  0
    2.9430   -0.5277   -0.8368 C   0  0  0  0  0  0  0  0  0  0  0  0
    1.8095   -0.2152   -1.5572 C   0  0  0  0  0  0  0  0  0  0  0  0
    2.2170   -0.2766   -2.8921 C   0  0  0  0  0  0  0  0  0  0  0  0
    3.5117   -0.6073   -2.8955 N   0  0  0  0  0  0  0  0  0  0  0  0
    3.9797   -0.7658   -1.6757 N   0  0  0  0  0  0  0  0  0  0  0  0
    5.2937   -1.1152   -1.2402 C   0  0  0  0  0  0  0  0  0  0  0  0
    5.8980   -2.2540   -1.7314 C   0  0  0  0  0  0  0  0  0  0  0  0
    7.1572   -2.6445   -1.3536 C   0  0  0  0  0  0  0  0  0  0  0  0
    7.8432   -1.8630   -0.4452 C   0  0  0  0  0  0  0  0  0  0  0  0
    9.0817   -2.1975   -0.0387 F   0  0  0  0  0  0  0  0  0  0  0  0
    7.2536   -0.7160    0.0594 C   0  0  0  0  0  0  0  0  0  0  0  0
    5.9886   -0.3371   -0.3295 C   0  0  0  0  0  0  0  0  0  0  0  0
    0.5921    0.0772   -0.9638 C   0  0  0  0  0  0  0  0  0  0  0  0
   -2.9703   -0.3682    0.8907 C   0  0  2  0  0  0  0  0  0  0  0  0
   -3.1404   -0.6810    2.3318 C   0  0  0  0  0  0  0  0  0  0  0  0
   -2.5309   -1.5968    0.2139 N   0  0  0  0  0  0  0  0  0  0  0  0
   -3.2313   -2.1727   -0.8512 C   0  0  0  0  0  0  0  0  0  0  0  0
   -4.2855   -1.6455   -1.2752 O   0  0  0  0  0  0  0  0  0  0  0  0
   -2.7097   -3.4133   -1.4699 C   0  0  0  0  0  0  0  0  0  0  0  0
   -2.7103   -3.3468   -3.0049 C   0  0  0  0  0  0  0  0  0  0  0  0
   -3.5936   -4.2822   -2.2826 C   0  0  0  0  0  0  0  0  0  0  0  0
   -2.1706    2.5519    2.2529 C   0  0  0  0  0  0  0  0  0  0  0  0
   -2.5589    3.7879    2.6034 N   0  0  0  0  0  0  0  0  0  0  0  0
   -2.3415    5.8372    3.7666 H   0  0  0  0  0  0  0  0  0  0  0  0
   -4.0909    5.7905    4.0851 H   0  0  0  0  0  0  0  0  0  0  0  0
   -3.3128    7.3919    3.6105 H   0  0  0  0  0  0  0  0  0  0  0  0
   -3.8277    4.8262   -0.2711 H   0  0  0  0  0  0  0  0  0  0  0  0
   -3.1356    2.5925   -0.9371 H   0  0  0  0  0  0  0  0  0  0  0  0
   -1.8617    0.6906   -0.5210 H   0  0  0  0  0  0  0  0  0  0  0  0
    1.5740   -0.2755    2.2467 H   0  0  0  0  0  0  0  0  0  0  0  0
    3.7223   -0.7881    1.0939 H   0  0  0  0  0  0  0  0  0  0  0  0
    1.5472   -0.0793   -3.7144 H   0  0  0  0  0  0  0  0  0  0  0  0
    5.3398   -2.8603   -2.4495 H   0  0  0  0  0  0  0  0  0  0  0  0
    7.6359   -3.5371   -1.7359 H   0  0  0  0  0  0  0  0  0  0  0  0
    7.8067   -0.1141    0.7720 H   0  0  0  0  0  0  0  0  0  0  0  0
    5.4962    0.5484    0.0407 H   0  0  0  0  0  0  0  0  0  0  0  0
   -0.2191    0.3056   -1.6267 H   0  0  0  0  0  0  0  0  0  0  0  0
   -3.9070   -0.0306    0.4047 H   0  0  0  0  0  0  0  0  0  0  0  0
   -2.2438   -0.5593    2.9449 H   0  0  0  0  0  0  0  0  0  0  0  0
   -4.0006   -0.0518    2.7097 H   0  0  0  0  0  0  0  0  0  0  0  0
   -3.4907   -1.7305    2.4771 H   0  0  0  0  0  0  0  0  0  0  0  0
   -1.6523   -2.0536    0.5523 H   0  0  0  0  0  0  0  0  0  0  0  0
   -1.7771   -3.8014   -1.0284 H   0  0  0  0  0  0  0  0  0  0  0  0
   -3.2088   -2.4983   -3.4995 H   0  0  0  0  0  0  0  0  0  0  0  0
   -1.7882   -3.6657   -3.5038 H   0  0  0  0  0  0  0  0  0  0  0  0
   -4.6697   -4.1147   -2.2227 H   0  0  0  0  0  0  0  0  0  0  0  0
   -3.2884   -5.3691   -2.2912 H   0  0  0  0  0  0  0  0  0  0  0  0
   -1.7061    1.9409    2.9957 H   0  0  0  0  0  0  0  0  0  0  0  0
  1  2  1  0
  2  3  1  0
  3  4  2  0
  4  5  1  0
  5  6  2  0
  6  7  1  0
  7  8  1  0
  8  9  1  0
  9 10  2  0
 10 11  1  0
 11 12  2  0
 12 13  1  0
 13 14  1  0
 14 15  2  0
 15 16  1  0
 16 17  1  0
 17 18  2  0
 18 19  1  0
 19 20  2  0
 20 21  1  0
 20 22  1  0
 22 23  2  0
 13 24  2  0
  7 25  1  0
 25 26  1  0
 25 27  1  0
 27 28  1  0
 28 29  2  0
 28 30  1  0
 30 31  1  0
 31 32  1  0
  6 33  1  0
 33 34  2  0
 34  3  1  0
 24  9  1  0
 32 30  1  0
 16 12  1  0
 23 17  1  0
  1 35  1  0
  1 36  1  0
  1 37  1  0
  4 38  1  0
  5 39  1  0
  7 40  1  6
 10 41  1  0
 11 42  1  0
 14 43  1  0
 18 44  1  0
 19 45  1  0
 22 46  1  0
 23 47  1  0
 24 48  1  0
 25 49  1  6
 26 50  1  0
 26 51  1  0
 26 52  1  0
 27 53  1  0
 30 54  1  0
 31 55  1  0
 31 56  1  0
 32 57  1  0
 32 58  1  0
 33 59  1  0
M  END
$$$$
