@<TRIPOS>MOLECULE
*****
 55 58 0 0 0
SMALL
GASTEIGER

@<TRIPOS>ATOM
      1 C           2.7242   -0.2267    1.5765 C.3     1  UNL1       -0.0165
      2 C           2.6168   -0.1568    0.0677 C.3     1  UNL1        0.1800
      3 C           2.8138   -1.5251   -0.5449 C.3     1  UNL1       -0.0165
      4 O           3.5784    0.7045   -0.4939 O.3     1  UNL1       -0.4756
      5 C           4.9520    0.5451   -0.3648 C.ar    1  UNL1        0.1402
      6 C           5.5345   -0.4704    0.3283 C.ar    1  UNL1       -0.0184
      7 C           6.9007   -0.5671    0.4150 C.ar    1  UNL1       -0.0582
      8 C           7.6768    0.3844   -0.2134 C.ar    1  UNL1       -0.0602
      9 C           7.1305    1.4306   -0.9265 C.ar    1  UNL1       -0.0398
     10 C           5.7533    1.4818   -0.9827 C.ar    1  UNL1        0.0826
     11 CL          5.0482    2.8240   -1.8977 Cl      1  UNL1       -0.0798
     12 C           1.2661    0.3451   -0.3109 C.2     1  UNL1        0.2566
     13 O           1.1287    1.3901   -1.0275 O.2     1  UNL1       -0.2714
     14 N           0.0608   -0.2896    0.0897 N.am    1  UNL1       -0.3087
     15 C          -1.2481    0.1767   -0.2635 C.3     1  UNL1        0.0290
     16 C          -2.0474   -0.8478   -1.0383 C.3     1  UNL1       -0.0200
     17 C          -2.4571   -2.0233   -0.1987 C.3     1  UNL1       -0.0455
     18 C          -3.2687   -1.5741    1.0062 C.3     1  UNL1       -0.0384
     19 C          -2.3769   -0.6560    1.8116 C.3     1  UNL1       -0.0455
     20 C          -1.9939    0.5402    1.0015 C.3     1  UNL1       -0.0200
     21 C          -3.2664    1.2623    0.5591 C.3     1  UNL1       -0.0218
     22 C          -4.0641    0.3468   -0.3114 C.3     1  UNL1        0.1042
     23 S          -5.5327    1.1895   -0.8481 S.O2    1  UNL1        0.0326
     24 N          -5.0705    2.6109   -1.7445 N.3     1  UNL1       -0.2076
     25 O          -6.3044    0.2797   -1.7864 O.2     1  UNL1       -0.1579
     26 O          -6.4045    1.5597    0.3108 O.2     1  UNL1       -0.1579
     27 C          -4.4856   -0.8452    0.5404 C.3     1  UNL1       -0.0235
     28 C          -3.3125   -0.1559   -1.5113 C.3     1  UNL1       -0.0218
     29 H           2.7931   -1.2725    1.9501 H       1  UNL1        0.0273
     30 H           3.5564    0.4149    1.9611 H       1  UNL1        0.0273
     31 H           1.8003    0.1930    2.0254 H       1  UNL1        0.0273
     32 H           3.7074   -1.5475   -1.2344 H       1  UNL1        0.0273
     33 H           1.9508   -1.7633   -1.1934 H       1  UNL1        0.0273
     34 H           2.8681   -2.3227    0.2234 H       1  UNL1        0.0273
     35 H           4.9051   -1.2037    0.8128 H       1  UNL1        0.0654
     36 H           7.3784   -1.3935    0.9789 H       1  UNL1        0.0619
     37 H           8.7554    0.2915   -0.1338 H       1  UNL1        0.0618
     38 H           7.7593    2.1837   -1.4236 H       1  UNL1        0.0633
     39 H           0.1257   -1.1483    0.6772 H       1  UNL1        0.1491
     40 H          -1.2270    1.0950   -0.8894 H       1  UNL1        0.0504
     41 H          -1.4472   -1.2203   -1.8895 H       1  UNL1        0.0319
     42 H          -3.1349   -2.6469   -0.8114 H       1  UNL1        0.0271
     43 H          -1.6100   -2.6652    0.1042 H       1  UNL1        0.0271
     44 H          -3.5777   -2.4497    1.5775 H       1  UNL1        0.0302
     45 H          -1.4834   -1.2064    2.1573 H       1  UNL1        0.0271
     46 H          -2.9540   -0.3083    2.6837 H       1  UNL1        0.0271
     47 H          -1.3569    1.1965    1.6276 H       1  UNL1        0.0319
     48 H          -3.8352    1.4805    1.4667 H       1  UNL1        0.0290
     49 H          -3.0011    2.2205    0.0733 H       1  UNL1        0.0290
     50 H          -4.3109    3.1123   -1.2330 H       1  UNL1        0.1439
     51 H          -5.8697    3.2364   -1.9055 H       1  UNL1        0.1439
     52 H          -5.1462   -1.5140   -0.0370 H       1  UNL1        0.0289
     53 H          -5.0452   -0.4251    1.4041 H       1  UNL1        0.0289
     54 H          -2.9791    0.7416   -2.0890 H       1  UNL1        0.0290
     55 H          -3.9734   -0.8120   -2.0876 H       1  UNL1        0.0290
@<TRIPOS>BOND
     1     1     2    1
     2     2     3    1
     3     2     4    1
     4     4     5    1
     5     5     6   ar
     6     6     7   ar
     7     7     8   ar
     8     8     9   ar
     9     9    10   ar
    10    10    11    1
    11     2    12    1
    12    12    13    2
    13    12    14   am
    14    14    15    1
    15    15    16    1
    16    16    17    1
    17    17    18    1
    18    18    19    1
    19    19    20    1
    20    20    21    1
    21    21    22    1
    22    22    23    1
    23    23    24    1
    24    23    25    2
    25    23    26    2
    26    22    27    1
    27    22    28    1
    28    10     5   ar
    29    20    15    1
    30    28    16    1
    31    27    18    1
    32     1    29    1
    33     1    30    1
    34     1    31    1
    35     3    32    1
    36     3    33    1
    37     3    34    1
    38     6    35    1
    39     7    36    1
    40     8    37    1
    41     9    38    1
    42    14    39    1
    43    15    40    1
    44    16    41    1
    45    17    42    1
    46    17    43    1
    47    18    44    1
    48    19    45    1
    49    19    46    1
    50    20    47    1
    51    21    48    1
    52    21    49    1
    53    24    50    1
    54    24    51    1
    55    27    52    1
    56    27    53    1
    57    28    54    1
    58    28    55    1
