@<TRIPOS>MOLECULE
*****
 62 65 0 0 0
SMALL
GASTEIGER

@<TRIPOS>ATOM
      1 C          -0.1327    0.6982    0.6751 C.3     1  UNL1       -0.0280
      2 C          -1.0013    1.0081    1.8207 C.3     1  UNL1       -0.0451
      3 C          -2.3352    1.2327    1.1340 C.3     1  UNL1       -0.0013
      4 C          -2.2685    0.5191   -0.1984 C.3     1  UNL1        0.2145
      5 O          -2.2055    1.4100   -1.2934 O.3     1  UNL1       -0.4441
      6 C          -3.1793    2.3410   -1.5758 C.2     1  UNL1        0.3412
      7 O          -4.1966    2.4325   -0.8396 O.2     1  UNL1       -0.2478
      8 C          -2.8676    3.1542   -2.7860 C.3     1  UNL1        0.2036
      9 CL         -4.1592    4.3426   -3.1058 Cl      1  UNL1       -0.0924
     10 CL         -2.9204    2.0005   -4.1641 Cl      1  UNL1       -0.0924
     11 C          -3.4365   -0.3821   -0.2889 C.2     1  UNL1        0.3521
     12 O          -4.3832   -0.5380   -1.1251 O.2     1  UNL1       -0.2463
     13 O          -3.9082   -1.3867    0.5259 O.3     1  UNL1       -0.4621
     14 C          -5.0639   -2.1397    0.2527 C.3     1  UNL1        0.0898
     15 C          -5.2016   -3.1269    1.4126 C.3     1  UNL1       -0.0306
     16 C          -0.9469   -0.2619   -0.1524 C.3     1  UNL1        0.0238
     17 C          -1.2209   -1.5597    0.5081 C.3     1  UNL1       -0.0550
     18 C          -0.3103   -0.3700   -1.4917 C.3     1  UNL1       -0.0167
     19 C           1.1275   -0.7496   -1.3504 C.3     1  UNL1        0.0600
     20 O           1.2409   -2.0869   -0.9846 O.3     1  UNL1       -0.3914
     21 C           1.8846    0.1720   -0.4364 C.3     1  UNL1        0.0007
     22 C           1.2189    0.1788    0.9507 C.3     1  UNL1       -0.0310
     23 C           2.0080    1.0269    1.8894 C.3     1  UNL1       -0.0458
     24 C           3.4269    0.4443    1.9473 C.3     1  UNL1       -0.0302
     25 C           4.0623    0.6546    0.6459 C.2     1  UNL1       -0.0559
     26 C           5.1077    1.4603    0.5468 C.2     1  UNL1       -0.0149
     27 C           5.6267    1.5669   -0.8114 C.2     1  UNL1        0.1787
     28 O           6.6203    2.3108   -1.0021 O.2     1  UNL1       -0.2879
     29 C           4.9965    0.8199   -1.9171 C.2     1  UNL1       -0.0180
     30 C           3.9599    0.0531   -1.6735 C.2     1  UNL1       -0.0701
     31 C           3.3402   -0.1403   -0.3426 C.3     1  UNL1        0.0131
     32 C           3.5801   -1.6099    0.0113 C.3     1  UNL1       -0.0520
     33 H          -0.0210    1.6150    0.0375 H       1  UNL1        0.0310
     34 H          -0.6839    1.9088    2.3897 H       1  UNL1        0.0270
     35 H          -1.0680    0.1128    2.4921 H       1  UNL1        0.0270
     36 H          -3.1942    0.9099    1.7525 H       1  UNL1        0.0310
     37 H          -2.3947    2.3488    0.9865 H       1  UNL1        0.0310
     38 H          -1.8818    3.6158   -2.7606 H       1  UNL1        0.0752
     39 H          -5.9851   -1.5333    0.1399 H       1  UNL1        0.0694
     40 H          -4.9538   -2.7772   -0.6653 H       1  UNL1        0.0694
     41 H          -4.7205   -2.7168    2.3402 H       1  UNL1        0.0262
     42 H          -4.6475   -4.0619    1.1831 H       1  UNL1        0.0262
     43 H          -6.2502   -3.3447    1.6627 H       1  UNL1        0.0262
     44 H          -0.3232   -2.1650    0.7331 H       1  UNL1        0.0237
     45 H          -1.7827   -1.4706    1.4470 H       1  UNL1        0.0237
     46 H          -1.8284   -2.1720   -0.1900 H       1  UNL1        0.0237
     47 H          -0.4526    0.5733   -2.0547 H       1  UNL1        0.0297
     48 H          -0.8246   -1.1645   -2.0696 H       1  UNL1        0.0297
     49 H           1.6308   -0.6823   -2.3513 H       1  UNL1        0.0596
     50 H           1.3196   -2.6896   -1.7634 H       1  UNL1        0.2098
     51 H           1.7616    1.2029   -0.8240 H       1  UNL1        0.0340
     52 H           1.2594   -0.8530    1.3468 H       1  UNL1        0.0308
     53 H           1.5982    0.8309    2.9214 H       1  UNL1        0.0271
     54 H           2.0300    2.1035    1.6569 H       1  UNL1        0.0271
     55 H           3.3319   -0.6261    2.2118 H       1  UNL1        0.0310
     56 H           3.9746    0.9165    2.7868 H       1  UNL1        0.0310
     57 H           5.4949    1.9629    1.4201 H       1  UNL1        0.0655
     58 H           5.4723    0.9826   -2.8740 H       1  UNL1        0.0653
     59 H           3.6256   -0.4196   -2.5957 H       1  UNL1        0.0582
     60 H           3.5840   -2.2211   -0.9278 H       1  UNL1        0.0241
     61 H           4.6106   -1.6779    0.4097 H       1  UNL1        0.0241
     62 H           2.8558   -1.9829    0.7495 H       1  UNL1        0.0241
@<TRIPOS>BOND
     1     1     2    1
     2     2     3    1
     3     3     4    1
     4     4     5    1
     5     5     6    1
     6     6     7    2
     7     6     8    1
     8     8     9    1
     9     8    10    1
    10     4    11    1
    11    11    12    2
    12    11    13    1
    13    13    14    1
    14    14    15    1
    15     4    16    1
    16    16    17    1
    17    16    18    1
    18    18    19    1
    19    19    20    1
    20    19    21    1
    21    21    22    1
    22    22    23    1
    23    23    24    1
    24    24    25    1
    25    25    26    2
    26    26    27    1
    27    27    28    2
    28    27    29    1
    29    29    30    2
    30    30    31    1
    31    31    32    1
    32    16     1    1
    33    31    21    1
    34    22     1    1
    35    31    25    1
    36     1    33    1
    37     2    34    1
    38     2    35    1
    39     3    36    1
    40     3    37    1
    41     8    38    1
    42    14    39    1
    43    14    40    1
    44    15    41    1
    45    15    42    1
    46    15    43    1
    47    17    44    1
    48    17    45    1
    49    17    46    1
    50    18    47    1
    51    18    48    1
    52    19    49    1
    53    20    50    1
    54    21    51    1
    55    22    52    1
    56    23    53    1
    57    23    54    1
    58    24    55    1
    59    24    56    1
    60    26    57    1
    61    29    58    1
    62    30    59    1
    63    32    60    1
    64    32    61    1
    65    32    62    1
