@<TRIPOS>MOLECULE
*****
 61 64 0 0 0
SMALL
GASTEIGER

@<TRIPOS>ATOM
      1 C          -3.7886    3.1384    0.7498 C.3     1  UNL1       -0.0650
      2 C          -2.5902    3.5563   -0.0445 C.3     1  UNL1       -0.0518
      3 C          -2.5936    2.9613   -1.4422 C.3     1  UNL1       -0.0244
      4 C          -2.5919    1.4909   -1.3525 C.ar    1  UNL1       -0.0022
      5 C          -3.7578    0.8110   -1.5986 C.ar    1  UNL1       -0.0127
      6 C          -3.8024   -0.5616   -1.5268 C.ar    1  UNL1        0.1289
      7 O          -4.9947   -1.2592   -1.7781 O.3     1  UNL1       -0.4560
      8 C          -5.8040   -1.4802   -0.6625 C.ar    1  UNL1        0.1285
      9 C          -6.7822   -0.5457   -0.3065 C.ar    1  UNL1       -0.0180
     10 C          -7.5805   -0.7669    0.7967 C.ar    1  UNL1       -0.0399
     11 C          -7.4120   -1.9144    1.5503 C.ar    1  UNL1        0.0412
     12 CL         -8.4165   -2.2244    2.9646 Cl      1  UNL1       -0.0835
     13 C          -6.4425   -2.8050    1.1680 C.ar    1  UNL1       -0.0399
     14 C          -5.6223   -2.6266    0.0749 C.ar    1  UNL1       -0.0180
     15 C          -2.6440   -1.2299   -1.2016 C.ar    1  UNL1       -0.0159
     16 C          -1.4563   -0.5482   -0.9504 C.ar    1  UNL1       -0.0162
     17 C          -1.3927    0.8206   -1.0167 C.ar    1  UNL1        0.1239
     18 O          -0.3215    1.5401   -0.7978 O.3     1  UNL1       -0.4916
     19 C           0.9580    1.6272   -0.4810 C.3     1  UNL1        0.0927
     20 C           1.4641    1.1645    0.8560 C.3     1  UNL1        0.0157
     21 C           1.2854   -0.2664    1.1830 C.3     1  UNL1        0.0927
     22 O           1.8717   -1.2055    0.3690 O.3     1  UNL1       -0.4918
     23 C           3.1575   -1.5076    0.0522 C.ar    1  UNL1        0.1211
     24 C           3.4256   -2.5494   -0.8652 C.ar    1  UNL1       -0.0199
     25 C           4.7008   -2.8938   -1.2152 C.ar    1  UNL1       -0.0577
     26 C           5.8007   -2.2187   -0.6707 C.ar    1  UNL1       -0.0531
     27 C           5.5793   -1.2116    0.2150 C.ar    1  UNL1       -0.0026
     28 C           6.6600   -0.4696    0.8177 C.ar    1  UNL1        0.0838
     29 S           6.4938    0.8586    1.9829 S.2     1  UNL1       -0.0230
     30 C           8.2809    1.1676    2.1782 C.ar    1  UNL1        0.2913
     31 O           8.7662    2.0334    2.9130 O.2     1  UNL1       -0.2596
     32 N           8.7840    0.2641    1.3694 N.ar    1  UNL1       -0.2870
     33 C           8.0512   -0.5571    0.6837 C.ar    1  UNL1        0.2081
     34 O           8.6344   -1.5386   -0.1964 O.3     1  UNL1       -0.4928
     35 C           4.2538   -0.8714    0.5637 C.ar    1  UNL1       -0.0116
     36 H          -4.7209    3.1743    0.1559 H       1  UNL1        0.0230
     37 H          -3.9255    3.8812    1.5838 H       1  UNL1        0.0230
     38 H          -3.6655    2.1514    1.2458 H       1  UNL1        0.0230
     39 H          -1.6676    3.2787    0.5029 H       1  UNL1        0.0266
     40 H          -2.5965    4.6698   -0.0956 H       1  UNL1        0.0266
     41 H          -3.5010    3.3059   -1.9737 H       1  UNL1        0.0314
     42 H          -1.7293    3.3635   -2.0022 H       1  UNL1        0.0314
     43 H          -4.6855    1.3206   -1.8578 H       1  UNL1        0.0658
     44 H          -6.8950    0.3447   -0.9121 H       1  UNL1        0.0655
     45 H          -8.3504   -0.0560    1.0970 H       1  UNL1        0.0633
     46 H          -6.2887   -3.7167    1.7438 H       1  UNL1        0.0633
     47 H          -4.8748   -3.3678   -0.1746 H       1  UNL1        0.0655
     48 H          -2.6706   -2.2960   -1.1438 H       1  UNL1        0.0655
     49 H          -0.6063   -1.1641   -0.7163 H       1  UNL1        0.0655
     50 H           1.5754    1.0140   -1.2321 H       1  UNL1        0.0697
     51 H           1.3148    2.7017   -0.5662 H       1  UNL1        0.0697
     52 H           2.5043    1.4807    1.0354 H       1  UNL1        0.0331
     53 H           0.8866    1.7349    1.6685 H       1  UNL1        0.0331
     54 H           1.7834   -0.3992    2.2081 H       1  UNL1        0.0697
     55 H           0.2150   -0.5172    1.4278 H       1  UNL1        0.0697
     56 H           2.5415   -3.0490   -1.2654 H       1  UNL1        0.0654
     57 H           4.8932   -3.6879   -1.9139 H       1  UNL1        0.0619
     58 H           6.7972   -2.5042   -0.9586 H       1  UNL1        0.0624
     59 H           9.8856    0.2353    1.2984 H       1  UNL1        0.1723
     60 H           9.4718   -2.0108    0.1038 H       1  UNL1        0.2937
     61 H           4.1350   -0.0697    1.2886 H       1  UNL1        0.0660
@<TRIPOS>BOND
     1     1     2    1
     2     2     3    1
     3     3     4    1
     4     4     5   ar
     5     5     6   ar
     6     6     7    1
     7     7     8    1
     8     8     9   ar
     9     9    10   ar
    10    10    11   ar
    11    11    12    1
    12    11    13   ar
    13    13    14   ar
    14     6    15   ar
    15    15    16   ar
    16    16    17   ar
    17    17    18    1
    18    18    19    1
    19    19    20    1
    20    20    21    1
    21    21    22    1
    22    22    23    1
    23    23    24   ar
    24    24    25   ar
    25    25    26   ar
    26    26    27   ar
    27    27    28    1
    28    28    29   ar
    29    29    30   ar
    30    30    31    2
    31    30    32   ar
    32    32    33   ar
    33    33    34    1
    34    27    35   ar
    35    17     4   ar
    36    35    23   ar
    37    14     8   ar
    38    33    28   ar
    39     1    36    1
    40     1    37    1
    41     1    38    1
    42     2    39    1
    43     2    40    1
    44     3    41    1
    45     3    42    1
    46     5    43    1
    47     9    44    1
    48    10    45    1
    49    13    46    1
    50    14    47    1
    51    15    48    1
    52    16    49    1
    53    19    50    1
    54    19    51    1
    55    20    52    1
    56    20    53    1
    57    21    54    1
    58    21    55    1
    59    24    56    1
    60    25    57    1
    61    26    58    1
    62    32    59    1
    63    34    60    1
    64    35    61    1
