
     RDKit          3D

 61 64  0  0  0  0  0  0  0  0999 V2000
   -3.7886    3.1384    0.7498 C   0  0  0  0  0  0  0  0  0  0  0  0
   -2.5902    3.5563   -0.0445 C   0  0  0  0  0  0  0  0  0  0  0  0
   -2.5936    2.9613   -1.4422 C   0  0  0  0  0  0  0  0  0  0  0  0
   -2.5919    1.4909   -1.3525 C   0  0  0  0  0  0  0  0  0  0  0  0
   -3.7578    0.8110   -1.5986 C   0  0  0  0  0  0  0  0  0  0  0  0
   -3.8024   -0.5616   -1.5268 C   0  0  0  0  0  0  0  0  0  0  0  0
   -4.9947   -1.2592   -1.7781 O   0  0  0  0  0  0  0  0  0  0  0  0
   -5.8040   -1.4802   -0.6625 C   0  0  0  0  0  0  0  0  0  0  0  0
   -6.7822   -0.5457   -0.3065 C   0  0  0  0  0  0  0  0  0  0  0  0
   -7.5805   -0.7669    0.7967 C   0  0  0  0  0  0  0  0  0  0  0  0
   -7.4120   -1.9144    1.5503 C   0  0  0  0  0  0  0  0  0  0  0  0
   -8.4165   -2.2244    2.9646 Cl  0  0  0  0  0  0  0  0  0  0  0  0
   -6.4425   -2.8050    1.1680 C   0  0  0  0  0  0  0  0  0  0  0  0
   -5.6223   -2.6266    0.0749 C   0  0  0  0  0  0  0  0  0  0  0  0
   -2.6440   -1.2299   -1.2016 C   0  0  0  0  0  0  0  0  0  0  0  0
   -1.4563   -0.5482   -0.9504 C   0  0  0  0  0  0  0  0  0  0  0  0
   -1.3927    0.8206   -1.0167 C   0  0  0  0  0  0  0  0  0  0  0  0
   -0.3215    1.5401   -0.7978 O   0  0  0  0  0  0  0  0  0  0  0  0
    0.9580    1.6272   -0.4810 C   0  0  0  0  0  0  0  0  0  0  0  0
    1.4641    1.1645    0.8560 C   0  0  0  0  0  0  0  0  0  0  0  0
    1.2854   -0.2664    1.1830 C   0  0  0  0  0  0  0  0  0  0  0  0
    1.8717   -1.2055    0.3690 O   0  0  0  0  0  0  0  0  0  0  0  0
    3.1575   -1.5076    0.0522 C   0  0  0  0  0  0  0  0  0  0  0  0
    3.4256   -2.5494   -0.8652 C   0  0  0  0  0  0  0  0  0  0  0  0
    4.7008   -2.8938   -1.2152 C   0  0  0  0  0  0  0  0  0  0  0  0
    5.8007   -2.2187   -0.6707 C   0  0  0  0  0  0  0  0  0  0  0  0
    5.5793   -1.2116    0.2150 C   0  0  0  0  0  0  0  0  0  0  0  0
    6.6600   -0.4696    0.8177 C   0  0  0  0  0  0  0  0  0  0  0  0
    6.4938    0.8586    1.9829 S   0  0  0  0  0  0  0  0  0  0  0  0
    8.2809    1.1676    2.1782 C   0  0  0  0  0  0  0  0  0  0  0  0
    8.7662    2.0334    2.9130 O   0  0  0  0  0  0  0  0  0  0  0  0
    8.7840    0.2641    1.3694 N   0  0  0  0  0  0  0  0  0  0  0  0
    8.0512   -0.5571    0.6837 C   0  0  0  0  0  0  0  0  0  0  0  0
    8.6344   -1.5386   -0.1964 O   0  0  0  0  0  0  0  0  0  0  0  0
    4.2538   -0.8714    0.5637 C   0  0  0  0  0  0  0  0  0  0  0  0
   -4.7209    3.1743    0.1559 H   0  0  0  0  0  0  0  0  0  0  0  0
   -3.9255    3.8812    1.5838 H   0  0  0  0  0  0  0  0  0  0  0  0
   -3.6655    2.1514    1.2458 H   0  0  0  0  0  0  0  0  0  0  0  0
   -1.6676    3.2787    0.5029 H   0  0  0  0  0  0  0  0  0  0  0  0
   -2.5965    4.6698   -0.0956 H   0  0  0  0  0  0  0  0  0  0  0  0
   -3.5010    3.3059   -1.9737 H   0  0  0  0  0  0  0  0  0  0  0  0
   -1.7293    3.3635   -2.0022 H   0  0  0  0  0  0  0  0  0  0  0  0
   -4.6855    1.3206   -1.8578 H   0  0  0  0  0  0  0  0  0  0  0  0
   -6.8950    0.3447   -0.9121 H   0  0  0  0  0  0  0  0  0  0  0  0
   -8.3504   -0.0560    1.0970 H   0  0  0  0  0  0  0  0  0  0  0  0
   -6.2887   -3.7167    1.7438 H   0  0  0  0  0  0  0  0  0  0  0  0
   -4.8748   -3.3678   -0.1746 H   0  0  0  0  0  0  0  0  0  0  0  0
   -2.6706   -2.2960   -1.1438 H   0  0  0  0  0  0  0  0  0  0  0  0
   -0.6063   -1.1641   -0.7163 H   0  0  0  0  0  0  0  0  0  0  0  0
    1.5754    1.0140   -1.2321 H   0  0  0  0  0  0  0  0  0  0  0  0
    1.3148    2.7017   -0.5662 H   0  0  0  0  0  0  0  0  0  0  0  0
    2.5043    1.4807    1.0354 H   0  0  0  0  0  0  0  0  0  0  0  0
    0.8866    1.7349    1.6685 H   0  0  0  0  0  0  0  0  0  0  0  0
    1.7834   -0.3992    2.2081 H   0  0  0  0  0  0  0  0  0  0  0  0
    0.2150   -0.5172    1.4278 H   0  0  0  0  0  0  0  0  0  0  0  0
    2.5415   -3.0490   -1.2654 H   0  0  0  0  0  0  0  0  0  0  0  0
    4.8932   -3.6879   -1.9139 H   0  0  0  0  0  0  0  0  0  0  0  0
    6.7972   -2.5042   -0.9586 H   0  0  0  0  0  0  0  0  0  0  0  0
    9.8856    0.2353    1.2984 H   0  0  0  0  0  0  0  0  0  0  0  0
    9.4718   -2.0108    0.1038 H   0  0  0  0  0  0  0  0  0  0  0  0
    4.1350   -0.0697    1.2886 H   0  0  0  0  0  0  0  0  0  0  0  0
  1  2  1  0
  2  3  1  0
  3  4  1  0
  4  5  2  0
  5  6  1  0
  6  7  1  0
  7  8  1  0
  8  9  2  0
  9 10  1  0
 10 11  2  0
 11 12  1  0
 11 13  1  0
 13 14  2  0
  6 15  2  0
 15 16  1  0
 16 17  2  0
 17 18  1  0
 18 19  1  0
 19 20  1  0
 20 21  1  0
 21 22  1  0
 22 23  1  0
 23 24  2  0
 24 25  1  0
 25 26  2  0
 26 27  1  0
 27 28  1  0
 28 29  1  0
 29 30  1  0
 30 31  2  0
 30 32  1  0
 32 33  1  0
 33 34  1  0
 27 35  2  0
 17  4  1  0
 35 23  1  0
 14  8  1  0
 33 28  2  0
  1 36  1  0
  1 37  1  0
  1 38  1  0
  2 39  1  0
  2 40  1  0
  3 41  1  0
  3 42  1  0
  5 43  1  0
  9 44  1  0
 10 45  1  0
 13 46  1  0
 14 47  1  0
 15 48  1  0
 16 49  1  0
 19 50  1  0
 19 51  1  0
 20 52  1  0
 20 53  1  0
 21 54  1  0
 21 55  1  0
 24 56  1  0
 25 57  1  0
 26 58  1  0
 32 59  1  0
 34 60  1  0
 35 61  1  0
M  END
$$$$
