
     RDKit          3D

 62 65  0  0  0  0  0  0  0  0999 V2000
   -3.7940   -0.6358    2.0127 O   0  0  0  0  0  0  0  0  0  0  0  0
   -4.6484    0.0634    1.3655 C   0  0  0  0  0  0  0  0  0  0  0  0
   -4.1084    1.0772    0.5526 N   0  0  0  0  0  0  0  0  0  0  0  0
   -2.6893    1.3545    0.4213 C   0  0  2  0  0  0  0  0  0  0  0  0
   -2.3882    2.7982    0.7597 C   0  0  0  0  0  0  0  0  0  0  0  0
   -2.3185    3.5313   -0.5588 C   0  0  0  0  0  0  0  0  0  0  0  0
   -3.4133    4.3923   -0.7343 O   0  0  0  0  0  0  0  0  0  0  0  0
   -2.3751    2.5056   -1.6624 C   0  0  0  0  0  0  0  0  0  0  0  0
   -2.1797    1.1565   -0.9882 C   0  0  1  0  0  0  0  0  0  0  0  0
   -0.8180    0.7815   -1.0211 O   0  0  0  0  0  0  0  0  0  0  0  0
   -0.2944   -0.3668   -1.5459 C   0  0  0  0  0  0  0  0  0  0  0  0
   -1.1208   -1.1914   -2.0631 O   0  0  0  0  0  0  0  0  0  0  0  0
    1.1268   -0.6905   -1.5465 C   0  0  0  0  0  0  0  0  0  0  0  0
    1.5887   -1.8689   -2.0986 C   0  0  0  0  0  0  0  0  0  0  0  0
    2.9276   -2.1900   -2.1111 C   0  0  0  0  0  0  0  0  0  0  0  0
    3.3154   -3.3999   -2.6875 O   0  0  0  0  0  0  0  0  0  0  0  0
    3.8903   -1.3265   -1.5591 C   0  0  0  0  0  0  0  0  0  0  0  0
    5.2722   -1.6732   -1.7078 C   0  0  0  0  0  0  0  0  0  0  0  0
    5.6126   -2.4624   -2.6668 O   0  0  0  0  0  0  0  0  0  0  0  0
    6.3318   -1.1873   -0.8579 C   0  0  0  0  0  0  0  0  0  0  0  0
    7.5234   -0.8204   -1.5184 C   0  0  0  0  0  0  0  0  0  0  0  0
    7.6294   -0.8996   -2.9018 O   0  0  0  0  0  0  0  0  0  0  0  0
    8.5860   -0.3817   -0.7888 C   0  0  0  0  0  0  0  0  0  0  0  0
    8.5539   -0.2766    0.5847 C   0  0  0  0  0  0  0  0  0  0  0  0
    7.3901   -0.6405    1.2131 C   0  0  0  0  0  0  0  0  0  0  0  0
    6.2851   -1.0977    0.4910 C   0  0  0  0  0  0  0  0  0  0  0  0
    5.2001   -1.6653    1.2959 C   0  0  0  0  0  0  0  0  0  0  0  0
    4.2880   -2.3604    0.8371 O   0  0  0  0  0  0  0  0  0  0  0  0
    5.1814   -1.4099    2.6830 O   0  0  0  0  0  0  0  0  0  0  0  0
    3.4381   -0.1314   -0.9985 C   0  0  0  0  0  0  0  0  0  0  0  0
    4.3671    0.7488   -0.4494 O   0  0  0  0  0  0  0  0  0  0  0  0
    2.0994    0.1235   -1.0189 C   0  0  0  0  0  0  0  0  0  0  0  0
   -6.0772   -0.2109    1.4941 C   0  0  0  0  0  0  0  0  0  0  0  0
   -7.0577    0.4923    0.8384 C   0  0  0  0  0  0  0  0  0  0  0  0
   -8.4034    0.2035    0.9875 C   0  0  0  0  0  0  0  0  0  0  0  0
   -8.8204   -0.8300    1.8237 C   0  0  0  0  0  0  0  0  0  0  0  0
  -10.1780   -1.1162    1.9698 O   0  0  0  0  0  0  0  0  0  0  0  0
   -7.8327   -1.5323    2.4789 C   0  0  0  0  0  0  0  0  0  0  0  0
   -6.4910   -1.2346    2.3223 C   0  0  0  0  0  0  0  0  0  0  0  0
   -4.7953    1.6760    0.0015 H   0  0  0  0  0  0  0  0  0  0  0  0
   -2.1168    0.6839    1.0772 H   0  0  0  0  0  0  0  0  0  0  0  0
   -3.2652    3.2002    1.3092 H   0  0  0  0  0  0  0  0  0  0  0  0
   -1.5186    2.9380    1.3912 H   0  0  0  0  0  0  0  0  0  0  0  0
   -1.3879    4.1322   -0.5667 H   0  0  0  0  0  0  0  0  0  0  0  0
   -3.5801    4.5727   -1.6917 H   0  0  0  0  0  0  0  0  0  0  0  0
   -1.4810    2.6741   -2.3079 H   0  0  0  0  0  0  0  0  0  0  0  0
   -3.2523    2.5649   -2.2991 H   0  0  0  0  0  0  0  0  0  0  0  0
   -2.7534    0.3414   -1.4649 H   0  0  0  0  0  0  0  0  0  0  0  0
    0.8407   -2.5458   -2.5334 H   0  0  0  0  0  0  0  0  0  0  0  0
    3.5995   -4.1422   -2.0568 H   0  0  0  0  0  0  0  0  0  0  0  0
    8.2813   -1.5266   -3.3545 H   0  0  0  0  0  0  0  0  0  0  0  0
    9.5258   -0.0858   -1.2590 H   0  0  0  0  0  0  0  0  0  0  0  0
    9.4235    0.0788    1.1224 H   0  0  0  0  0  0  0  0  0  0  0  0
    7.3400   -0.5667    2.2755 H   0  0  0  0  0  0  0  0  0  0  0  0
    4.2997   -1.5476    3.1622 H   0  0  0  0  0  0  0  0  0  0  0  0
    4.1667    1.3577    0.3317 H   0  0  0  0  0  0  0  0  0  0  0  0
    1.7649    1.0626   -0.5746 H   0  0  0  0  0  0  0  0  0  0  0  0
   -6.7777    1.3011    0.1811 H   0  0  0  0  0  0  0  0  0  0  0  0
   -9.1777    0.7610    0.4665 H   0  0  0  0  0  0  0  0  0  0  0  0
  -10.8553   -0.4039    2.2586 H   0  0  0  0  0  0  0  0  0  0  0  0
   -8.1540   -2.3431    3.1322 H   0  0  0  0  0  0  0  0  0  0  0  0
   -5.7254   -1.8115    2.8572 H   0  0  0  0  0  0  0  0  0  0  0  0
  1  2  2  0
  2  3  1  0
  3  4  1  0
  4  5  1  0
  5  6  1  0
  6  7  1  0
  6  8  1  0
  8  9  1  0
  9 10  1  0
 10 11  1  0
 11 12  2  0
 11 13  1  0
 13 14  2  0
 14 15  1  0
 15 16  1  0
 15 17  2  0
 17 18  1  0
 18 19  2  0
 18 20  1  0
 20 21  2  0
 21 22  1  0
 21 23  1  0
 23 24  2  0
 24 25  1  0
 25 26  2  0
 26 27  1  0
 27 28  2  0
 27 29  1  0
 17 30  1  0
 30 31  1  0
 30 32  2  0
  2 33  1  0
 33 34  2  0
 34 35  1  0
 35 36  2  0
 36 37  1  0
 36 38  1  0
 38 39  2  0
  9  4  1  0
 32 13  1  0
 39 33  1  0
 26 20  1  0
  3 40  1  0
  4 41  1  1
  5 42  1  0
  5 43  1  0
  6 44  1  0
  7 45  1  0
  8 46  1  0
  8 47  1  0
  9 48  1  6
 14 49  1  0
 16 50  1  0
 22 51  1  0
 23 52  1  0
 24 53  1  0
 25 54  1  0
 29 55  1  0
 31 56  1  0
 32 57  1  0
 34 58  1  0
 35 59  1  0
 37 60  1  0
 38 61  1  0
 39 62  1  0
M  END
$$$$
