@<TRIPOS>MOLECULE
*****
 62 65 0 0 0
SMALL
GASTEIGER

@<TRIPOS>ATOM
      1 O          -3.7940   -0.6358    2.0127 O.2     1  UNL1       -0.2702
      2 C          -4.6484    0.0634    1.3655 C.2     1  UNL1        0.2444
      3 N          -4.1084    1.0772    0.5526 N.am    1  UNL1       -0.3049
      4 C          -2.6893    1.3545    0.4213 C.3     1  UNL1        0.0628
      5 C          -2.3882    2.7982    0.7597 C.3     1  UNL1       -0.0048
      6 C          -2.3185    3.5313   -0.5588 C.3     1  UNL1        0.0605
      7 O          -3.4133    4.3923   -0.7343 O.3     1  UNL1       -0.3916
      8 C          -2.3751    2.5056   -1.6624 C.3     1  UNL1        0.0123
      9 C          -2.1797    1.1565   -0.9882 C.3     1  UNL1        0.1240
     10 O          -0.8180    0.7815   -1.0211 O.3     1  UNL1       -0.4559
     11 C          -0.2944   -0.3668   -1.5459 C.2     1  UNL1        0.3397
     12 O          -1.1208   -1.1914   -2.0631 O.2     1  UNL1       -0.2449
     13 C           1.1268   -0.6905   -1.5465 C.ar    1  UNL1        0.0659
     14 C           1.5887   -1.8689   -2.0986 C.ar    1  UNL1       -0.0053
     15 C           2.9276   -2.1900   -2.1111 C.ar    1  UNL1        0.1320
     16 O           3.3154   -3.3999   -2.6875 O.3     1  UNL1       -0.5059
     17 C           3.8903   -1.3265   -1.5591 C.ar    1  UNL1        0.1050
     18 C           5.2722   -1.6732   -1.7078 C.2     1  UNL1        0.2044
     19 O           5.6126   -2.4624   -2.6668 O.2     1  UNL1       -0.2863
     20 C           6.3318   -1.1873   -0.8579 C.ar    1  UNL1        0.0778
     21 C           7.5234   -0.8204   -1.5184 C.ar    1  UNL1        0.1285
     22 O           7.6294   -0.8996   -2.9018 O.3     1  UNL1       -0.5060
     23 C           8.5860   -0.3817   -0.7888 C.ar    1  UNL1       -0.0194
     24 C           8.5539   -0.2766    0.5847 C.ar    1  UNL1       -0.0575
     25 C           7.3901   -0.6405    1.2131 C.ar    1  UNL1       -0.0468
     26 C           6.2851   -1.0977    0.4910 C.ar    1  UNL1        0.0731
     27 C           5.2001   -1.6653    1.2959 C.2     1  UNL1        0.3376
     28 O           4.2880   -2.3604    0.8371 O.2     1  UNL1       -0.2451
     29 O           5.1814   -1.4099    2.6830 O.3     1  UNL1       -0.4771
     30 C           3.4381   -0.1314   -0.9985 C.ar    1  UNL1        0.1320
     31 O           4.3671    0.7488   -0.4494 O.3     1  UNL1       -0.5059
     32 C           2.0994    0.1235   -1.0189 C.ar    1  UNL1       -0.0053
     33 C          -6.0772   -0.2109    1.4941 C.ar    1  UNL1        0.0369
     34 C          -7.0577    0.4923    0.8384 C.ar    1  UNL1       -0.0462
     35 C          -8.4034    0.2035    0.9875 C.ar    1  UNL1       -0.0195
     36 C          -8.8204   -0.8300    1.8237 C.ar    1  UNL1        0.1169
     37 O         -10.1780   -1.1162    1.9698 O.3     1  UNL1       -0.5068
     38 C          -7.8327   -1.5323    2.4789 C.ar    1  UNL1       -0.0195
     39 C          -6.4910   -1.2346    2.3223 C.ar    1  UNL1       -0.0462
     40 H          -4.7953    1.6760    0.0015 H       1  UNL1        0.1494
     41 H          -2.1168    0.6839    1.0772 H       1  UNL1        0.0536
     42 H          -3.2652    3.2002    1.3092 H       1  UNL1        0.0309
     43 H          -1.5186    2.9380    1.3912 H       1  UNL1        0.0309
     44 H          -1.3879    4.1322   -0.5667 H       1  UNL1        0.0595
     45 H          -3.5801    4.5727   -1.6917 H       1  UNL1        0.2098
     46 H          -1.4810    2.6741   -2.3079 H       1  UNL1        0.0326
     47 H          -3.2523    2.5649   -2.2991 H       1  UNL1        0.0326
     48 H          -2.7534    0.3414   -1.4649 H       1  UNL1        0.0753
     49 H           0.8407   -2.5458   -2.5334 H       1  UNL1        0.0662
     50 H           3.5995   -4.1422   -2.0568 H       1  UNL1        0.2922
     51 H           8.2813   -1.5266   -3.3545 H       1  UNL1        0.2922
     52 H           9.5258   -0.0858   -1.2590 H       1  UNL1        0.0654
     53 H           9.4235    0.0788    1.1224 H       1  UNL1        0.0619
     54 H           7.3400   -0.5667    2.2755 H       1  UNL1        0.0626
     55 H           4.2997   -1.5476    3.1622 H       1  UNL1        0.2954
     56 H           4.1667    1.3577    0.3317 H       1  UNL1        0.2922
     57 H           1.7649    1.0626   -0.5746 H       1  UNL1        0.0662
     58 H          -6.7777    1.3011    0.1811 H       1  UNL1        0.0626
     59 H          -9.1777    0.7610    0.4665 H       1  UNL1        0.0654
     60 H         -10.8553   -0.4039    2.2586 H       1  UNL1        0.2921
     61 H          -8.1540   -2.3431    3.1322 H       1  UNL1        0.0654
     62 H          -5.7254   -1.8115    2.8572 H       1  UNL1        0.0626
@<TRIPOS>BOND
     1     1     2    2
     2     2     3   am
     3     3     4    1
     4     4     5    1
     5     5     6    1
     6     6     7    1
     7     6     8    1
     8     8     9    1
     9     9    10    1
    10    10    11    1
    11    11    12    2
    12    11    13    1
    13    13    14   ar
    14    14    15   ar
    15    15    16    1
    16    15    17   ar
    17    17    18    1
    18    18    19    2
    19    18    20    1
    20    20    21   ar
    21    21    22    1
    22    21    23   ar
    23    23    24   ar
    24    24    25   ar
    25    25    26   ar
    26    26    27    1
    27    27    28    2
    28    27    29    1
    29    17    30   ar
    30    30    31    1
    31    30    32   ar
    32     2    33    1
    33    33    34   ar
    34    34    35   ar
    35    35    36   ar
    36    36    37    1
    37    36    38   ar
    38    38    39   ar
    39     9     4    1
    40    32    13   ar
    41    39    33   ar
    42    26    20   ar
    43     3    40    1
    44     4    41    1
    45     5    42    1
    46     5    43    1
    47     6    44    1
    48     7    45    1
    49     8    46    1
    50     8    47    1
    51     9    48    1
    52    14    49    1
    53    16    50    1
    54    22    51    1
    55    23    52    1
    56    24    53    1
    57    25    54    1
    58    29    55    1
    59    31    56    1
    60    32    57    1
    61    34    58    1
    62    35    59    1
    63    37    60    1
    64    38    61    1
    65    39    62    1
