@<TRIPOS>MOLECULE
*****
 50 54 0 0 0
SMALL
GASTEIGER

@<TRIPOS>ATOM
      1 O           0.0635    3.2475   -1.7505 O.2     1  UNL1       -0.2490
      2 C           0.8405    3.9387   -1.0490 C.2     1  UNL1        0.3247
      3 O           1.4625    5.0313   -1.6561 O.3     1  UNL1       -0.4794
      4 C           1.1306    3.6564    0.3834 C.3     1  UNL1        0.1202
      5 N           0.3930    2.4921    0.8225 N.ar    1  UNL1       -0.3356
      6 C          -0.8416    2.5438    1.3499 C.ar    1  UNL1        0.0099
      7 C          -1.2223    1.2584    1.6477 C.ar    1  UNL1       -0.0158
      8 C          -2.4969    0.8619    2.2415 C.3     1  UNL1        0.0233
      9 C          -3.4228    0.2693    1.2262 C.ar    1  UNL1        0.0841
     10 N          -3.7669   -0.7180    0.6949 N.ar    1  UNL1       -0.2406
     11 C          -4.6698   -0.9334   -0.2160 C.ar    1  UNL1        0.1192
     12 C          -5.0700   -2.1251   -0.8416 C.ar    1  UNL1        0.1849
     13 F          -4.4883   -3.3230   -0.5263 F       1  UNL1       -0.2002
     14 C          -6.0470   -2.1464   -1.7829 C.ar    1  UNL1        0.1633
     15 F          -6.4000   -3.3532   -2.3666 F       1  UNL1       -0.2023
     16 C          -6.7222   -1.0322   -2.2042 C.ar    1  UNL1        0.0129
     17 C          -6.3503    0.1797   -1.6017 C.ar    1  UNL1        0.1420
     18 F          -6.9405    1.3422   -1.9324 F       1  UNL1       -0.2042
     19 C          -5.3629    0.1816   -0.6544 C.ar    1  UNL1        0.0773
     20 S          -4.5970    1.4846    0.3462 S.2     1  UNL1       -0.0688
     21 C          -0.1883    0.4276    1.2875 C.ar    1  UNL1        0.0035
     22 C           0.0266   -0.9355    1.3379 C.ar    1  UNL1       -0.0506
     23 C           1.1902   -1.5249    0.8991 C.ar    1  UNL1       -0.0400
     24 C           2.2246   -0.7422    0.3721 C.ar    1  UNL1        0.0318
     25 N           3.4289   -1.3491   -0.0779 N.pl3   1  UNL1       -0.3255
     26 C           4.4932   -0.5018   -0.5423 C.3     1  UNL1        0.0357
     27 C           5.8252   -1.2069   -0.6449 C.3     1  UNL1        0.0634
     28 O           5.8230   -2.5013   -0.1905 O.3     1  UNL1       -0.3767
     29 C           4.7733   -3.2180   -0.7784 C.3     1  UNL1        0.0634
     30 C           3.5174   -2.7948   -0.0419 C.3     1  UNL1        0.0357
     31 C           1.9978    0.6165    0.3268 C.ar    1  UNL1       -0.0165
     32 C           0.8376    1.2188    0.7627 C.ar    1  UNL1        0.0516
     33 H           1.0406    5.4861   -2.4591 H       1  UNL1        0.2951
     34 H           0.7532    4.5302    0.9484 H       1  UNL1        0.0607
     35 H           2.2283    3.5349    0.5377 H       1  UNL1        0.0607
     36 H          -1.4421    3.4538    1.5145 H       1  UNL1        0.0812
     37 H          -2.3561    0.1271    3.0605 H       1  UNL1        0.0383
     38 H          -2.9979    1.7389    2.7514 H       1  UNL1        0.0383
     39 H          -7.4849   -1.0849   -2.9464 H       1  UNL1        0.0676
     40 H          -0.7486   -1.5717    1.7380 H       1  UNL1        0.0625
     41 H           1.3205   -2.5936    0.9547 H       1  UNL1        0.0636
     42 H           4.5762    0.4208    0.1068 H       1  UNL1        0.0486
     43 H           4.2066   -0.1226   -1.5527 H       1  UNL1        0.0486
     44 H           6.2639   -1.1427   -1.6660 H       1  UNL1        0.0575
     45 H           6.5439   -0.6386    0.0120 H       1  UNL1        0.0575
     46 H           4.9636   -4.3082   -0.5533 H       1  UNL1        0.0575
     47 H           4.6846   -3.0195   -1.8539 H       1  UNL1        0.0575
     48 H           2.6391   -3.2559   -0.5342 H       1  UNL1        0.0486
     49 H           3.6121   -3.1751    0.9998 H       1  UNL1        0.0486
     50 H           2.7561    1.2765   -0.0710 H       1  UNL1        0.0657
@<TRIPOS>BOND
     1     1     2    2
     2     2     3    1
     3     2     4    1
     4     4     5    1
     5     5     6   ar
     6     6     7   ar
     7     7     8    1
     8     8     9    1
     9     9    10   ar
    10    10    11   ar
    11    11    12   ar
    12    12    13    1
    13    12    14   ar
    14    14    15    1
    15    14    16   ar
    16    16    17   ar
    17    17    18    1
    18    17    19   ar
    19    19    20   ar
    20     7    21   ar
    21    21    22   ar
    22    22    23   ar
    23    23    24   ar
    24    24    25    1
    25    25    26    1
    26    26    27    1
    27    27    28    1
    28    28    29    1
    29    29    30    1
    30    24    31   ar
    31    31    32   ar
    32    32     5   ar
    33    20     9   ar
    34    32    21   ar
    35    19    11   ar
    36    30    25    1
    37     3    33    1
    38     4    34    1
    39     4    35    1
    40     6    36    1
    41     8    37    1
    42     8    38    1
    43    16    39    1
    44    22    40    1
    45    23    41    1
    46    26    42    1
    47    26    43    1
    48    27    44    1
    49    27    45    1
    50    29    46    1
    51    29    47    1
    52    30    48    1
    53    30    49    1
    54    31    50    1
