
     RDKit          3D

 50 54  0  0  0  0  0  0  0  0999 V2000
    0.0635    3.2475   -1.7505 O   0  0  0  0  0  0  0  0  0  0  0  0
    0.8405    3.9387   -1.0490 C   0  0  0  0  0  0  0  0  0  0  0  0
    1.4625    5.0313   -1.6561 O   0  0  0  0  0  0  0  0  0  0  0  0
    1.1306    3.6564    0.3834 C   0  0  0  0  0  0  0  0  0  0  0  0
    0.3930    2.4921    0.8225 N   0  0  0  0  0  0  0  0  0  0  0  0
   -0.8416    2.5438    1.3499 C   0  0  0  0  0  0  0  0  0  0  0  0
   -1.2223    1.2584    1.6477 C   0  0  0  0  0  0  0  0  0  0  0  0
   -2.4969    0.8619    2.2415 C   0  0  0  0  0  0  0  0  0  0  0  0
   -3.4228    0.2693    1.2262 C   0  0  0  0  0  0  0  0  0  0  0  0
   -3.7669   -0.7180    0.6949 N   0  0  0  0  0  0  0  0  0  0  0  0
   -4.6698   -0.9334   -0.2160 C   0  0  0  0  0  0  0  0  0  0  0  0
   -5.0700   -2.1251   -0.8416 C   0  0  0  0  0  0  0  0  0  0  0  0
   -4.4883   -3.3230   -0.5263 F   0  0  0  0  0  0  0  0  0  0  0  0
   -6.0470   -2.1464   -1.7829 C   0  0  0  0  0  0  0  0  0  0  0  0
   -6.4000   -3.3532   -2.3666 F   0  0  0  0  0  0  0  0  0  0  0  0
   -6.7222   -1.0322   -2.2042 C   0  0  0  0  0  0  0  0  0  0  0  0
   -6.3503    0.1797   -1.6017 C   0  0  0  0  0  0  0  0  0  0  0  0
   -6.9405    1.3422   -1.9324 F   0  0  0  0  0  0  0  0  0  0  0  0
   -5.3629    0.1816   -0.6544 C   0  0  0  0  0  0  0  0  0  0  0  0
   -4.5970    1.4846    0.3462 S   0  0  0  0  0  0  0  0  0  0  0  0
   -0.1883    0.4276    1.2875 C   0  0  0  0  0  0  0  0  0  0  0  0
    0.0266   -0.9355    1.3379 C   0  0  0  0  0  0  0  0  0  0  0  0
    1.1902   -1.5249    0.8991 C   0  0  0  0  0  0  0  0  0  0  0  0
    2.2246   -0.7422    0.3721 C   0  0  0  0  0  0  0  0  0  0  0  0
    3.4289   -1.3491   -0.0779 N   0  0  0  0  0  0  0  0  0  0  0  0
    4.4932   -0.5018   -0.5423 C   0  0  0  0  0  0  0  0  0  0  0  0
    5.8252   -1.2069   -0.6449 C   0  0  0  0  0  0  0  0  0  0  0  0
    5.8230   -2.5013   -0.1905 O   0  0  0  0  0  0  0  0  0  0  0  0
    4.7733   -3.2180   -0.7784 C   0  0  0  0  0  0  0  0  0  0  0  0
    3.5174   -2.7948   -0.0419 C   0  0  0  0  0  0  0  0  0  0  0  0
    1.9978    0.6165    0.3268 C   0  0  0  0  0  0  0  0  0  0  0  0
    0.8376    1.2188    0.7627 C   0  0  0  0  0  0  0  0  0  0  0  0
    1.0406    5.4861   -2.4591 H   0  0  0  0  0  0  0  0  0  0  0  0
    0.7532    4.5302    0.9484 H   0  0  0  0  0  0  0  0  0  0  0  0
    2.2283    3.5349    0.5377 H   0  0  0  0  0  0  0  0  0  0  0  0
   -1.4421    3.4538    1.5145 H   0  0  0  0  0  0  0  0  0  0  0  0
   -2.3561    0.1271    3.0605 H   0  0  0  0  0  0  0  0  0  0  0  0
   -2.9979    1.7389    2.7514 H   0  0  0  0  0  0  0  0  0  0  0  0
   -7.4849   -1.0849   -2.9464 H   0  0  0  0  0  0  0  0  0  0  0  0
   -0.7486   -1.5717    1.7380 H   0  0  0  0  0  0  0  0  0  0  0  0
    1.3205   -2.5936    0.9547 H   0  0  0  0  0  0  0  0  0  0  0  0
    4.5762    0.4208    0.1068 H   0  0  0  0  0  0  0  0  0  0  0  0
    4.2066   -0.1226   -1.5527 H   0  0  0  0  0  0  0  0  0  0  0  0
    6.2639   -1.1427   -1.6660 H   0  0  0  0  0  0  0  0  0  0  0  0
    6.5439   -0.6386    0.0120 H   0  0  0  0  0  0  0  0  0  0  0  0
    4.9636   -4.3082   -0.5533 H   0  0  0  0  0  0  0  0  0  0  0  0
    4.6846   -3.0195   -1.8539 H   0  0  0  0  0  0  0  0  0  0  0  0
    2.6391   -3.2559   -0.5342 H   0  0  0  0  0  0  0  0  0  0  0  0
    3.6121   -3.1751    0.9998 H   0  0  0  0  0  0  0  0  0  0  0  0
    2.7561    1.2765   -0.0710 H   0  0  0  0  0  0  0  0  0  0  0  0
  1  2  2  0
  2  3  1  0
  2  4  1  0
  4  5  1  0
  5  6  1  0
  6  7  2  0
  7  8  1  0
  8  9  1  0
  9 10  2  0
 10 11  1  0
 11 12  2  0
 12 13  1  0
 12 14  1  0
 14 15  1  0
 14 16  2  0
 16 17  1  0
 17 18  1  0
 17 19  2  0
 19 20  1  0
  7 21  1  0
 21 22  2  0
 22 23  1  0
 23 24  2  0
 24 25  1  0
 25 26  1  0
 26 27  1  0
 27 28  1  0
 28 29  1  0
 29 30  1  0
 24 31  1  0
 31 32  2  0
 32  5  1  0
 20  9  1  0
 32 21  1  0
 19 11  1  0
 30 25  1  0
  3 33  1  0
  4 34  1  0
  4 35  1  0
  6 36  1  0
  8 37  1  0
  8 38  1  0
 16 39  1  0
 22 40  1  0
 23 41  1  0
 26 42  1  0
 26 43  1  0
 27 44  1  0
 27 45  1  0
 29 46  1  0
 29 47  1  0
 30 48  1  0
 30 49  1  0
 31 50  1  0
M  END
$$$$
