@<TRIPOS>MOLECULE
*****
 72 74 0 0 0
SMALL
GASTEIGER

@<TRIPOS>ATOM
      1 C          -3.2793   -3.6570    2.2102 C.3     1  UNL1       -0.0443
      2 C          -2.6676   -4.8792    1.5655 C.3     1  UNL1        0.0789
      3 S          -1.2391   -4.5389    0.6209 S.O2    1  UNL1        0.0298
      4 O          -0.1408   -4.0906    1.5636 O.2     1  UNL1       -0.1582
      5 O          -0.7601   -5.8809    0.0550 O.2     1  UNL1       -0.1582
      6 N          -1.3980   -3.4874   -0.6769 N.3     1  UNL1       -0.1823
      7 C          -1.7952   -2.1390   -0.4514 C.3     1  UNL1        0.1084
      8 C          -3.0159   -1.8903   -1.3223 C.3     1  UNL1       -0.0002
      9 C          -3.5625   -0.5474   -1.2972 C.ar    1  UNL1       -0.0204
     10 C          -3.3221    0.2925   -2.4059 C.ar    1  UNL1        0.0060
     11 N          -3.8852    1.4908   -2.2534 N.ar    1  UNL1       -0.3604
     12 C          -4.5158    1.5335   -1.0803 C.ar    1  UNL1        0.0467
     13 C          -5.2583    2.4300   -0.3521 C.ar    1  UNL1       -0.0378
     14 C          -5.7866    2.1405    0.8819 C.ar    1  UNL1       -0.0598
     15 C          -5.5639    0.8722    1.4344 C.ar    1  UNL1       -0.0611
     16 C          -4.8280   -0.0228    0.7174 C.ar    1  UNL1       -0.0523
     17 C          -4.3110    0.2925   -0.5138 C.ar    1  UNL1        0.0029
     18 C          -0.6593   -1.2901   -0.9954 C.2     1  UNL1        0.2326
     19 O           0.1601   -2.0691   -1.5497 O.2     1  UNL1       -0.2740
     20 N          -0.5040    0.1207   -0.9176 N.am    1  UNL1       -0.3027
     21 C           0.6412    0.7715   -1.4985 C.3     1  UNL1        0.0998
     22 C           0.2257    1.8540   -2.4406 C.3     1  UNL1       -0.0177
     23 C          -0.5909    2.9321   -1.7598 C.3     1  UNL1        0.0259
     24 C          -0.9492    3.9341   -2.7954 C.2     1  UNL1        0.2106
     25 N          -1.7297    4.9340   -2.1065 N.am    1  UNL1       -0.3293
     26 O          -1.1211    4.6234   -3.8118 O.2     1  UNL1       -0.2760
     27 C           1.5801    1.2693   -0.4519 C.2     1  UNL1        0.2336
     28 O           1.1319    0.9503    0.6847 O.2     1  UNL1       -0.2738
     29 N           2.7667    1.9784   -0.7330 N.am    1  UNL1       -0.3097
     30 C           3.6387    2.4358    0.3067 C.3     1  UNL1        0.0369
     31 C           4.4884    1.3893    0.8939 C.ar    1  UNL1       -0.0303
     32 C           4.2106    0.5660    1.9624 C.ar    1  UNL1       -0.0563
     33 C           5.1244   -0.3764    2.3970 C.ar    1  UNL1       -0.0466
     34 C           6.3171   -0.4871    1.7543 C.ar    1  UNL1        0.0647
     35 C           6.6381    0.3068    0.6905 C.ar    1  UNL1       -0.0466
     36 C           5.7195    1.2604    0.2461 C.ar    1  UNL1       -0.0563
     37 C           7.3225   -1.4792    2.1846 C.2     1  UNL1        0.3081
     38 N           7.3957   -1.8691    3.5471 N.pl3   1  UNL1       -0.2466
     39 N           8.1821   -2.0501    1.3957 N.2     1  UNL1       -0.0994
     40 H          -3.9377   -4.0093    3.0408 H       1  UNL1        0.0246
     41 H          -3.8797   -3.0816    1.4849 H       1  UNL1        0.0246
     42 H          -2.4907   -3.0167    2.6028 H       1  UNL1        0.0246
     43 H          -2.3631   -5.5498    2.4091 H       1  UNL1        0.0513
     44 H          -3.4345   -5.4641    1.0034 H       1  UNL1        0.0513
     45 H          -1.8960   -3.9533   -1.4673 H       1  UNL1        0.1485
     46 H          -2.0199   -1.8525    0.5755 H       1  UNL1        0.0576
     47 H          -2.7834   -2.2536   -2.3455 H       1  UNL1        0.0334
     48 H          -3.8520   -2.5830   -0.9871 H       1  UNL1        0.0334
     49 H          -2.7601    0.1001   -3.3313 H       1  UNL1        0.0810
     50 H          -3.8897    2.3169   -2.8825 H       1  UNL1        0.1653
     51 H          -5.4200    3.4060   -0.7938 H       1  UNL1        0.0638
     52 H          -6.3747    2.8405    1.4653 H       1  UNL1        0.0618
     53 H          -5.9747    0.6169    2.4157 H       1  UNL1        0.0618
     54 H          -4.6804   -0.9698    1.1607 H       1  UNL1        0.0624
     55 H          -1.2643    0.5901   -0.4207 H       1  UNL1        0.1495
     56 H           1.2168    0.0103   -2.0605 H       1  UNL1        0.0595
     57 H           1.1454    2.3266   -2.8488 H       1  UNL1        0.0292
     58 H          -0.3278    1.4532   -3.3092 H       1  UNL1        0.0292
     59 H           0.0462    3.4382   -0.9917 H       1  UNL1        0.0359
     60 H          -1.4972    2.5197   -1.2809 H       1  UNL1        0.0359
     61 H          -2.6403    5.4453   -1.9022 H       1  UNL1        0.1449
     62 H          -1.3152    5.5840   -1.3901 H       1  UNL1        0.1449
     63 H           2.9389    2.1319   -1.7587 H       1  UNL1        0.1491
     64 H           4.2212    3.2931   -0.0868 H       1  UNL1        0.0512
     65 H           2.9607    2.9046    1.0828 H       1  UNL1        0.0512
     66 H           3.2456    0.7161    2.4191 H       1  UNL1        0.0621
     67 H           4.8886   -1.0127    3.2348 H       1  UNL1        0.0626
     68 H           7.5968    0.1806    0.2159 H       1  UNL1        0.0626
     69 H           6.0613    1.8401   -0.5995 H       1  UNL1        0.0621
     70 H           8.3355   -1.6164    3.9650 H       1  UNL1        0.2884
     71 H           7.3365   -2.1962    4.5306 H       1  UNL1        0.2884
     72 H           8.1487   -1.7785    0.3871 H       1  UNL1        0.3633
@<TRIPOS>BOND
     1     1     2    1
     2     2     3    1
     3     3     4    2
     4     3     5    2
     5     3     6    1
     6     6     7    1
     7     7     8    1
     8     8     9    1
     9     9    10   ar
    10    10    11   ar
    11    11    12   ar
    12    12    13   ar
    13    13    14   ar
    14    14    15   ar
    15    15    16   ar
    16    16    17   ar
    17     7    18    1
    18    18    19    2
    19    18    20   am
    20    20    21    1
    21    21    22    1
    22    22    23    1
    23    23    24    1
    24    24    25   am
    25    24    26    2
    26    21    27    1
    27    27    28    2
    28    27    29   am
    29    29    30    1
    30    30    31    1
    31    31    32   ar
    32    32    33   ar
    33    33    34   ar
    34    34    35   ar
    35    35    36   ar
    36    34    37    1
    37    37    38    1
    38    37    39    2
    39    17     9   ar
    40    36    31   ar
    41    17    12   ar
    42     1    40    1
    43     1    41    1
    44     1    42    1
    45     2    43    1
    46     2    44    1
    47     6    45    1
    48     7    46    1
    49     8    47    1
    50     8    48    1
    51    10    49    1
    52    11    50    1
    53    13    51    1
    54    14    52    1
    55    15    53    1
    56    16    54    1
    57    20    55    1
    58    21    56    1
    59    22    57    1
    60    22    58    1
    61    23    59    1
    62    23    60    1
    63    25    61    1
    64    25    62    1
    65    29    63    1
    66    30    64    1
    67    30    65    1
    68    32    66    1
    69    33    67    1
    70    35    68    1
    71    36    69    1
    72    38    70    1
    73    38    71    1
    74    39    72    1
