
     RDKit          3D

 71 76  0  0  0  0  0  0  0  0999 V2000
   -4.2882   -1.5296    2.7319 C   0  0  0  0  0  0  0  0  0  0  0  0
   -4.6418   -0.8297    1.5118 N   0  0  0  0  0  0  0  0  0  0  0  0
   -4.1803   -1.0510    0.2714 C   0  0  0  0  0  0  0  0  0  0  0  0
   -4.7791   -0.1637   -0.6181 C   0  0  0  0  0  0  0  0  0  0  0  0
   -4.5296   -0.0735   -2.0741 C   0  0  0  0  0  0  0  0  0  0  0  0
   -3.3259   -0.0596   -2.6168 C   0  0  0  0  0  0  0  0  0  0  0  0
   -2.0087   -0.1206   -1.9590 C   0  0  0  0  0  0  0  0  0  0  0  0
   -0.9889   -0.9878   -2.3022 C   0  0  0  0  0  0  0  0  0  0  0  0
    0.1106   -0.8003   -1.5498 N   0  0  0  0  0  0  0  0  0  0  0  0
    1.3741   -1.5140   -1.6124 C   0  0  0  0  0  0  0  0  0  0  0  0
    1.7690   -2.0563   -0.3061 C   0  0  0  0  0  0  0  0  0  0  0  0
    3.1388   -1.7877    0.1729 C   0  0  0  0  0  0  0  0  0  0  0  0
    4.0460   -1.1453   -0.7069 N   0  0  0  0  0  0  0  0  0  0  0  0
    5.2265   -0.4869   -0.2601 C   0  0  0  0  0  0  0  0  0  0  0  0
    6.0349    0.0633   -1.0328 O   0  0  0  0  0  0  0  0  0  0  0  0
    5.5020   -0.4462    1.0836 O   0  0  0  0  0  0  0  0  0  0  0  0
    6.6335    0.1692    1.6634 C   0  0  0  0  0  0  0  0  0  0  0  0
    7.9257   -0.4100    1.2134 C   0  0  0  0  0  0  0  0  0  0  0  0
    6.6581    1.6591    1.3955 C   0  0  0  0  0  0  0  0  0  0  0  0
    6.4726    0.0255    3.1835 C   0  0  0  0  0  0  0  0  0  0  0  0
    3.7855   -1.1314   -2.1325 C   0  0  0  0  0  0  0  0  0  0  0  0
    2.3716   -0.5871   -2.2538 C   0  0  0  0  0  0  0  0  0  0  0  0
   -0.1962    0.2083   -0.7000 C   0  0  0  0  0  0  0  0  0  0  0  0
    0.5118    0.8557    0.2959 C   0  0  0  0  0  0  0  0  0  0  0  0
   -0.0544    1.8829    1.0154 C   0  0  0  0  0  0  0  0  0  0  0  0
   -1.3432    2.3107    0.7787 C   0  0  0  0  0  0  0  0  0  0  0  0
   -2.0632    1.6697   -0.2164 C   0  0  0  0  0  0  0  0  0  0  0  0
   -1.5057    0.6459   -0.9357 C   0  0  0  0  0  0  0  0  0  0  0  0
   -3.5146    0.0231   -4.0865 C   0  0  0  0  0  0  0  0  0  0  0  0
   -2.5570    0.0556   -4.9003 O   0  0  0  0  0  0  0  0  0  0  0  0
   -4.8906    0.0550   -4.3588 N   0  0  0  0  0  0  0  0  0  0  0  0
   -5.5487   -0.0051   -3.1103 C   0  0  0  0  0  0  0  0  0  0  0  0
   -6.7761   -0.0029   -2.9112 O   0  0  0  0  0  0  0  0  0  0  0  0
   -5.6221    0.6019    0.1513 C   0  0  0  0  0  0  0  0  0  0  0  0
   -6.4813    1.6455   -0.1085 C   0  0  0  0  0  0  0  0  0  0  0  0
   -7.2304    2.2613    0.8811 C   0  0  0  0  0  0  0  0  0  0  0  0
   -7.1406    1.8434    2.1885 C   0  0  0  0  0  0  0  0  0  0  0  0
   -6.2842    0.8007    2.4647 C   0  0  0  0  0  0  0  0  0  0  0  0
   -5.5367    0.1851    1.4838 C   0  0  0  0  0  0  0  0  0  0  0  0
   -5.0009   -2.3819    2.9238 H   0  0  0  0  0  0  0  0  0  0  0  0
   -4.4315   -0.8520    3.6129 H   0  0  0  0  0  0  0  0  0  0  0  0
   -3.2540   -1.8773    2.7578 H   0  0  0  0  0  0  0  0  0  0  0  0
   -3.4467   -1.8037   -0.0354 H   0  0  0  0  0  0  0  0  0  0  0  0
   -1.0650   -1.7295   -3.0832 H   0  0  0  0  0  0  0  0  0  0  0  0
    1.2233   -2.3381   -2.3723 H   0  0  0  0  0  0  0  0  0  0  0  0
    1.0260   -1.7636    0.4906 H   0  0  0  0  0  0  0  0  0  0  0  0
    1.6437   -3.1829   -0.3386 H   0  0  0  0  0  0  0  0  0  0  0  0
    3.6530   -2.7210    0.5549 H   0  0  0  0  0  0  0  0  0  0  0  0
    3.0965   -1.1497    1.1072 H   0  0  0  0  0  0  0  0  0  0  0  0
    8.2933    0.0797    0.3014 H   0  0  0  0  0  0  0  0  0  0  0  0
    8.6774   -0.1522    2.0182 H   0  0  0  0  0  0  0  0  0  0  0  0
    7.9302   -1.5151    1.1526 H   0  0  0  0  0  0  0  0  0  0  0  0
    6.1684    2.2234    2.2168 H   0  0  0  0  0  0  0  0  0  0  0  0
    7.7149    1.9538    1.2573 H   0  0  0  0  0  0  0  0  0  0  0  0
    6.1492    1.8946    0.4140 H   0  0  0  0  0  0  0  0  0  0  0  0
    5.4211    0.2211    3.4442 H   0  0  0  0  0  0  0  0  0  0  0  0
    6.7270   -1.0038    3.4699 H   0  0  0  0  0  0  0  0  0  0  0  0
    7.1006    0.7825    3.7130 H   0  0  0  0  0  0  0  0  0  0  0  0
    4.4385   -0.4145   -2.6856 H   0  0  0  0  0  0  0  0  0  0  0  0
    3.9007   -2.1114   -2.5998 H   0  0  0  0  0  0  0  0  0  0  0  0
    2.3756    0.4191   -1.7989 H   0  0  0  0  0  0  0  0  0  0  0  0
    2.1600   -0.4733   -3.3336 H   0  0  0  0  0  0  0  0  0  0  0  0
    1.5266    0.5761    0.5362 H   0  0  0  0  0  0  0  0  0  0  0  0
    0.4971    2.3911    1.7945 H   0  0  0  0  0  0  0  0  0  0  0  0
   -1.8096    3.1126    1.3281 H   0  0  0  0  0  0  0  0  0  0  0  0
   -3.0679    2.0366   -0.3913 H   0  0  0  0  0  0  0  0  0  0  0  0
   -5.3124    0.1131   -5.3173 H   0  0  0  0  0  0  0  0  0  0  0  0
   -6.5546    1.9948   -1.1386 H   0  0  0  0  0  0  0  0  0  0  0  0
   -7.9038    3.0877    0.6402 H   0  0  0  0  0  0  0  0  0  0  0  0
   -7.7344    2.3362    2.9526 H   0  0  0  0  0  0  0  0  0  0  0  0
   -6.2155    0.4739    3.4974 H   0  0  0  0  0  0  0  0  0  0  0  0
  1  2  1  0
  2  3  1  0
  3  4  2  0
  4  5  1  0
  5  6  2  0
  6  7  1  0
  7  8  2  0
  8  9  1  0
  9 10  1  0
 10 11  1  0
 11 12  1  0
 12 13  1  0
 13 14  1  0
 14 15  2  0
 14 16  1  0
 16 17  1  0
 17 18  1  0
 17 19  1  0
 17 20  1  0
 13 21  1  0
 21 22  1  0
  9 23  1  0
 23 24  2  0
 24 25  1  0
 25 26  2  0
 26 27  1  0
 27 28  2  0
  6 29  1  0
 29 30  2  0
 29 31  1  0
 31 32  1  0
 32 33  2  0
  4 34  1  0
 34 35  2  0
 35 36  1  0
 36 37  2  0
 37 38  1  0
 38 39  2  0
 39  2  1  0
 32  5  1  0
 39 34  1  0
 28  7  1  0
 22 10  1  0
 28 23  1  0
  1 40  1  0
  1 41  1  0
  1 42  1  0
  3 43  1  0
  8 44  1  0
 10 45  1  0
 11 46  1  0
 11 47  1  0
 12 48  1  0
 12 49  1  0
 18 50  1  0
 18 51  1  0
 18 52  1  0
 19 53  1  0
 19 54  1  0
 19 55  1  0
 20 56  1  0
 20 57  1  0
 20 58  1  0
 21 59  1  0
 21 60  1  0
 22 61  1  0
 22 62  1  0
 24 63  1  0
 25 64  1  0
 26 65  1  0
 27 66  1  0
 31 67  1  0
 35 68  1  0
 36 69  1  0
 37 70  1  0
 38 71  1  0
M  END
$$$$
