@<TRIPOS>MOLECULE
*****
 71 76 0 0 0
SMALL
GASTEIGER

@<TRIPOS>ATOM
      1 C          -4.2882   -1.5296    2.7319 C.3     1  UNL1        0.0119
      2 N          -4.6418   -0.8297    1.5118 N.ar    1  UNL1       -0.3491
      3 C          -4.1803   -1.0510    0.2714 C.ar    1  UNL1        0.0133
      4 C          -4.7791   -0.1637   -0.6181 C.ar    1  UNL1        0.0131
      5 C          -4.5296   -0.0735   -2.0741 C.2     1  UNL1        0.0590
      6 C          -3.3259   -0.0596   -2.6168 C.2     1  UNL1        0.0590
      7 C          -2.0087   -0.1206   -1.9590 C.ar    1  UNL1        0.0131
      8 C          -0.9889   -0.9878   -2.3022 C.ar    1  UNL1        0.0139
      9 N           0.1106   -0.8003   -1.5498 N.ar    1  UNL1       -0.3429
     10 C           1.3741   -1.5140   -1.6124 C.3     1  UNL1        0.0374
     11 C           1.7690   -2.0563   -0.3061 C.3     1  UNL1       -0.0161
     12 C           3.1388   -1.7877    0.1729 C.3     1  UNL1        0.0197
     13 N           4.0460   -1.1453   -0.7069 N.am    1  UNL1       -0.2673
     14 C           5.2265   -0.4869   -0.2601 C.2     1  UNL1        0.4034
     15 O           6.0349    0.0633   -1.0328 O.2     1  UNL1       -0.2262
     16 O           5.5020   -0.4462    1.0836 O.3     1  UNL1       -0.4445
     17 C           6.6335    0.1692    1.6634 C.3     1  UNL1        0.1068
     18 C           7.9257   -0.4100    1.2134 C.3     1  UNL1       -0.0253
     19 C           6.6581    1.6591    1.3955 C.3     1  UNL1       -0.0253
     20 C           6.4726    0.0255    3.1835 C.3     1  UNL1       -0.0253
     21 C           3.7855   -1.1314   -2.1325 C.3     1  UNL1        0.0197
     22 C           2.3716   -0.5871   -2.2538 C.3     1  UNL1       -0.0161
     23 C          -0.1962    0.2083   -0.7000 C.ar    1  UNL1        0.0499
     24 C           0.5118    0.8557    0.2959 C.ar    1  UNL1       -0.0376
     25 C          -0.0544    1.8829    1.0154 C.ar    1  UNL1       -0.0598
     26 C          -1.3432    2.3107    0.7787 C.ar    1  UNL1       -0.0611
     27 C          -2.0632    1.6697   -0.2164 C.ar    1  UNL1       -0.0520
     28 C          -1.5057    0.6459   -0.9357 C.ar    1  UNL1        0.0078
     29 C          -3.5146    0.0231   -4.0865 C.2     1  UNL1        0.2519
     30 O          -2.5570    0.0556   -4.9003 O.2     1  UNL1       -0.2697
     31 N          -4.8906    0.0550   -4.3588 N.am    1  UNL1       -0.2483
     32 C          -5.5487   -0.0051   -3.1103 C.2     1  UNL1        0.2519
     33 O          -6.7761   -0.0029   -2.9112 O.2     1  UNL1       -0.2697
     34 C          -5.6221    0.6019    0.1513 C.ar    1  UNL1        0.0077
     35 C          -6.4813    1.6455   -0.1085 C.ar    1  UNL1       -0.0520
     36 C          -7.2304    2.2613    0.8811 C.ar    1  UNL1       -0.0611
     37 C          -7.1406    1.8434    2.1885 C.ar    1  UNL1       -0.0598
     38 C          -6.2842    0.8007    2.4647 C.ar    1  UNL1       -0.0376
     39 C          -5.5367    0.1851    1.4838 C.ar    1  UNL1        0.0494
     40 H          -5.0009   -2.3819    2.9238 H       1  UNL1        0.0456
     41 H          -4.4315   -0.8520    3.6129 H       1  UNL1        0.0456
     42 H          -3.2540   -1.8773    2.7578 H       1  UNL1        0.0456
     43 H          -3.4467   -1.8037   -0.0354 H       1  UNL1        0.0815
     44 H          -1.0650   -1.7295   -3.0832 H       1  UNL1        0.0815
     45 H           1.2233   -2.3381   -2.3723 H       1  UNL1        0.0529
     46 H           1.0260   -1.7636    0.4906 H       1  UNL1        0.0300
     47 H           1.6437   -3.1829   -0.3386 H       1  UNL1        0.0300
     48 H           3.6530   -2.7210    0.5549 H       1  UNL1        0.0466
     49 H           3.0965   -1.1497    1.1072 H       1  UNL1        0.0466
     50 H           8.2933    0.0797    0.3014 H       1  UNL1        0.0268
     51 H           8.6774   -0.1522    2.0182 H       1  UNL1        0.0268
     52 H           7.9302   -1.5151    1.1526 H       1  UNL1        0.0268
     53 H           6.1684    2.2234    2.2168 H       1  UNL1        0.0268
     54 H           7.7149    1.9538    1.2573 H       1  UNL1        0.0268
     55 H           6.1492    1.8946    0.4140 H       1  UNL1        0.0268
     56 H           5.4211    0.2211    3.4442 H       1  UNL1        0.0268
     57 H           6.7270   -1.0038    3.4699 H       1  UNL1        0.0268
     58 H           7.1006    0.7825    3.7130 H       1  UNL1        0.0268
     59 H           4.4385   -0.4145   -2.6856 H       1  UNL1        0.0466
     60 H           3.9007   -2.1114   -2.5998 H       1  UNL1        0.0466
     61 H           2.3756    0.4191   -1.7989 H       1  UNL1        0.0300
     62 H           2.1600   -0.4733   -3.3336 H       1  UNL1        0.0300
     63 H           1.5266    0.5761    0.5362 H       1  UNL1        0.0638
     64 H           0.4971    2.3911    1.7945 H       1  UNL1        0.0618
     65 H          -1.8096    3.1126    1.3281 H       1  UNL1        0.0618
     66 H          -3.0679    2.0366   -0.3913 H       1  UNL1        0.0624
     67 H          -5.3124    0.1131   -5.3173 H       1  UNL1        0.1581
     68 H          -6.5546    1.9948   -1.1386 H       1  UNL1        0.0624
     69 H          -7.9038    3.0877    0.6402 H       1  UNL1        0.0618
     70 H          -7.7344    2.3362    2.9526 H       1  UNL1        0.0618
     71 H          -6.2155    0.4739    3.4974 H       1  UNL1        0.0638
@<TRIPOS>BOND
     1     1     2    1
     2     2     3   ar
     3     3     4   ar
     4     4     5    1
     5     5     6    2
     6     6     7    1
     7     7     8   ar
     8     8     9   ar
     9     9    10    1
    10    10    11    1
    11    11    12    1
    12    12    13    1
    13    13    14   am
    14    14    15    2
    15    14    16    1
    16    16    17    1
    17    17    18    1
    18    17    19    1
    19    17    20    1
    20    13    21    1
    21    21    22    1
    22     9    23   ar
    23    23    24   ar
    24    24    25   ar
    25    25    26   ar
    26    26    27   ar
    27    27    28   ar
    28     6    29    1
    29    29    30    2
    30    29    31   am
    31    31    32   am
    32    32    33    2
    33     4    34   ar
    34    34    35   ar
    35    35    36   ar
    36    36    37   ar
    37    37    38   ar
    38    38    39   ar
    39    39     2   ar
    40    32     5    1
    41    39    34   ar
    42    28     7   ar
    43    22    10    1
    44    28    23   ar
    45     1    40    1
    46     1    41    1
    47     1    42    1
    48     3    43    1
    49     8    44    1
    50    10    45    1
    51    11    46    1
    52    11    47    1
    53    12    48    1
    54    12    49    1
    55    18    50    1
    56    18    51    1
    57    18    52    1
    58    19    53    1
    59    19    54    1
    60    19    55    1
    61    20    56    1
    62    20    57    1
    63    20    58    1
    64    21    59    1
    65    21    60    1
    66    22    61    1
    67    22    62    1
    68    24    63    1
    69    25    64    1
    70    26    65    1
    71    27    66    1
    72    31    67    1
    73    35    68    1
    74    36    69    1
    75    37    70    1
    76    38    71    1
