@<TRIPOS>MOLECULE
*****
 39 41 0 0 0
SMALL
GASTEIGER

@<TRIPOS>ATOM
      1 C           5.0415   -0.6786   -0.3655 C.3     1  UNL1       -0.0126
      2 N           4.5452    0.5398    0.1561 N.3     1  UNL1       -0.3001
      3 C           5.3505    1.6932    0.0166 C.3     1  UNL1       -0.0126
      4 C           3.6121    0.4933    1.2121 C.3     1  UNL1        0.0756
      5 C           2.2997   -0.0261    0.7634 C.2     1  UNL1        0.2313
      6 O           1.5341   -0.0432    1.7869 O.2     1  UNL1       -0.2741
      7 N           1.7415   -0.4776   -0.4704 N.am    1  UNL1       -0.2844
      8 C           0.3978   -0.8565   -0.2495 C.ar    1  UNL1        0.0341
      9 C          -0.6774    0.0213   -0.3755 C.ar    1  UNL1       -0.0308
     10 C          -1.9485   -0.4397   -0.1396 C.ar    1  UNL1        0.0080
     11 C          -2.1590   -1.7507    0.2174 C.ar    1  UNL1        0.0499
     12 N          -3.4097   -2.1849    0.4441 N.ar    1  UNL1       -0.3216
     13 C          -4.5028   -1.3948    0.3405 C.ar    1  UNL1        0.2569
     14 O          -5.6683   -1.8314    0.5605 O.2     1  UNL1       -0.2672
     15 C          -4.3002   -0.0668   -0.0206 C.ar    1  UNL1        0.0471
     16 C          -5.3864    0.7422   -0.1301 C.ar    1  UNL1       -0.0488
     17 C          -5.2170    2.0640   -0.4864 C.ar    1  UNL1       -0.0610
     18 C          -3.9297    2.5534   -0.7296 C.ar    1  UNL1       -0.0611
     19 C          -2.8527    1.6995   -0.6076 C.ar    1  UNL1       -0.0532
     20 C          -3.0401    0.3863   -0.2526 C.ar    1  UNL1       -0.0036
     21 C          -1.0978   -2.6044    0.3384 C.ar    1  UNL1       -0.0359
     22 C           0.1847   -2.1651    0.1066 C.ar    1  UNL1       -0.0385
     23 H           5.2866   -0.5261   -1.4482 H       1  UNL1        0.0391
     24 H           6.0218   -0.9816    0.0842 H       1  UNL1        0.0391
     25 H           4.3207   -1.4953   -0.2174 H       1  UNL1        0.0391
     26 H           6.3062    1.6913    0.5480 H       1  UNL1        0.0391
     27 H           5.5312    1.8407   -1.0851 H       1  UNL1        0.0391
     28 H           4.7283    2.5863    0.3012 H       1  UNL1        0.0391
     29 H           3.4320    1.5443    1.5923 H       1  UNL1        0.0522
     30 H           3.9859   -0.0790    2.1097 H       1  UNL1        0.0522
     31 H           2.4665   -0.4076   -1.2108 H       1  UNL1        0.1548
     32 H          -0.4134    1.0144   -0.6544 H       1  UNL1        0.0643
     33 H          -3.5778   -3.1896    0.7163 H       1  UNL1        0.1689
     34 H          -6.3864    0.3340    0.0674 H       1  UNL1        0.0625
     35 H          -6.0950    2.6886   -0.5660 H       1  UNL1        0.0618
     36 H          -3.9215    3.6015   -0.9995 H       1  UNL1        0.0618
     37 H          -1.9221    2.1903   -0.8173 H       1  UNL1        0.0624
     38 H          -1.2830   -3.6213    0.6180 H       1  UNL1        0.0639
     39 H           1.0024   -2.8643    0.2107 H       1  UNL1        0.0637
@<TRIPOS>BOND
     1     1     2    1
     2     2     3    1
     3     2     4    1
     4     4     5    1
     5     5     6    2
     6     5     7   am
     7     7     8    1
     8     8     9   ar
     9     9    10   ar
    10    10    11   ar
    11    11    12   ar
    12    12    13   ar
    13    13    14    2
    14    13    15   ar
    15    15    16   ar
    16    16    17   ar
    17    17    18   ar
    18    18    19   ar
    19    19    20   ar
    20    11    21   ar
    21    21    22   ar
    22    22     8   ar
    23    20    10   ar
    24    20    15   ar
    25     1    23    1
    26     1    24    1
    27     1    25    1
    28     3    26    1
    29     3    27    1
    30     3    28    1
    31     4    29    1
    32     4    30    1
    33     7    31    1
    34     9    32    1
    35    12    33    1
    36    16    34    1
    37    17    35    1
    38    18    36    1
    39    19    37    1
    40    21    38    1
    41    22    39    1
