@<TRIPOS>MOLECULE
*****
 54 57 0 0 0
SMALL
GASTEIGER

@<TRIPOS>ATOM
      1 C          -1.8525    3.7071   -4.3805 C.3     1  UNL1        0.0124
      2 C          -1.0751    2.4851   -4.6046 C.2     1  UNL1        0.2133
      3 O          -0.2170    2.5575   -5.5621 O.2     1  UNL1       -0.2759
      4 N          -1.1931    1.2795   -3.8759 N.am    1  UNL1       -0.2865
      5 C          -0.3276    0.1443   -4.2500 C.3     1  UNL1        0.0319
      6 C           0.3686   -0.4448   -3.0426 C.3     1  UNL1        0.0357
      7 N          -0.5717   -0.6993   -1.9732 N.am    1  UNL1       -0.2669
      8 C          -0.2926   -1.4182   -0.7967 C.ar    1  UNL1        0.0543
      9 C           0.2058   -0.8652    0.3616 C.ar    1  UNL1       -0.0298
     10 C           0.4655   -1.6007    1.5097 C.ar    1  UNL1        0.0023
     11 C           0.9972   -0.9271    2.7022 C.ar    1  UNL1        0.0740
     12 C           0.6361    0.2369    3.3167 C.ar    1  UNL1       -0.0219
     13 C           1.4468    0.4535    4.4266 C.ar    1  UNL1        0.0855
     14 C           1.3745    1.5989    5.3514 C.3     1  UNL1        0.4195
     15 F           0.3392    2.4431    4.9117 F       1  UNL1       -0.1658
     16 F           1.0273    1.2639    6.6397 F       1  UNL1       -0.1658
     17 F           2.5225    2.3397    5.2573 F       1  UNL1       -0.1658
     18 C           2.3103   -0.6208    4.4598 C.ar    1  UNL1        0.1171
     19 C           3.3478   -0.9877    5.3123 C.ar    1  UNL1        0.1442
     20 N           3.6385   -0.1258    6.4030 N.pl3   1  UNL1       -0.3414
     21 N           4.0330   -2.1166    5.0958 N.ar    1  UNL1       -0.2173
     22 C           3.7522   -2.9234    4.0691 C.ar    1  UNL1        0.1388
     23 N           2.7443   -2.5476    3.2576 N.ar    1  UNL1       -0.1543
     24 N           2.0316   -1.4415    3.4226 N.ar    1  UNL1       -0.2269
     25 C           0.2166   -2.9566    1.5069 C.ar    1  UNL1       -0.0512
     26 C          -0.2779   -3.5358    0.3725 C.ar    1  UNL1       -0.0419
     27 C          -0.5313   -2.7751   -0.7717 C.ar    1  UNL1        0.0731
     28 C          -1.0516   -3.4526   -1.9201 C.1     1  UNL1        0.1010
     29 N          -1.4760   -4.0229   -2.8475 N.1     1  UNL1       -0.1908
     30 C          -1.8935   -0.1704   -2.1323 C.2     1  UNL1        0.2430
     31 O          -2.8961   -0.7961   -1.7203 O.2     1  UNL1       -0.2729
     32 C          -2.1303    1.1581   -2.7987 C.3     1  UNL1        0.1082
     33 C          -1.8597    2.2719   -1.7947 C.3     1  UNL1       -0.0352
     34 C          -3.5640    1.1572   -3.2793 C.3     1  UNL1       -0.0352
     35 H          -2.8413    3.5259   -3.9623 H       1  UNL1        0.0323
     36 H          -1.3286    4.4738   -3.7570 H       1  UNL1        0.0323
     37 H          -2.0310    4.2644   -5.3596 H       1  UNL1        0.0323
     38 H           0.3557    0.3950   -5.0595 H       1  UNL1        0.0480
     39 H          -1.0185   -0.6400   -4.6304 H       1  UNL1        0.0480
     40 H           1.1113    0.2711   -2.6948 H       1  UNL1        0.0484
     41 H           0.7710   -1.4270   -3.3626 H       1  UNL1        0.0484
     42 H           0.4069    0.2070    0.3794 H       1  UNL1        0.0643
     43 H          -0.1482    0.8944    3.0095 H       1  UNL1        0.0645
     44 H           4.3515    0.6050    6.2821 H       1  UNL1        0.1438
     45 H           3.1211   -0.2573    7.3035 H       1  UNL1        0.1438
     46 H           4.2781   -3.8413    3.8570 H       1  UNL1        0.1066
     47 H           0.4251   -3.5254    2.4169 H       1  UNL1        0.0624
     48 H          -0.4736   -4.6049    0.3731 H       1  UNL1        0.0631
     49 H          -0.9763    2.8756   -2.0525 H       1  UNL1        0.0255
     50 H          -1.6339    1.8394   -0.7902 H       1  UNL1        0.0255
     51 H          -2.7757    2.8565   -1.6924 H       1  UNL1        0.0255
     52 H          -3.6007    1.3230   -4.3854 H       1  UNL1        0.0255
     53 H          -4.0489    0.1593   -3.1473 H       1  UNL1        0.0255
     54 H          -4.1917    1.9370   -2.8156 H       1  UNL1        0.0255
@<TRIPOS>BOND
     1     1     2    1
     2     2     3    2
     3     2     4   am
     4     4     5    1
     5     5     6    1
     6     6     7    1
     7     7     8    1
     8     8     9   ar
     9     9    10   ar
    10    10    11    1
    11    11    12   ar
    12    12    13   ar
    13    13    14    1
    14    14    15    1
    15    14    16    1
    16    14    17    1
    17    13    18   ar
    18    18    19   ar
    19    19    20    1
    20    19    21   ar
    21    21    22   ar
    22    22    23   ar
    23    23    24   ar
    24    10    25   ar
    25    25    26   ar
    26    26    27   ar
    27    27    28    1
    28    28    29    3
    29     7    30   am
    30    30    31    2
    31    30    32    1
    32    32    33    1
    33    32    34    1
    34    32     4    1
    35    27     8   ar
    36    24    11   ar
    37    24    18   ar
    38     1    35    1
    39     1    36    1
    40     1    37    1
    41     5    38    1
    42     5    39    1
    43     6    40    1
    44     6    41    1
    45     9    42    1
    46    12    43    1
    47    20    44    1
    48    20    45    1
    49    22    46    1
    50    25    47    1
    51    26    48    1
    52    33    49    1
    53    33    50    1
    54    33    51    1
    55    34    52    1
    56    34    53    1
    57    34    54    1
