@<TRIPOS>MOLECULE
*****
 59 62 0 0 0
SMALL
GASTEIGER

@<TRIPOS>ATOM
      1 O          -5.9886   -2.0137   -0.2726 O.3     1  UNL1       -0.5065
      2 C          -6.8790   -0.9809   -0.1197 C.ar    1  UNL1        0.1212
      3 C          -6.5232    0.3407   -0.2864 C.ar    1  UNL1        0.0078
      4 C          -5.1100    0.6461   -0.6487 C.3     1  UNL1        0.0249
      5 N          -4.2996    0.5075    0.4865 N.3     1  UNL1       -0.3091
      6 C          -2.9147    0.7576    0.3609 C.3     1  UNL1        0.0103
      7 C          -2.2140   -0.1324   -0.6361 C.3     1  UNL1       -0.0230
      8 C          -0.9459   -0.7389   -0.1418 C.3     1  UNL1        0.0232
      9 N          -0.1140    0.1072    0.6489 N.3     1  UNL1       -0.1637
     10 C          -0.8116    0.7225    1.7568 C.3     1  UNL1        0.0232
     11 C          -2.2839    0.4865    1.7183 C.3     1  UNL1       -0.0230
     12 S           0.7361    1.2470   -0.3079 S.O2    1  UNL1        0.1117
     13 O           1.5177    2.1898    0.5605 O.2     1  UNL1       -0.1379
     14 O          -0.1842    2.1031   -1.1317 O.2     1  UNL1       -0.1379
     15 N           1.7576    0.3897   -1.4002 N.pl3   1  UNL1       -0.2063
     16 C           2.8317   -0.4945   -1.1198 C.ar    1  UNL1        0.0525
     17 C           3.7651   -0.1543   -0.1605 C.ar    1  UNL1        0.0031
     18 C           4.8267   -0.9857    0.1438 C.ar    1  UNL1        0.1302
     19 O           5.8121   -0.7375    1.0852 O.3     1  UNL1       -0.4560
     20 C           6.9976   -0.0821    0.8215 C.ar    1  UNL1        0.1286
     21 C           7.8550    0.0668    1.8955 C.ar    1  UNL1       -0.0166
     22 C           9.0608    0.7023    1.7498 C.ar    1  UNL1       -0.0230
     23 C           9.3639    1.1771    0.4862 C.ar    1  UNL1        0.1236
     24 F          10.5201    1.8109    0.2477 F       1  UNL1       -0.2055
     25 C           8.5035    1.0305   -0.6048 C.ar    1  UNL1       -0.0230
     26 C           7.2937    0.3882   -0.4393 C.ar    1  UNL1       -0.0166
     27 C           4.9939   -2.2078   -0.5123 C.ar    1  UNL1       -0.0192
     28 C           4.0553   -2.5604   -1.4834 C.ar    1  UNL1       -0.0565
     29 C           3.0030   -1.7186   -1.7739 C.ar    1  UNL1       -0.0391
     30 C          -7.4456    1.3701   -0.1264 C.ar    1  UNL1       -0.0539
     31 C          -8.7339    1.0575    0.2044 C.ar    1  UNL1       -0.0612
     32 C          -9.1218   -0.2525    0.3787 C.ar    1  UNL1       -0.0583
     33 C          -8.1896   -1.2556    0.2146 C.ar    1  UNL1       -0.0199
     34 H          -6.1014   -2.8034   -0.8918 H       1  UNL1        0.2921
     35 H          -5.0396    1.6767   -1.0383 H       1  UNL1        0.0475
     36 H          -4.8696   -0.0365   -1.4829 H       1  UNL1        0.0475
     37 H          -4.7318    0.5961    1.4100 H       1  UNL1        0.1225
     38 H          -2.7573    1.8342    0.1492 H       1  UNL1        0.0461
     39 H          -2.8621   -0.9832   -0.9861 H       1  UNL1        0.0293
     40 H          -2.0607    0.4991   -1.5591 H       1  UNL1        0.0293
     41 H          -0.3513   -1.0738   -1.0163 H       1  UNL1        0.0445
     42 H          -1.2347   -1.6434    0.4668 H       1  UNL1        0.0445
     43 H          -0.5510    1.8021    1.8391 H       1  UNL1        0.0445
     44 H          -0.4331    0.2470    2.6903 H       1  UNL1        0.0445
     45 H          -2.4667   -0.5860    1.9565 H       1  UNL1        0.0293
     46 H          -2.7599    1.0903    2.5162 H       1  UNL1        0.0293
     47 H           1.6558    0.4608   -2.4560 H       1  UNL1        0.1747
     48 H           3.7106    0.7594    0.3871 H       1  UNL1        0.0673
     49 H           7.6210   -0.3063    2.8929 H       1  UNL1        0.0655
     50 H           9.7395    0.8255    2.5816 H       1  UNL1        0.0647
     51 H           8.7533    1.4054   -1.5853 H       1  UNL1        0.0647
     52 H           6.5986    0.2524   -1.2543 H       1  UNL1        0.0655
     53 H           5.7931   -2.9152   -0.3349 H       1  UNL1        0.0654
     54 H           4.0929   -3.4852   -2.0504 H       1  UNL1        0.0619
     55 H           2.2684   -1.9854   -2.5282 H       1  UNL1        0.0636
     56 H          -7.0507    2.3795   -0.2842 H       1  UNL1        0.0622
     57 H          -9.4182    1.8846    0.3192 H       1  UNL1        0.0618
     58 H         -10.1561   -0.3933    0.6379 H       1  UNL1        0.0619
     59 H          -8.5231   -2.2877    0.3572 H       1  UNL1        0.0654
@<TRIPOS>BOND
     1     1     2    1
     2     2     3   ar
     3     3     4    1
     4     4     5    1
     5     5     6    1
     6     6     7    1
     7     7     8    1
     8     8     9    1
     9     9    10    1
    10    10    11    1
    11     9    12    1
    12    12    13    2
    13    12    14    2
    14    12    15    1
    15    15    16    1
    16    16    17   ar
    17    17    18   ar
    18    18    19    1
    19    19    20    1
    20    20    21   ar
    21    21    22   ar
    22    22    23   ar
    23    23    24    1
    24    23    25   ar
    25    25    26   ar
    26    18    27   ar
    27    27    28   ar
    28    28    29   ar
    29     3    30   ar
    30    30    31   ar
    31    31    32   ar
    32    32    33   ar
    33    33     2   ar
    34    11     6    1
    35    29    16   ar
    36    26    20   ar
    37     1    34    1
    38     4    35    1
    39     4    36    1
    40     5    37    1
    41     6    38    1
    42     7    39    1
    43     7    40    1
    44     8    41    1
    45     8    42    1
    46    10    43    1
    47    10    44    1
    48    11    45    1
    49    11    46    1
    50    15    47    1
    51    17    48    1
    52    21    49    1
    53    22    50    1
    54    25    51    1
    55    26    52    1
    56    27    53    1
    57    28    54    1
    58    29    55    1
    59    30    56    1
    60    31    57    1
    61    32    58    1
    62    33    59    1
