
     RDKit          3D

 59 62  0  0  0  0  0  0  0  0999 V2000
   -5.9886   -2.0137   -0.2726 O   0  0  0  0  0  0  0  0  0  0  0  0
   -6.8790   -0.9809   -0.1197 C   0  0  0  0  0  0  0  0  0  0  0  0
   -6.5232    0.3407   -0.2864 C   0  0  0  0  0  0  0  0  0  0  0  0
   -5.1100    0.6461   -0.6487 C   0  0  0  0  0  0  0  0  0  0  0  0
   -4.2996    0.5075    0.4865 N   0  0  0  0  0  0  0  0  0  0  0  0
   -2.9147    0.7576    0.3609 C   0  0  0  0  0  0  0  0  0  0  0  0
   -2.2140   -0.1324   -0.6361 C   0  0  0  0  0  0  0  0  0  0  0  0
   -0.9459   -0.7389   -0.1418 C   0  0  0  0  0  0  0  0  0  0  0  0
   -0.1140    0.1072    0.6489 N   0  0  0  0  0  0  0  0  0  0  0  0
   -0.8116    0.7225    1.7568 C   0  0  0  0  0  0  0  0  0  0  0  0
   -2.2839    0.4865    1.7183 C   0  0  0  0  0  0  0  0  0  0  0  0
    0.7361    1.2470   -0.3079 S   0  0  0  0  0  0  0  0  0  0  0  0
    1.5177    2.1898    0.5605 O   0  0  0  0  0  0  0  0  0  0  0  0
   -0.1842    2.1031   -1.1317 O   0  0  0  0  0  0  0  0  0  0  0  0
    1.7576    0.3897   -1.4002 N   0  0  0  0  0  0  0  0  0  0  0  0
    2.8317   -0.4945   -1.1198 C   0  0  0  0  0  0  0  0  0  0  0  0
    3.7651   -0.1543   -0.1605 C   0  0  0  0  0  0  0  0  0  0  0  0
    4.8267   -0.9857    0.1438 C   0  0  0  0  0  0  0  0  0  0  0  0
    5.8121   -0.7375    1.0852 O   0  0  0  0  0  0  0  0  0  0  0  0
    6.9976   -0.0821    0.8215 C   0  0  0  0  0  0  0  0  0  0  0  0
    7.8550    0.0668    1.8955 C   0  0  0  0  0  0  0  0  0  0  0  0
    9.0608    0.7023    1.7498 C   0  0  0  0  0  0  0  0  0  0  0  0
    9.3639    1.1771    0.4862 C   0  0  0  0  0  0  0  0  0  0  0  0
   10.5201    1.8109    0.2477 F   0  0  0  0  0  0  0  0  0  0  0  0
    8.5035    1.0305   -0.6048 C   0  0  0  0  0  0  0  0  0  0  0  0
    7.2937    0.3882   -0.4393 C   0  0  0  0  0  0  0  0  0  0  0  0
    4.9939   -2.2078   -0.5123 C   0  0  0  0  0  0  0  0  0  0  0  0
    4.0553   -2.5604   -1.4834 C   0  0  0  0  0  0  0  0  0  0  0  0
    3.0030   -1.7186   -1.7739 C   0  0  0  0  0  0  0  0  0  0  0  0
   -7.4456    1.3701   -0.1264 C   0  0  0  0  0  0  0  0  0  0  0  0
   -8.7339    1.0575    0.2044 C   0  0  0  0  0  0  0  0  0  0  0  0
   -9.1218   -0.2525    0.3787 C   0  0  0  0  0  0  0  0  0  0  0  0
   -8.1896   -1.2556    0.2146 C   0  0  0  0  0  0  0  0  0  0  0  0
   -6.1014   -2.8034   -0.8918 H   0  0  0  0  0  0  0  0  0  0  0  0
   -5.0396    1.6767   -1.0383 H   0  0  0  0  0  0  0  0  0  0  0  0
   -4.8696   -0.0365   -1.4829 H   0  0  0  0  0  0  0  0  0  0  0  0
   -4.7318    0.5961    1.4100 H   0  0  0  0  0  0  0  0  0  0  0  0
   -2.7573    1.8342    0.1492 H   0  0  0  0  0  0  0  0  0  0  0  0
   -2.8621   -0.9832   -0.9861 H   0  0  0  0  0  0  0  0  0  0  0  0
   -2.0607    0.4991   -1.5591 H   0  0  0  0  0  0  0  0  0  0  0  0
   -0.3513   -1.0738   -1.0163 H   0  0  0  0  0  0  0  0  0  0  0  0
   -1.2347   -1.6434    0.4668 H   0  0  0  0  0  0  0  0  0  0  0  0
   -0.5510    1.8021    1.8391 H   0  0  0  0  0  0  0  0  0  0  0  0
   -0.4331    0.2470    2.6903 H   0  0  0  0  0  0  0  0  0  0  0  0
   -2.4667   -0.5860    1.9565 H   0  0  0  0  0  0  0  0  0  0  0  0
   -2.7599    1.0903    2.5162 H   0  0  0  0  0  0  0  0  0  0  0  0
    1.6558    0.4608   -2.4560 H   0  0  0  0  0  0  0  0  0  0  0  0
    3.7106    0.7594    0.3871 H   0  0  0  0  0  0  0  0  0  0  0  0
    7.6210   -0.3063    2.8929 H   0  0  0  0  0  0  0  0  0  0  0  0
    9.7395    0.8255    2.5816 H   0  0  0  0  0  0  0  0  0  0  0  0
    8.7533    1.4054   -1.5853 H   0  0  0  0  0  0  0  0  0  0  0  0
    6.5986    0.2524   -1.2543 H   0  0  0  0  0  0  0  0  0  0  0  0
    5.7931   -2.9152   -0.3349 H   0  0  0  0  0  0  0  0  0  0  0  0
    4.0929   -3.4852   -2.0504 H   0  0  0  0  0  0  0  0  0  0  0  0
    2.2684   -1.9854   -2.5282 H   0  0  0  0  0  0  0  0  0  0  0  0
   -7.0507    2.3795   -0.2842 H   0  0  0  0  0  0  0  0  0  0  0  0
   -9.4182    1.8846    0.3192 H   0  0  0  0  0  0  0  0  0  0  0  0
  -10.1561   -0.3933    0.6379 H   0  0  0  0  0  0  0  0  0  0  0  0
   -8.5231   -2.2877    0.3572 H   0  0  0  0  0  0  0  0  0  0  0  0
  1  2  1  0
  2  3  2  0
  3  4  1  0
  4  5  1  0
  5  6  1  0
  6  7  1  0
  7  8  1  0
  8  9  1  0
  9 10  1  0
 10 11  1  0
  9 12  1  0
 12 13  2  0
 12 14  2  0
 12 15  1  0
 15 16  1  0
 16 17  2  0
 17 18  1  0
 18 19  1  0
 19 20  1  0
 20 21  2  0
 21 22  1  0
 22 23  2  0
 23 24  1  0
 23 25  1  0
 25 26  2  0
 18 27  2  0
 27 28  1  0
 28 29  2  0
  3 30  1  0
 30 31  2  0
 31 32  1  0
 32 33  2  0
 33  2  1  0
 11  6  1  0
 29 16  1  0
 26 20  1  0
  1 34  1  0
  4 35  1  0
  4 36  1  0
  5 37  1  0
  6 38  1  0
  7 39  1  0
  7 40  1  0
  8 41  1  0
  8 42  1  0
 10 43  1  0
 10 44  1  0
 11 45  1  0
 11 46  1  0
 15 47  1  0
 17 48  1  0
 21 49  1  0
 22 50  1  0
 25 51  1  0
 26 52  1  0
 27 53  1  0
 28 54  1  0
 29 55  1  0
 30 56  1  0
 31 57  1  0
 32 58  1  0
 33 59  1  0
M  END
$$$$
