
     RDKit          3D

 63 67  0  0  0  0  0  0  0  0999 V2000
    2.5420   -0.0095   -0.0502 C   0  0  1  0  0  0  0  0  0  0  0  0
    2.7717   -0.2542    1.4018 C   0  0  0  0  0  0  0  0  0  0  0  0
    1.3918   -0.4089    2.0649 C   0  0  0  0  0  0  0  0  0  0  0  0
    0.5075   -0.6457    0.8647 C   0  0  1  0  0  0  0  0  0  0  0  0
   -0.9359   -0.4284    1.1064 C   0  0  2  0  0  0  0  0  0  0  0  0
   -1.5251   -1.6225    1.8368 C   0  0  0  0  0  0  0  0  0  0  0  0
   -2.8835   -1.9696    1.4118 C   0  0  0  0  0  0  0  0  0  0  0  0
   -3.6879   -1.3622    0.5534 C   0  0  0  0  0  0  0  0  0  0  0  0
   -5.0319   -1.8070    0.2087 C   0  0  0  0  0  0  0  0  0  0  0  0
   -5.6921   -1.1455   -0.7290 C   0  0  0  0  0  0  0  0  0  0  0  0
   -5.1983    0.0163   -1.4739 C   0  0  0  0  0  0  0  0  0  0  0  0
   -3.6935    0.1011   -1.4495 C   0  0  0  0  0  0  0  0  0  0  0  0
   -3.1244   -0.1385   -0.0761 C   0  0  1  0  0  0  0  0  0  0  0  0
   -3.4267    1.0724    0.7664 C   0  0  0  0  0  0  0  0  0  0  0  0
   -1.6386   -0.3703   -0.2320 C   0  0  1  0  0  0  0  0  0  0  0  0
   -1.0277    0.6041   -1.1969 C   0  0  0  0  0  0  0  0  0  0  0  0
    0.4236    0.2218   -1.4191 C   0  0  0  0  0  0  0  0  0  0  0  0
    1.0845    0.3883   -0.0787 C   0  0  2  0  0  0  0  0  0  0  0  0
    0.9304    1.7887    0.4447 C   0  0  0  0  0  0  0  0  0  0  0  0
   -7.0441   -1.6405   -1.0343 C   0  0  0  0  0  0  0  0  0  0  0  0
   -7.5435   -2.7519   -0.3365 O   0  0  0  0  0  0  0  0  0  0  0  0
   -7.7752   -1.0884   -1.9151 O   0  0  0  0  0  0  0  0  0  0  0  0
    3.4119    0.9888   -0.6808 C   0  0  0  0  0  0  0  0  0  0  0  0
    2.8236    2.0129   -1.1738 O   0  0  0  0  0  0  0  0  0  0  0  0
    4.8478    0.8926   -0.7781 C   0  0  0  0  0  0  0  0  0  0  0  0
    5.6467   -0.1338   -0.3180 C   0  0  0  0  0  0  0  0  0  0  0  0
    7.0195   -0.1571   -0.4445 C   0  0  0  0  0  0  0  0  0  0  0  0
    7.6374    0.9065   -1.0676 C   0  0  0  0  0  0  0  0  0  0  0  0
    9.0237    0.9364   -1.2235 O   0  0  0  0  0  0  0  0  0  0  0  0
    6.9150    1.9595   -1.5495 C   0  0  0  0  0  0  0  0  0  0  0  0
    5.5677    1.9234   -1.3942 C   0  0  0  0  0  0  0  0  0  0  0  0
    2.6451   -0.9903   -0.5993 H   0  0  0  0  0  0  0  0  0  0  0  0
    3.2873    0.5709    1.9140 H   0  0  0  0  0  0  0  0  0  0  0  0
    3.3053   -1.2086    1.6289 H   0  0  0  0  0  0  0  0  0  0  0  0
    1.0553    0.5266    2.5304 H   0  0  0  0  0  0  0  0  0  0  0  0
    1.3620   -1.2575    2.7593 H   0  0  0  0  0  0  0  0  0  0  0  0
    0.6477   -1.6313    0.4028 H   0  0  0  0  0  0  0  0  0  0  0  0
   -1.1950    0.4461    1.7213 H   0  0  0  0  0  0  0  0  0  0  0  0
   -1.5503   -1.4810    2.9365 H   0  0  0  0  0  0  0  0  0  0  0  0
   -0.8730   -2.5165    1.6764 H   0  0  0  0  0  0  0  0  0  0  0  0
   -3.2591   -2.8694    1.8942 H   0  0  0  0  0  0  0  0  0  0  0  0
   -5.4272   -2.6615    0.7390 H   0  0  0  0  0  0  0  0  0  0  0  0
   -5.6043    0.9784   -1.1010 H   0  0  0  0  0  0  0  0  0  0  0  0
   -5.4880   -0.0609   -2.5459 H   0  0  0  0  0  0  0  0  0  0  0  0
   -3.4291    1.1470   -1.7113 H   0  0  0  0  0  0  0  0  0  0  0  0
   -3.3152   -0.6032   -2.2137 H   0  0  0  0  0  0  0  0  0  0  0  0
   -3.7769    0.7822    1.7970 H   0  0  0  0  0  0  0  0  0  0  0  0
   -2.5444    1.7254    0.8444 H   0  0  0  0  0  0  0  0  0  0  0  0
   -4.2594    1.6806    0.3373 H   0  0  0  0  0  0  0  0  0  0  0  0
   -1.5383   -1.3891   -0.6881 H   0  0  0  0  0  0  0  0  0  0  0  0
   -1.1140    1.6377   -0.8384 H   0  0  0  0  0  0  0  0  0  0  0  0
   -1.5387    0.4526   -2.1621 H   0  0  0  0  0  0  0  0  0  0  0  0
    0.4738   -0.8374   -1.7073 H   0  0  0  0  0  0  0  0  0  0  0  0
    0.8649    0.9314   -2.1175 H   0  0  0  0  0  0  0  0  0  0  0  0
    1.8483    2.1118    0.9483 H   0  0  0  0  0  0  0  0  0  0  0  0
    0.1212    1.9107    1.1865 H   0  0  0  0  0  0  0  0  0  0  0  0
    0.6884    2.5240   -0.3689 H   0  0  0  0  0  0  0  0  0  0  0  0
   -8.4280   -3.1222   -0.6707 H   0  0  0  0  0  0  0  0  0  0  0  0
    5.1579   -0.9517    0.1602 H   0  0  0  0  0  0  0  0  0  0  0  0
    7.5912   -0.9955   -0.0604 H   0  0  0  0  0  0  0  0  0  0  0  0
    9.5639    1.6890   -0.7883 H   0  0  0  0  0  0  0  0  0  0  0  0
    7.4042    2.7976   -2.0408 H   0  0  0  0  0  0  0  0  0  0  0  0
    5.0080    2.7849   -1.7918 H   0  0  0  0  0  0  0  0  0  0  0  0
  1  2  1  0
  2  3  1  0
  3  4  1  0
  4  5  1  0
  5  6  1  0
  6  7  1  0
  7  8  2  0
  8  9  1  0
  9 10  2  0
 10 11  1  0
 11 12  1  0
 12 13  1  0
 13 14  1  1
 13 15  1  0
 15 16  1  0
 16 17  1  0
 17 18  1  0
 18 19  1  1
 10 20  1  0
 20 21  1  0
 20 22  2  0
  1 23  1  0
 23 24  2  0
 23 25  1  0
 25 26  2  0
 26 27  1  0
 27 28  2  0
 28 29  1  0
 28 30  1  0
 30 31  2  0
 18  1  1  0
 31 25  1  0
 18  4  1  0
 15  5  1  0
 13  8  1  0
  1 32  1  6
  2 33  1  0
  2 34  1  0
  3 35  1  0
  3 36  1  0
  4 37  1  6
  5 38  1  1
  6 39  1  0
  6 40  1  0
  7 41  1  0
  9 42  1  0
 11 43  1  0
 11 44  1  0
 12 45  1  0
 12 46  1  0
 14 47  1  0
 14 48  1  0
 14 49  1  0
 15 50  1  6
 16 51  1  0
 16 52  1  0
 17 53  1  0
 17 54  1  0
 19 55  1  0
 19 56  1  0
 19 57  1  0
 21 58  1  0
 26 59  1  0
 27 60  1  0
 29 61  1  0
 30 62  1  0
 31 63  1  0
M  END
$$$$
