@<TRIPOS>MOLECULE
*****
 63 67 0 0 0
SMALL
GASTEIGER

@<TRIPOS>ATOM
      1 C           2.5420   -0.0095   -0.0502 C.3     1  UNL1        0.0278
      2 C           2.7717   -0.2542    1.4018 C.3     1  UNL1       -0.0424
      3 C           1.3918   -0.4089    2.0649 C.3     1  UNL1       -0.0488
      4 C           0.5075   -0.6457    0.8647 C.3     1  UNL1       -0.0316
      5 C          -0.9359   -0.4284    1.1064 C.3     1  UNL1       -0.0306
      6 C          -1.5251   -1.6225    1.8368 C.3     1  UNL1       -0.0308
      7 C          -2.8835   -1.9696    1.4118 C.2     1  UNL1       -0.0800
      8 C          -3.6879   -1.3622    0.5534 C.2     1  UNL1       -0.0446
      9 C          -5.0319   -1.8070    0.2087 C.2     1  UNL1       -0.0484
     10 C          -5.6921   -1.1455   -0.7290 C.2     1  UNL1        0.0367
     11 C          -5.1983    0.0163   -1.4739 C.3     1  UNL1       -0.0201
     12 C          -3.6935    0.1011   -1.4495 C.3     1  UNL1       -0.0391
     13 C          -3.1244   -0.1385   -0.0761 C.3     1  UNL1       -0.0039
     14 C          -3.4267    1.0724    0.7664 C.3     1  UNL1       -0.0553
     15 C          -1.6386   -0.3703   -0.2320 C.3     1  UNL1       -0.0282
     16 C          -1.0277    0.6041   -1.1969 C.3     1  UNL1       -0.0486
     17 C           0.4236    0.2218   -1.4191 C.3     1  UNL1       -0.0464
     18 C           1.0845    0.3883   -0.0787 C.3     1  UNL1       -0.0191
     19 C           0.9304    1.7887    0.4447 C.3     1  UNL1       -0.0586
     20 C          -7.0441   -1.6405   -1.0343 C.2     1  UNL1        0.3328
     21 O          -7.5435   -2.7519   -0.3365 O.3     1  UNL1       -0.4773
     22 O          -7.7752   -1.0884   -1.9151 O.2     1  UNL1       -0.2455
     23 C           3.4119    0.9888   -0.6808 C.2     1  UNL1        0.1667
     24 O           2.8236    2.0129   -1.1738 O.2     1  UNL1       -0.2917
     25 C           4.8478    0.8926   -0.7781 C.ar    1  UNL1        0.0179
     26 C           5.6467   -0.1338   -0.3180 C.ar    1  UNL1       -0.0478
     27 C           7.0195   -0.1571   -0.4445 C.ar    1  UNL1       -0.0195
     28 C           7.6374    0.9065   -1.0676 C.ar    1  UNL1        0.1169
     29 O           9.0237    0.9364   -1.2235 O.3     1  UNL1       -0.5068
     30 C           6.9150    1.9595   -1.5495 C.ar    1  UNL1       -0.0195
     31 C           5.5677    1.9234   -1.3942 C.ar    1  UNL1       -0.0478
     32 H           2.6451   -0.9903   -0.5993 H       1  UNL1        0.0386
     33 H           3.2873    0.5709    1.9140 H       1  UNL1        0.0272
     34 H           3.3053   -1.2086    1.6289 H       1  UNL1        0.0272
     35 H           1.0553    0.5266    2.5304 H       1  UNL1        0.0268
     36 H           1.3620   -1.2575    2.7593 H       1  UNL1        0.0268
     37 H           0.6477   -1.6313    0.4028 H       1  UNL1        0.0309
     38 H          -1.1950    0.4461    1.7213 H       1  UNL1        0.0309
     39 H          -1.5503   -1.4810    2.9365 H       1  UNL1        0.0310
     40 H          -0.8730   -2.5165    1.6764 H       1  UNL1        0.0310
     41 H          -3.2591   -2.8694    1.8942 H       1  UNL1        0.0575
     42 H          -5.4272   -2.6615    0.7390 H       1  UNL1        0.0625
     43 H          -5.6043    0.9784   -1.1010 H       1  UNL1        0.0316
     44 H          -5.4880   -0.0609   -2.5459 H       1  UNL1        0.0316
     45 H          -3.4291    1.1470   -1.7113 H       1  UNL1        0.0277
     46 H          -3.3152   -0.6032   -2.2137 H       1  UNL1        0.0277
     47 H          -3.7769    0.7822    1.7970 H       1  UNL1        0.0238
     48 H          -2.5444    1.7254    0.8444 H       1  UNL1        0.0238
     49 H          -4.2594    1.6806    0.3373 H       1  UNL1        0.0238
     50 H          -1.5383   -1.3891   -0.6881 H       1  UNL1        0.0312
     51 H          -1.1140    1.6377   -0.8384 H       1  UNL1        0.0268
     52 H          -1.5387    0.4526   -2.1621 H       1  UNL1        0.0268
     53 H           0.4738   -0.8374   -1.7073 H       1  UNL1        0.0271
     54 H           0.8649    0.9314   -2.1175 H       1  UNL1        0.0271
     55 H           1.8483    2.1118    0.9483 H       1  UNL1        0.0235
     56 H           0.1212    1.9107    1.1865 H       1  UNL1        0.0235
     57 H           0.6884    2.5240   -0.3689 H       1  UNL1        0.0235
     58 H          -8.4280   -3.1222   -0.6707 H       1  UNL1        0.2954
     59 H           5.1579   -0.9517    0.1602 H       1  UNL1        0.0626
     60 H           7.5912   -0.9955   -0.0604 H       1  UNL1        0.0654
     61 H           9.5639    1.6890   -0.7883 H       1  UNL1        0.2921
     62 H           7.4042    2.7976   -2.0408 H       1  UNL1        0.0654
     63 H           5.0080    2.7849   -1.7918 H       1  UNL1        0.0626
@<TRIPOS>BOND
     1     1     2    1
     2     2     3    1
     3     3     4    1
     4     4     5    1
     5     5     6    1
     6     6     7    1
     7     7     8    2
     8     8     9    1
     9     9    10    2
    10    10    11    1
    11    11    12    1
    12    12    13    1
    13    13    14    1
    14    13    15    1
    15    15    16    1
    16    16    17    1
    17    17    18    1
    18    18    19    1
    19    10    20    1
    20    20    21    1
    21    20    22    2
    22     1    23    1
    23    23    24    2
    24    23    25    1
    25    25    26   ar
    26    26    27   ar
    27    27    28   ar
    28    28    29    1
    29    28    30   ar
    30    30    31   ar
    31    18     1    1
    32    31    25   ar
    33    18     4    1
    34    15     5    1
    35    13     8    1
    36     1    32    1
    37     2    33    1
    38     2    34    1
    39     3    35    1
    40     3    36    1
    41     4    37    1
    42     5    38    1
    43     6    39    1
    44     6    40    1
    45     7    41    1
    46     9    42    1
    47    11    43    1
    48    11    44    1
    49    12    45    1
    50    12    46    1
    51    14    47    1
    52    14    48    1
    53    14    49    1
    54    15    50    1
    55    16    51    1
    56    16    52    1
    57    17    53    1
    58    17    54    1
    59    19    55    1
    60    19    56    1
    61    19    57    1
    62    21    58    1
    63    26    59    1
    64    27    60    1
    65    29    61    1
    66    30    62    1
    67    31    63    1
