@<TRIPOS>MOLECULE
*****
 77 83 0 0 0
SMALL
GASTEIGER

@<TRIPOS>ATOM
      1 O           0.4940   -0.0488   -1.8818 O.2     1  UNL1       -0.2741
      2 C           1.6310   -0.1584   -1.3596 C.2     1  UNL1        0.2313
      3 C           2.8343   -0.4487   -2.1617 C.3     1  UNL1        0.0761
      4 N           4.0483   -0.5283   -1.4359 N.3     1  UNL1       -0.2916
      5 C           4.5559    0.6716   -0.8755 C.3     1  UNL1        0.0122
      6 C           5.6819    1.3045   -1.6695 C.3     1  UNL1        0.0118
      7 N           6.7331    0.3670   -1.8760 N.3     1  UNL1       -0.2977
      8 C           7.4893   -0.0211   -0.7368 C.3     1  UNL1        0.0222
      9 C           8.3652    1.0498   -0.1517 C.3     1  UNL1        0.0569
     10 O           7.6947    2.1588    0.2884 O.3     1  UNL1       -0.3937
     11 C           6.2136   -0.7816   -2.6134 C.3     1  UNL1        0.0118
     12 C           5.0415   -1.4042   -1.9289 C.3     1  UNL1        0.0122
     13 N           1.6701    0.0189    0.0712 N.am    1  UNL1       -0.2839
     14 C           0.4849    0.2993    0.7957 C.ar    1  UNL1        0.0423
     15 C           0.1188    1.6245    0.8388 C.ar    1  UNL1       -0.0392
     16 C          -1.0070    2.0845    1.4892 C.ar    1  UNL1       -0.0511
     17 C          -1.7727    1.1320    2.1129 C.ar    1  UNL1        0.0001
     18 C          -2.9814    1.4600    2.8354 C.ar    1  UNL1        0.0263
     19 C          -2.9495    1.7757    4.1869 C.ar    1  UNL1       -0.0504
     20 C          -4.1016    2.0897    4.8706 C.ar    1  UNL1       -0.0603
     21 C          -5.2892    2.0832    4.1807 C.ar    1  UNL1       -0.0473
     22 C          -5.3429    1.7730    2.8402 C.ar    1  UNL1        0.0647
     23 C          -6.5436    1.7664    2.1427 C.ar    1  UNL1        0.1944
     24 O          -7.6079    2.0501    2.7460 O.2     1  UNL1       -0.2870
     25 C          -6.4926    1.4438    0.8091 C.ar    1  UNL1        0.0434
     26 C          -5.2950    1.1409    0.1979 C.ar    1  UNL1        0.1931
     27 N          -5.3208    0.8130   -1.1995 N.pl3   1  UNL1       -0.2969
     28 C          -6.5728    0.8174   -1.9044 C.3     1  UNL1        0.0383
     29 C          -6.4941    0.4299   -3.3346 C.3     1  UNL1        0.0635
     30 O          -5.3061   -0.1494   -3.7381 O.3     1  UNL1       -0.3767
     31 C          -4.2553    0.6848   -3.3440 C.3     1  UNL1        0.0635
     32 C          -4.0975    0.4855   -1.8552 C.3     1  UNL1        0.0383
     33 O          -4.1583    1.1496    0.8681 O.2     1  UNL1       -0.4405
     34 C          -4.2018    1.4573    2.1432 C.ar    1  UNL1        0.1485
     35 C          -1.3887   -0.1850    2.0582 C.ar    1  UNL1        0.0301
     36 S          -2.1894   -1.6011    2.7758 S.2     1  UNL1       -0.0876
     37 C          -0.9559   -2.8211    2.1713 C.ar    1  UNL1        0.0206
     38 C          -0.9181   -4.1602    2.3532 C.ar    1  UNL1       -0.0474
     39 C           0.1304   -4.8614    1.8014 C.ar    1  UNL1       -0.0607
     40 C           1.0585   -4.1273    1.1049 C.ar    1  UNL1       -0.0611
     41 C           0.9907   -2.7641    0.9378 C.ar    1  UNL1       -0.0529
     42 C          -0.0916   -2.0271    1.5042 C.ar    1  UNL1       -0.0013
     43 C          -0.2974   -0.6930    1.4373 C.ar    1  UNL1        0.0187
     44 H           2.6561   -1.4655   -2.6169 H       1  UNL1        0.0522
     45 H           2.8713    0.3243   -2.9655 H       1  UNL1        0.0522
     46 H           4.9181    0.4724    0.1541 H       1  UNL1        0.0439
     47 H           3.7736    1.4664   -0.8028 H       1  UNL1        0.0439
     48 H           5.9754    2.2295   -1.1966 H       1  UNL1        0.0439
     49 H           5.2719    1.5773   -2.6740 H       1  UNL1        0.0439
     50 H           8.0939   -0.9149   -1.0281 H       1  UNL1        0.0449
     51 H           6.8328   -0.3920    0.0849 H       1  UNL1        0.0449
     52 H           8.9227    0.5929    0.6980 H       1  UNL1        0.0570
     53 H           9.0807    1.3574   -0.9626 H       1  UNL1        0.0570
     54 H           7.9617    2.3817    1.2130 H       1  UNL1        0.2095
     55 H           5.9986   -0.4340   -3.6396 H       1  UNL1        0.0439
     56 H           7.0341   -1.5184   -2.6743 H       1  UNL1        0.0439
     57 H           5.3829   -2.0891   -1.1202 H       1  UNL1        0.0439
     58 H           4.5443   -2.0668   -2.7005 H       1  UNL1        0.0439
     59 H           2.5841   -0.0678    0.5537 H       1  UNL1        0.1549
     60 H           0.7298    2.3754    0.3424 H       1  UNL1        0.0636
     61 H          -1.2775    3.1162    1.5136 H       1  UNL1        0.0625
     62 H          -1.9842    1.7735    4.7163 H       1  UNL1        0.0625
     63 H          -4.0588    2.3380    5.9445 H       1  UNL1        0.0618
     64 H          -6.2062    2.3226    4.6790 H       1  UNL1        0.0626
     65 H          -7.4230    1.4365    0.2574 H       1  UNL1        0.0707
     66 H          -6.9921    1.8598   -1.8184 H       1  UNL1        0.0487
     67 H          -7.3479    0.1951   -1.3598 H       1  UNL1        0.0487
     68 H          -6.7824    1.2969   -3.9654 H       1  UNL1        0.0575
     69 H          -7.2892   -0.3392   -3.5366 H       1  UNL1        0.0575
     70 H          -4.5614    1.7339   -3.5101 H       1  UNL1        0.0575
     71 H          -3.3506    0.3955   -3.9170 H       1  UNL1        0.0575
     72 H          -3.8094   -0.5634   -1.6204 H       1  UNL1        0.0487
     73 H          -3.3035    1.1569   -1.4514 H       1  UNL1        0.0487
     74 H          -1.7036   -4.6271    2.9195 H       1  UNL1        0.0629
     75 H           0.1876   -5.9296    1.9291 H       1  UNL1        0.0618
     76 H           1.8864   -4.7103    0.6742 H       1  UNL1        0.0618
     77 H           1.7788   -2.3185    0.3860 H       1  UNL1        0.0624
@<TRIPOS>BOND
     1     1     2    2
     2     2     3    1
     3     3     4    1
     4     4     5    1
     5     5     6    1
     6     6     7    1
     7     7     8    1
     8     8     9    1
     9     9    10    1
    10     7    11    1
    11    11    12    1
    12     2    13   am
    13    13    14    1
    14    14    15   ar
    15    15    16   ar
    16    16    17   ar
    17    17    18    1
    18    18    19   ar
    19    19    20   ar
    20    20    21   ar
    21    21    22   ar
    22    22    23   ar
    23    23    24    2
    24    23    25   ar
    25    25    26   ar
    26    26    27    1
    27    27    28    1
    28    28    29    1
    29    29    30    1
    30    30    31    1
    31    31    32    1
    32    26    33   ar
    33    33    34   ar
    34    17    35   ar
    35    35    36   ar
    36    36    37   ar
    37    37    38   ar
    38    38    39   ar
    39    39    40   ar
    40    40    41   ar
    41    41    42   ar
    42    42    43   ar
    43    12     4    1
    44    43    14   ar
    45    34    18   ar
    46    43    35   ar
    47    34    22   ar
    48    42    37   ar
    49    32    27    1
    50     3    44    1
    51     3    45    1
    52     5    46    1
    53     5    47    1
    54     6    48    1
    55     6    49    1
    56     8    50    1
    57     8    51    1
    58     9    52    1
    59     9    53    1
    60    10    54    1
    61    11    55    1
    62    11    56    1
    63    12    57    1
    64    12    58    1
    65    13    59    1
    66    15    60    1
    67    16    61    1
    68    19    62    1
    69    20    63    1
    70    21    64    1
    71    25    65    1
    72    28    66    1
    73    28    67    1
    74    29    68    1
    75    29    69    1
    76    31    70    1
    77    31    71    1
    78    32    72    1
    79    32    73    1
    80    38    74    1
    81    39    75    1
    82    40    76    1
    83    41    77    1
