
     RDKit          3D

 77 83  0  0  0  0  0  0  0  0999 V2000
    0.4940   -0.0488   -1.8818 O   0  0  0  0  0  0  0  0  0  0  0  0
    1.6310   -0.1584   -1.3596 C   0  0  0  0  0  0  0  0  0  0  0  0
    2.8343   -0.4487   -2.1617 C   0  0  0  0  0  0  0  0  0  0  0  0
    4.0483   -0.5283   -1.4359 N   0  0  0  0  0  0  0  0  0  0  0  0
    4.5559    0.6716   -0.8755 C   0  0  0  0  0  0  0  0  0  0  0  0
    5.6819    1.3045   -1.6695 C   0  0  0  0  0  0  0  0  0  0  0  0
    6.7331    0.3670   -1.8760 N   0  0  0  0  0  0  0  0  0  0  0  0
    7.4893   -0.0211   -0.7368 C   0  0  0  0  0  0  0  0  0  0  0  0
    8.3652    1.0498   -0.1517 C   0  0  0  0  0  0  0  0  0  0  0  0
    7.6947    2.1588    0.2884 O   0  0  0  0  0  0  0  0  0  0  0  0
    6.2136   -0.7816   -2.6134 C   0  0  0  0  0  0  0  0  0  0  0  0
    5.0415   -1.4042   -1.9289 C   0  0  0  0  0  0  0  0  0  0  0  0
    1.6701    0.0189    0.0712 N   0  0  0  0  0  0  0  0  0  0  0  0
    0.4849    0.2993    0.7957 C   0  0  0  0  0  0  0  0  0  0  0  0
    0.1188    1.6245    0.8388 C   0  0  0  0  0  0  0  0  0  0  0  0
   -1.0070    2.0845    1.4892 C   0  0  0  0  0  0  0  0  0  0  0  0
   -1.7727    1.1320    2.1129 C   0  0  0  0  0  0  0  0  0  0  0  0
   -2.9814    1.4600    2.8354 C   0  0  0  0  0  0  0  0  0  0  0  0
   -2.9495    1.7757    4.1869 C   0  0  0  0  0  0  0  0  0  0  0  0
   -4.1016    2.0897    4.8706 C   0  0  0  0  0  0  0  0  0  0  0  0
   -5.2892    2.0832    4.1807 C   0  0  0  0  0  0  0  0  0  0  0  0
   -5.3429    1.7730    2.8402 C   0  0  0  0  0  0  0  0  0  0  0  0
   -6.5436    1.7664    2.1427 C   0  0  0  0  0  0  0  0  0  0  0  0
   -7.6079    2.0501    2.7460 O   0  0  0  0  0  0  0  0  0  0  0  0
   -6.4926    1.4438    0.8091 C   0  0  0  0  0  0  0  0  0  0  0  0
   -5.2950    1.1409    0.1979 C   0  0  0  0  0  0  0  0  0  0  0  0
   -5.3208    0.8130   -1.1995 N   0  0  0  0  0  0  0  0  0  0  0  0
   -6.5728    0.8174   -1.9044 C   0  0  0  0  0  0  0  0  0  0  0  0
   -6.4941    0.4299   -3.3346 C   0  0  0  0  0  0  0  0  0  0  0  0
   -5.3061   -0.1494   -3.7381 O   0  0  0  0  0  0  0  0  0  0  0  0
   -4.2553    0.6848   -3.3440 C   0  0  0  0  0  0  0  0  0  0  0  0
   -4.0975    0.4855   -1.8552 C   0  0  0  0  0  0  0  0  0  0  0  0
   -4.1583    1.1496    0.8681 O   0  0  0  0  0  0  0  0  0  0  0  0
   -4.2018    1.4573    2.1432 C   0  0  0  0  0  0  0  0  0  0  0  0
   -1.3887   -0.1850    2.0582 C   0  0  0  0  0  0  0  0  0  0  0  0
   -2.1894   -1.6011    2.7758 S   0  0  0  0  0  0  0  0  0  0  0  0
   -0.9559   -2.8211    2.1713 C   0  0  0  0  0  0  0  0  0  0  0  0
   -0.9181   -4.1602    2.3532 C   0  0  0  0  0  0  0  0  0  0  0  0
    0.1304   -4.8614    1.8014 C   0  0  0  0  0  0  0  0  0  0  0  0
    1.0585   -4.1273    1.1049 C   0  0  0  0  0  0  0  0  0  0  0  0
    0.9907   -2.7641    0.9378 C   0  0  0  0  0  0  0  0  0  0  0  0
   -0.0916   -2.0271    1.5042 C   0  0  0  0  0  0  0  0  0  0  0  0
   -0.2974   -0.6930    1.4373 C   0  0  0  0  0  0  0  0  0  0  0  0
    2.6561   -1.4655   -2.6169 H   0  0  0  0  0  0  0  0  0  0  0  0
    2.8713    0.3243   -2.9655 H   0  0  0  0  0  0  0  0  0  0  0  0
    4.9181    0.4724    0.1541 H   0  0  0  0  0  0  0  0  0  0  0  0
    3.7736    1.4664   -0.8028 H   0  0  0  0  0  0  0  0  0  0  0  0
    5.9754    2.2295   -1.1966 H   0  0  0  0  0  0  0  0  0  0  0  0
    5.2719    1.5773   -2.6740 H   0  0  0  0  0  0  0  0  0  0  0  0
    8.0939   -0.9149   -1.0281 H   0  0  0  0  0  0  0  0  0  0  0  0
    6.8328   -0.3920    0.0849 H   0  0  0  0  0  0  0  0  0  0  0  0
    8.9227    0.5929    0.6980 H   0  0  0  0  0  0  0  0  0  0  0  0
    9.0807    1.3574   -0.9626 H   0  0  0  0  0  0  0  0  0  0  0  0
    7.9617    2.3817    1.2130 H   0  0  0  0  0  0  0  0  0  0  0  0
    5.9986   -0.4340   -3.6396 H   0  0  0  0  0  0  0  0  0  0  0  0
    7.0341   -1.5184   -2.6743 H   0  0  0  0  0  0  0  0  0  0  0  0
    5.3829   -2.0891   -1.1202 H   0  0  0  0  0  0  0  0  0  0  0  0
    4.5443   -2.0668   -2.7005 H   0  0  0  0  0  0  0  0  0  0  0  0
    2.5841   -0.0678    0.5537 H   0  0  0  0  0  0  0  0  0  0  0  0
    0.7298    2.3754    0.3424 H   0  0  0  0  0  0  0  0  0  0  0  0
   -1.2775    3.1162    1.5136 H   0  0  0  0  0  0  0  0  0  0  0  0
   -1.9842    1.7735    4.7163 H   0  0  0  0  0  0  0  0  0  0  0  0
   -4.0588    2.3380    5.9445 H   0  0  0  0  0  0  0  0  0  0  0  0
   -6.2062    2.3226    4.6790 H   0  0  0  0  0  0  0  0  0  0  0  0
   -7.4230    1.4365    0.2574 H   0  0  0  0  0  0  0  0  0  0  0  0
   -6.9921    1.8598   -1.8184 H   0  0  0  0  0  0  0  0  0  0  0  0
   -7.3479    0.1951   -1.3598 H   0  0  0  0  0  0  0  0  0  0  0  0
   -6.7824    1.2969   -3.9654 H   0  0  0  0  0  0  0  0  0  0  0  0
   -7.2892   -0.3392   -3.5366 H   0  0  0  0  0  0  0  0  0  0  0  0
   -4.5614    1.7339   -3.5101 H   0  0  0  0  0  0  0  0  0  0  0  0
   -3.3506    0.3955   -3.9170 H   0  0  0  0  0  0  0  0  0  0  0  0
   -3.8094   -0.5634   -1.6204 H   0  0  0  0  0  0  0  0  0  0  0  0
   -3.3035    1.1569   -1.4514 H   0  0  0  0  0  0  0  0  0  0  0  0
   -1.7036   -4.6271    2.9195 H   0  0  0  0  0  0  0  0  0  0  0  0
    0.1876   -5.9296    1.9291 H   0  0  0  0  0  0  0  0  0  0  0  0
    1.8864   -4.7103    0.6742 H   0  0  0  0  0  0  0  0  0  0  0  0
    1.7788   -2.3185    0.3860 H   0  0  0  0  0  0  0  0  0  0  0  0
  1  2  2  0
  2  3  1  0
  3  4  1  0
  4  5  1  0
  5  6  1  0
  6  7  1  0
  7  8  1  0
  8  9  1  0
  9 10  1  0
  7 11  1  0
 11 12  1  0
  2 13  1  0
 13 14  1  0
 14 15  2  0
 15 16  1  0
 16 17  2  0
 17 18  1  0
 18 19  2  0
 19 20  1  0
 20 21  2  0
 21 22  1  0
 22 23  1  0
 23 24  2  0
 23 25  1  0
 25 26  2  0
 26 27  1  0
 27 28  1  0
 28 29  1  0
 29 30  1  0
 30 31  1  0
 31 32  1  0
 26 33  1  0
 33 34  1  0
 17 35  1  0
 35 36  1  0
 36 37  1  0
 37 38  2  0
 38 39  1  0
 39 40  2  0
 40 41  1  0
 41 42  2  0
 42 43  1  0
 12  4  1  0
 43 14  1  0
 34 18  1  0
 43 35  2  0
 34 22  2  0
 42 37  1  0
 32 27  1  0
  3 44  1  0
  3 45  1  0
  5 46  1  0
  5 47  1  0
  6 48  1  0
  6 49  1  0
  8 50  1  0
  8 51  1  0
  9 52  1  0
  9 53  1  0
 10 54  1  0
 11 55  1  0
 11 56  1  0
 12 57  1  0
 12 58  1  0
 13 59  1  0
 15 60  1  0
 16 61  1  0
 19 62  1  0
 20 63  1  0
 21 64  1  0
 25 65  1  0
 28 66  1  0
 28 67  1  0
 29 68  1  0
 29 69  1  0
 31 70  1  0
 31 71  1  0
 32 72  1  0
 32 73  1  0
 38 74  1  0
 39 75  1  0
 40 76  1  0
 41 77  1  0
M  END
$$$$
