@<TRIPOS>MOLECULE
*****
 46 49 0 0 0
SMALL
GASTEIGER

@<TRIPOS>ATOM
      1 C          -2.9827   -1.0942   -1.5198 C.3     1  UNL1       -0.0354
      2 C          -2.2907   -0.6776   -0.2385 C.3     1  UNL1        0.0904
      3 C          -0.9919   -1.4336   -0.1459 C.ar    1  UNL1        0.0167
      4 C           0.2340   -0.8075   -0.0679 C.ar    1  UNL1       -0.0323
      5 C           1.3966   -1.5266   -0.0004 C.ar    1  UNL1        0.0342
      6 N           2.7053   -1.0134    0.0825 N.am    1  UNL1       -0.2802
      7 C           3.0895    0.3472    0.1148 C.2     1  UNL1        0.2666
      8 O           2.2125    1.2373    0.0674 O.2     1  UNL1       -0.2682
      9 C           4.4951    0.7575    0.2029 C.ar    1  UNL1        0.1258
     10 C           4.8527    2.0789    0.2334 C.ar    1  UNL1       -0.0285
     11 C           6.1989    2.4452    0.3176 C.ar    1  UNL1       -0.0228
     12 C           7.1537    1.4658    0.3691 C.ar    1  UNL1        0.1414
     13 F           8.4738    1.7588    0.4512 F       1  UNL1       -0.2039
     14 C           6.7659    0.1408    0.3368 C.ar    1  UNL1        0.0636
     15 N           5.4524   -0.1751    0.2549 N.ar    1  UNL1       -0.2475
     16 C           1.2708   -2.9169   -0.0152 C.ar    1  UNL1       -0.0377
     17 C           0.0832   -3.5719   -0.0910 C.ar    1  UNL1       -0.0243
     18 C          -1.0666   -2.8089   -0.1572 C.ar    1  UNL1        0.1290
     19 F          -2.2351   -3.4917   -0.2232 F       1  UNL1       -0.2051
     20 C          -2.0504    0.8043   -0.2872 C.3     1  UNL1       -0.0042
     21 C          -3.2750    1.6220   -0.1422 C.3     1  UNL1        0.0727
     22 C          -3.1691    3.0777   -0.4979 C.3     1  UNL1        0.0650
     23 O          -4.5485    3.0047   -0.8131 O.3     1  UNL1       -0.3769
     24 C          -4.2447    1.6905   -1.2679 C.3     1  UNL1        0.0650
     25 S          -4.0509    1.2513    1.4253 S.3     1  UNL1       -0.0797
     26 C          -3.8163   -0.4804    1.6595 C.2     1  UNL1        0.1482
     27 N          -4.4812   -1.1475    2.7194 N.pl3   1  UNL1       -0.3380
     28 N          -3.0631   -1.0995    0.8839 N.2     1  UNL1       -0.2524
     29 H          -4.0659   -1.1019   -1.4164 H       1  UNL1        0.0256
     30 H          -2.5751   -2.0508   -1.9281 H       1  UNL1        0.0256
     31 H          -2.7053   -0.3276   -2.2960 H       1  UNL1        0.0256
     32 H           0.2711    0.2592   -0.0653 H       1  UNL1        0.0640
     33 H           3.5432   -1.6809    0.1290 H       1  UNL1        0.1552
     34 H           4.1218    2.8640    0.1942 H       1  UNL1        0.0641
     35 H           6.4692    3.4993    0.3410 H       1  UNL1        0.0647
     36 H           7.4895   -0.6673    0.3754 H       1  UNL1        0.0859
     37 H           2.1669   -3.5344    0.0364 H       1  UNL1        0.0637
     38 H           0.0456   -4.6408   -0.0988 H       1  UNL1        0.0647
     39 H          -1.4570    1.1132   -1.1684 H       1  UNL1        0.0307
     40 H          -1.4168    1.0288    0.6272 H       1  UNL1        0.0307
     41 H          -2.6081    3.1956   -1.4375 H       1  UNL1        0.0574
     42 H          -2.9211    3.7727    0.3055 H       1  UNL1        0.0574
     43 H          -3.8626    1.7310   -2.2938 H       1  UNL1        0.0574
     44 H          -5.1293    1.0045   -1.1199 H       1  UNL1        0.0574
     45 H          -5.5418   -1.1466    2.6845 H       1  UNL1        0.1442
     46 H          -3.9429   -1.6065    3.4799 H       1  UNL1        0.1442
@<TRIPOS>BOND
     1     2     1    1
     2     2     3    1
     3     3     4   ar
     4     4     5   ar
     5     5     6    1
     6     6     7   am
     7     7     8    2
     8     7     9    1
     9     9    10   ar
    10    10    11   ar
    11    11    12   ar
    12    12    13    1
    13    12    14   ar
    14    14    15   ar
    15     5    16   ar
    16    16    17   ar
    17    17    18   ar
    18    18    19    1
    19     2    20    1
    20    20    21    1
    21    21    22    1
    22    22    23    1
    23    23    24    1
    24    21    25    1
    25    25    26    1
    26    26    27    1
    27    26    28    2
    28    28     2    1
    29    18     3   ar
    30    24    21    1
    31    15     9   ar
    32     1    29    1
    33     1    30    1
    34     1    31    1
    35     4    32    1
    36     6    33    1
    37    10    34    1
    38    11    35    1
    39    14    36    1
    40    16    37    1
    41    17    38    1
    42    20    39    1
    43    20    40    1
    44    22    41    1
    45    22    42    1
    46    24    43    1
    47    24    44    1
    48    27    45    1
    49    27    46    1
