
     RDKit          3D

 46 49  0  0  0  0  0  0  0  0999 V2000
   -2.9827   -1.0942   -1.5198 C   0  0  0  0  0  0  0  0  0  0  0  0
   -2.2907   -0.6776   -0.2385 C   0  0  1  0  0  0  0  0  0  0  0  0
   -0.9919   -1.4336   -0.1459 C   0  0  0  0  0  0  0  0  0  0  0  0
    0.2340   -0.8075   -0.0679 C   0  0  0  0  0  0  0  0  0  0  0  0
    1.3966   -1.5266   -0.0004 C   0  0  0  0  0  0  0  0  0  0  0  0
    2.7053   -1.0134    0.0825 N   0  0  0  0  0  0  0  0  0  0  0  0
    3.0895    0.3472    0.1148 C   0  0  0  0  0  0  0  0  0  0  0  0
    2.2125    1.2373    0.0674 O   0  0  0  0  0  0  0  0  0  0  0  0
    4.4951    0.7575    0.2029 C   0  0  0  0  0  0  0  0  0  0  0  0
    4.8527    2.0789    0.2334 C   0  0  0  0  0  0  0  0  0  0  0  0
    6.1989    2.4452    0.3176 C   0  0  0  0  0  0  0  0  0  0  0  0
    7.1537    1.4658    0.3691 C   0  0  0  0  0  0  0  0  0  0  0  0
    8.4738    1.7588    0.4512 F   0  0  0  0  0  0  0  0  0  0  0  0
    6.7659    0.1408    0.3368 C   0  0  0  0  0  0  0  0  0  0  0  0
    5.4524   -0.1751    0.2549 N   0  0  0  0  0  0  0  0  0  0  0  0
    1.2708   -2.9169   -0.0152 C   0  0  0  0  0  0  0  0  0  0  0  0
    0.0832   -3.5719   -0.0910 C   0  0  0  0  0  0  0  0  0  0  0  0
   -1.0666   -2.8089   -0.1572 C   0  0  0  0  0  0  0  0  0  0  0  0
   -2.2351   -3.4917   -0.2232 F   0  0  0  0  0  0  0  0  0  0  0  0
   -2.0504    0.8043   -0.2872 C   0  0  0  0  0  0  0  0  0  0  0  0
   -3.2750    1.6220   -0.1422 C   0  0  0  0  0  0  0  0  0  0  0  0
   -3.1691    3.0777   -0.4979 C   0  0  0  0  0  0  0  0  0  0  0  0
   -4.5485    3.0047   -0.8131 O   0  0  0  0  0  0  0  0  0  0  0  0
   -4.2447    1.6905   -1.2679 C   0  0  0  0  0  0  0  0  0  0  0  0
   -4.0509    1.2513    1.4253 S   0  0  0  0  0  0  0  0  0  0  0  0
   -3.8163   -0.4804    1.6595 C   0  0  0  0  0  0  0  0  0  0  0  0
   -4.4812   -1.1475    2.7194 N   0  0  0  0  0  0  0  0  0  0  0  0
   -3.0631   -1.0995    0.8839 N   0  0  0  0  0  0  0  0  0  0  0  0
   -4.0659   -1.1019   -1.4164 H   0  0  0  0  0  0  0  0  0  0  0  0
   -2.5751   -2.0508   -1.9281 H   0  0  0  0  0  0  0  0  0  0  0  0
   -2.7053   -0.3276   -2.2960 H   0  0  0  0  0  0  0  0  0  0  0  0
    0.2711    0.2592   -0.0653 H   0  0  0  0  0  0  0  0  0  0  0  0
    3.5432   -1.6809    0.1290 H   0  0  0  0  0  0  0  0  0  0  0  0
    4.1218    2.8640    0.1942 H   0  0  0  0  0  0  0  0  0  0  0  0
    6.4692    3.4993    0.3410 H   0  0  0  0  0  0  0  0  0  0  0  0
    7.4895   -0.6673    0.3754 H   0  0  0  0  0  0  0  0  0  0  0  0
    2.1669   -3.5344    0.0364 H   0  0  0  0  0  0  0  0  0  0  0  0
    0.0456   -4.6408   -0.0988 H   0  0  0  0  0  0  0  0  0  0  0  0
   -1.4570    1.1132   -1.1684 H   0  0  0  0  0  0  0  0  0  0  0  0
   -1.4168    1.0288    0.6272 H   0  0  0  0  0  0  0  0  0  0  0  0
   -2.6081    3.1956   -1.4375 H   0  0  0  0  0  0  0  0  0  0  0  0
   -2.9211    3.7727    0.3055 H   0  0  0  0  0  0  0  0  0  0  0  0
   -3.8626    1.7310   -2.2938 H   0  0  0  0  0  0  0  0  0  0  0  0
   -5.1293    1.0045   -1.1199 H   0  0  0  0  0  0  0  0  0  0  0  0
   -5.5418   -1.1466    2.6845 H   0  0  0  0  0  0  0  0  0  0  0  0
   -3.9429   -1.6065    3.4799 H   0  0  0  0  0  0  0  0  0  0  0  0
  2  1  1  6
  2  3  1  0
  3  4  2  0
  4  5  1  0
  5  6  1  0
  6  7  1  0
  7  8  2  0
  7  9  1  0
  9 10  2  0
 10 11  1  0
 11 12  2  0
 12 13  1  0
 12 14  1  0
 14 15  2  0
  5 16  2  0
 16 17  1  0
 17 18  2  0
 18 19  1  0
  2 20  1  0
 20 21  1  0
 21 22  1  0
 22 23  1  0
 23 24  1  0
 21 25  1  0
 25 26  1  0
 26 27  1  0
 26 28  2  0
 28  2  1  0
 18  3  1  0
 24 21  1  0
 15  9  1  0
  1 29  1  0
  1 30  1  0
  1 31  1  0
  4 32  1  0
  6 33  1  0
 10 34  1  0
 11 35  1  0
 14 36  1  0
 16 37  1  0
 17 38  1  0
 20 39  1  0
 20 40  1  0
 22 41  1  0
 22 42  1  0
 24 43  1  0
 24 44  1  0
 27 45  1  0
 27 46  1  0
M  END
$$$$
