@<TRIPOS>MOLECULE
*****
 68 71 0 0 0
SMALL
GASTEIGER

@<TRIPOS>ATOM
      1 C           0.2975   -3.8007    0.7718 C.3     1  UNL1       -0.0421
      2 C           0.2568   -2.3067    1.1033 C.3     1  UNL1        0.0515
      3 C           1.4904   -1.6328    0.5981 C.ar    1  UNL1       -0.0271
      4 C           2.5368   -1.3960    1.5000 C.ar    1  UNL1       -0.0562
      5 C           3.7065   -0.7883    1.1128 C.ar    1  UNL1       -0.0522
      6 C           3.9156   -0.3738   -0.1992 C.ar    1  UNL1        0.0021
      7 C           5.1748    0.2701   -0.5793 C.ar    1  UNL1        0.0916
      8 C           5.4442    0.6957   -1.8527 C.ar    1  UNL1       -0.0289
      9 C           6.6498    1.3033   -2.2046 C.ar    1  UNL1        0.0064
     10 C           7.5787    1.4673   -1.2191 C.ar    1  UNL1        0.2675
     11 O           8.6792    2.0108   -1.4939 O.2     1  UNL1       -0.2662
     12 N           7.3078    1.0478    0.0285 N.ar    1  UNL1       -0.2202
     13 C           8.3416    1.2523    1.0263 C.3     1  UNL1        0.1402
     14 C           8.1740    2.6027    1.6909 C.3     1  UNL1        0.4090
     15 F           6.9353    2.6212    2.2876 F       1  UNL1       -0.1687
     16 F           8.3032    3.5492    0.6862 F       1  UNL1       -0.1687
     17 F           9.1827    2.7260    2.6386 F       1  UNL1       -0.1687
     18 N           6.1472    0.4663    0.3504 N.ar    1  UNL1       -0.1679
     19 C           2.8966   -0.6025   -1.0836 C.ar    1  UNL1       -0.0522
     20 C           1.7031   -1.2237   -0.6848 C.ar    1  UNL1       -0.0562
     21 N          -0.9755   -1.6925    0.7051 N.am    1  UNL1       -0.2605
     22 C          -1.4481   -1.6018   -0.6538 C.3     1  UNL1        0.0224
     23 C          -2.9779   -1.7396   -0.5985 C.3     1  UNL1        0.0076
     24 C          -3.5938   -0.4968    0.0821 C.3     1  UNL1        0.1440
     25 C          -5.0065   -0.8492    0.3495 C.3     1  UNL1        0.0199
     26 C          -5.8644    0.1271    1.0480 C.3     1  UNL1        0.0645
     27 C          -6.0679    1.4589    0.3985 C.3     1  UNL1       -0.0362
     28 C          -7.2697   -0.5085    1.1182 C.3     1  UNL1       -0.0362
     29 O          -5.4658    0.2934    2.3960 O.3     1  UNL1       -0.3890
     30 C          -3.3484    0.6780   -0.7650 C.ar    1  UNL1       -0.0040
     31 C          -2.3650    1.6058   -0.4948 C.ar    1  UNL1       -0.0548
     32 C          -2.1322    2.6897   -1.3323 C.ar    1  UNL1       -0.0614
     33 C          -2.8791    2.8740   -2.4637 C.ar    1  UNL1       -0.0617
     34 C          -3.8687    1.9499   -2.7447 C.ar    1  UNL1       -0.0614
     35 C          -4.0857    0.8813   -1.9041 C.ar    1  UNL1       -0.0548
     36 O          -2.9353   -0.3399    1.3306 O.3     1  UNL1       -0.4387
     37 C          -1.8584   -1.1371    1.7001 C.2     1  UNL1        0.4042
     38 O          -1.5944   -1.4160    2.8979 O.2     1  UNL1       -0.2262
     39 H           1.3147   -4.1309    1.1306 H       1  UNL1        0.0251
     40 H           0.2866   -3.9872   -0.2999 H       1  UNL1        0.0251
     41 H          -0.4417   -4.3387    1.3645 H       1  UNL1        0.0251
     42 H           0.3008   -2.2799    2.2485 H       1  UNL1        0.0549
     43 H           2.3939   -1.7124    2.5314 H       1  UNL1        0.0621
     44 H           4.5306   -0.5958    1.7980 H       1  UNL1        0.0624
     45 H           4.7164    0.5723   -2.6397 H       1  UNL1        0.0641
     46 H           6.8420    1.6348   -3.2321 H       1  UNL1        0.0673
     47 H           9.3150    1.1263    0.5297 H       1  UNL1        0.0599
     48 H           8.2244    0.4223    1.7758 H       1  UNL1        0.0599
     49 H           2.9953   -0.3030   -2.1192 H       1  UNL1        0.0624
     50 H           0.9465   -1.3746   -1.4362 H       1  UNL1        0.0621
     51 H          -1.2545   -0.6057   -1.0407 H       1  UNL1        0.0467
     52 H          -1.1002   -2.4472   -1.2845 H       1  UNL1        0.0467
     53 H          -3.2762   -2.5947    0.0466 H       1  UNL1        0.0322
     54 H          -3.4079   -1.9097   -1.5883 H       1  UNL1        0.0322
     55 H          -5.0385   -1.8143    0.9422 H       1  UNL1        0.0335
     56 H          -5.5489   -1.1382   -0.5983 H       1  UNL1        0.0335
     57 H          -6.8433    2.0676    0.9770 H       1  UNL1        0.0257
     58 H          -5.1854    2.1134    0.4001 H       1  UNL1        0.0257
     59 H          -6.5522    1.3106   -0.5869 H       1  UNL1        0.0257
     60 H          -7.8587   -0.2677    0.2090 H       1  UNL1        0.0257
     61 H          -7.8009   -0.1610    2.0284 H       1  UNL1        0.0257
     62 H          -7.1636   -1.6147    1.1482 H       1  UNL1        0.0257
     63 H          -6.2812    0.4156    2.9353 H       1  UNL1        0.2101
     64 H          -1.7375    1.5217    0.3808 H       1  UNL1        0.0622
     65 H          -1.3427    3.4186   -1.0980 H       1  UNL1        0.0618
     66 H          -2.6986    3.7169   -3.1136 H       1  UNL1        0.0618
     67 H          -4.4538    2.1033   -3.6387 H       1  UNL1        0.0618
     68 H          -4.8655    0.1876   -2.1629 H       1  UNL1        0.0622
@<TRIPOS>BOND
     1     1     2    1
     2     2     3    1
     3     3     4   ar
     4     4     5   ar
     5     5     6   ar
     6     6     7    1
     7     7     8   ar
     8     8     9   ar
     9     9    10   ar
    10    10    11    2
    11    10    12   ar
    12    12    13    1
    13    13    14    1
    14    14    15    1
    15    14    16    1
    16    14    17    1
    17    12    18   ar
    18     6    19   ar
    19    19    20   ar
    20     2    21    1
    21    21    22    1
    22    22    23    1
    23    23    24    1
    24    24    25    1
    25    25    26    1
    26    26    27    1
    27    26    28    1
    28    26    29    1
    29    24    30    1
    30    30    31   ar
    31    31    32   ar
    32    32    33   ar
    33    33    34   ar
    34    34    35   ar
    35    24    36    1
    36    36    37    1
    37    37    38    2
    38    20     3   ar
    39    37    21   am
    40    18     7   ar
    41    35    30   ar
    42     1    39    1
    43     1    40    1
    44     1    41    1
    45     2    42    1
    46     4    43    1
    47     5    44    1
    48     8    45    1
    49     9    46    1
    50    13    47    1
    51    13    48    1
    52    19    49    1
    53    20    50    1
    54    22    51    1
    55    22    52    1
    56    23    53    1
    57    23    54    1
    58    25    55    1
    59    25    56    1
    60    27    57    1
    61    27    58    1
    62    27    59    1
    63    28    60    1
    64    28    61    1
    65    28    62    1
    66    29    63    1
    67    31    64    1
    68    32    65    1
    69    33    66    1
    70    34    67    1
    71    35    68    1
