@<TRIPOS>MOLECULE
*****
 27 28 0 0 0
SMALL
GASTEIGER

@<TRIPOS>ATOM
      1 O          -0.7336   -0.7797    2.2886 O.2     1  UNL1       -0.2873
      2 C          -0.8826   -0.2844    1.1448 C.2     1  UNL1        0.1861
      3 C           0.2664   -0.0639    0.2865 C.2     1  UNL1       -0.0137
      4 C           1.4927   -0.3694    0.6658 C.2     1  UNL1       -0.0495
      5 C           2.6464   -0.1516   -0.1876 C.ar    1  UNL1       -0.0068
      6 C           3.9161   -0.5085    0.3025 C.ar    1  UNL1       -0.0517
      7 C           5.0163   -0.3092   -0.4912 C.ar    1  UNL1       -0.0430
      8 C           4.8871    0.2364   -1.7608 C.ar    1  UNL1        0.0276
      9 N           3.6555    0.5593   -2.1804 N.ar    1  UNL1       -0.2627
     10 C           2.5307    0.3832   -1.4354 C.ar    1  UNL1        0.0347
     11 C          -2.2207    0.0653    0.6916 C.ar    1  UNL1        0.0227
     12 C          -2.4936    0.6127   -0.5414 C.ar    1  UNL1       -0.0509
     13 C          -3.7921    0.9151   -0.8927 C.ar    1  UNL1       -0.0600
     14 C          -4.8374    0.6825   -0.0351 C.ar    1  UNL1       -0.0477
     15 C          -4.6022    0.1342    1.2111 C.ar    1  UNL1        0.0186
     16 BR         -6.0486   -0.1965    2.4190 Br      1  UNL1       -0.0503
     17 C          -3.3142   -0.1587    1.5426 C.ar    1  UNL1       -0.0369
     18 H           0.1232    0.3584   -0.6842 H       1  UNL1        0.0656
     19 H           1.6165   -0.8065    1.6772 H       1  UNL1        0.0625
     20 H           4.0146   -0.9393    1.3060 H       1  UNL1        0.0624
     21 H           6.0175   -0.5643   -0.1679 H       1  UNL1        0.0633
     22 H           5.7598    0.3899   -2.3796 H       1  UNL1        0.0829
     23 H           1.5875    0.6829   -1.8822 H       1  UNL1        0.0835
     24 H          -1.6868    0.8074   -1.2399 H       1  UNL1        0.0625
     25 H          -3.9518    1.3434   -1.8730 H       1  UNL1        0.0618
     26 H          -5.8479    0.9184   -0.3098 H       1  UNL1        0.0629
     27 H          -3.1191   -0.5922    2.5251 H       1  UNL1        0.0636
@<TRIPOS>BOND
     1     1     2    2
     2     2     3    1
     3     3     4    2
     4     4     5    1
     5     5     6   ar
     6     6     7   ar
     7     7     8   ar
     8     8     9   ar
     9     9    10   ar
    10     2    11    1
    11    11    12   ar
    12    12    13   ar
    13    13    14   ar
    14    14    15   ar
    15    15    16    1
    16    15    17   ar
    17    10     5   ar
    18    17    11   ar
    19     3    18    1
    20     4    19    1
    21     6    20    1
    22     7    21    1
    23     8    22    1
    24    10    23    1
    25    12    24    1
    26    13    25    1
    27    14    26    1
    28    17    27    1
