@<TRIPOS>MOLECULE
*****
 34 34 0 0 0
SMALL
GASTEIGER

@<TRIPOS>ATOM
      1 C          -2.2729   -1.6910    1.5663 C.3     1  UNL1       -0.0523
      2 C          -2.5293   -0.9739    0.2762 C.3     1  UNL1       -0.0033
      3 N          -1.9192    0.3221    0.1538 N.3     1  UNL1       -0.2933
      4 C          -2.6605    1.0933   -0.8663 C.3     1  UNL1       -0.0033
      5 C          -2.0728    2.4551   -0.9606 C.3     1  UNL1       -0.0523
      6 C          -0.5169    0.3752   -0.1314 C.3     1  UNL1        0.0708
      7 C          -0.1849    0.6175   -1.5915 C.3     1  UNL1       -0.0422
      8 C           0.2591   -0.8760    0.1705 C.2     1  UNL1        0.1799
      9 O           0.0797   -2.1091    0.3300 O.2     1  UNL1       -0.2904
     10 C           1.7147   -0.6912    0.3571 C.ar    1  UNL1        0.0190
     11 C           2.6028   -1.6852    0.6420 C.ar    1  UNL1       -0.0512
     12 C           3.9743   -1.5353    0.8235 C.ar    1  UNL1       -0.0611
     13 C           4.5104   -0.2874    0.7116 C.ar    1  UNL1       -0.0617
     14 C           3.6810    0.7627    0.4268 C.ar    1  UNL1       -0.0611
     15 C           2.3332    0.5510    0.2585 C.ar    1  UNL1       -0.0512
     16 H          -1.5204   -1.1687    2.1937 H       1  UNL1        0.0242
     17 H          -3.2277   -1.5426    2.1959 H       1  UNL1        0.0242
     18 H          -2.1914   -2.7756    1.5125 H       1  UNL1        0.0242
     19 H          -2.2446   -1.6485   -0.5844 H       1  UNL1        0.0424
     20 H          -3.6198   -0.8408    0.1501 H       1  UNL1        0.0424
     21 H          -2.8673    0.5517   -1.7765 H       1  UNL1        0.0424
     22 H          -3.6794    1.2177   -0.3718 H       1  UNL1        0.0424
     23 H          -1.2397    2.6713   -0.2647 H       1  UNL1        0.0242
     24 H          -1.7800    2.7627   -2.0092 H       1  UNL1        0.0242
     25 H          -2.8435    3.2605   -0.7093 H       1  UNL1        0.0242
     26 H          -0.0848    1.1865    0.4610 H       1  UNL1        0.0542
     27 H          -0.9929    0.5084   -2.2945 H       1  UNL1        0.0249
     28 H           0.2722    1.6173   -1.7444 H       1  UNL1        0.0249
     29 H           0.6251   -0.0849   -1.9562 H       1  UNL1        0.0249
     30 H           2.2598   -2.7010    0.7465 H       1  UNL1        0.0625
     31 H           4.6071   -2.3748    1.0469 H       1  UNL1        0.0618
     32 H           5.5673   -0.1567    0.8484 H       1  UNL1        0.0618
     33 H           4.1542    1.7256    0.3495 H       1  UNL1        0.0618
     34 H           1.8072    1.4642    0.0402 H       1  UNL1        0.0625
@<TRIPOS>BOND
     1     1     2    1
     2     2     3    1
     3     3     4    1
     4     4     5    1
     5     3     6    1
     6     6     7    1
     7     6     8    1
     8     8     9    2
     9     8    10    1
    10    10    11   ar
    11    11    12   ar
    12    12    13   ar
    13    13    14   ar
    14    14    15   ar
    15    15    10   ar
    16     1    16    1
    17     1    17    1
    18     1    18    1
    19     2    19    1
    20     2    20    1
    21     4    21    1
    22     4    22    1
    23     5    23    1
    24     5    24    1
    25     5    25    1
    26     6    26    1
    27     7    27    1
    28     7    28    1
    29     7    29    1
    30    11    30    1
    31    12    31    1
    32    13    32    1
    33    14    33    1
    34    15    34    1
