
     RDKit          3D

 59 63  0  0  0  0  0  0  0  0999 V2000
    0.7675    2.1978   -0.4179 C   0  0  0  0  0  0  0  0  0  0  0  0
    1.8488    1.1794   -0.2784 C   0  0  0  0  0  0  0  0  0  0  0  0
    3.1541    1.4618   -0.3075 N   0  0  0  0  0  0  0  0  0  0  0  0
    3.8662    0.3652   -0.1602 N   0  0  0  0  0  0  0  0  0  0  0  0
    5.3112    0.3439   -0.1489 C   0  0  0  0  0  0  0  0  0  0  0  0
    5.8480   -0.5836    0.9179 C   0  0  0  0  0  0  0  0  0  0  0  0
    7.0756    0.0838    1.5135 C   0  0  0  0  0  0  0  0  0  0  0  0
    6.7188    1.1958    2.2708 O   0  0  0  0  0  0  0  0  0  0  0  0
    5.9356    2.0851    1.5542 C   0  0  0  0  0  0  0  0  0  0  0  0
    5.8254    1.7222    0.0990 C   0  0  0  0  0  0  0  0  0  0  0  0
    2.9991   -0.6537   -0.0324 C   0  0  0  0  0  0  0  0  0  0  0  0
    1.7084   -0.1813   -0.1016 C   0  0  0  0  0  0  0  0  0  0  0  0
    0.4571   -0.9178   -0.0140 C   0  0  0  0  0  0  0  0  0  0  0  0
    0.5075   -2.2839    0.1534 C   0  0  0  0  0  0  0  0  0  0  0  0
   -0.6485   -3.0477    0.2437 C   0  0  0  0  0  0  0  0  0  0  0  0
   -0.8842   -4.3709    0.4049 N   0  0  0  0  0  0  0  0  0  0  0  0
   -2.1900   -4.5794    0.4268 N   0  0  0  0  0  0  0  0  0  0  0  0
   -2.8686   -5.8732    0.5828 C   0  0  0  0  0  0  0  0  0  0  0  0
   -2.8121   -3.3955    0.2799 C   0  0  0  0  0  0  0  0  0  0  0  0
   -1.8513   -2.3837    0.1589 C   0  0  0  0  0  0  0  0  0  0  0  0
   -1.8999   -1.0305   -0.0068 C   0  0  0  0  0  0  0  0  0  0  0  0
   -3.1398   -0.4296   -0.0836 O   0  0  0  0  0  0  0  0  0  0  0  0
   -3.3427    0.9600   -0.2546 C   0  0  2  0  0  0  0  0  0  0  0  0
   -3.9847    1.5861    0.9635 C   0  0  0  0  0  0  0  0  0  0  0  0
   -4.0585    1.2894   -1.5235 C   0  0  1  0  0  0  0  0  0  0  0  0
   -5.4139    0.6845   -1.6431 C   0  0  0  0  0  0  0  0  0  0  0  0
   -6.2695    1.5544   -0.9066 N   0  0  0  0  0  0  0  0  0  0  0  0
   -5.6449    2.8327   -0.8164 C   0  0  0  0  0  0  0  0  0  0  0  0
   -6.0479    3.8617   -0.2239 O   0  0  0  0  0  0  0  0  0  0  0  0
   -4.3656    2.7718   -1.5724 C   0  0  0  0  0  0  0  0  0  0  0  0
   -0.7454   -0.3291   -0.0895 N   0  0  0  0  0  0  0  0  0  0  0  0
    1.1729    3.0930   -0.9297 H   0  0  0  0  0  0  0  0  0  0  0  0
    0.0202    1.7443   -1.1308 H   0  0  0  0  0  0  0  0  0  0  0  0
    0.3108    2.4697    0.5438 H   0  0  0  0  0  0  0  0  0  0  0  0
    5.6576   -0.0120   -1.1553 H   0  0  0  0  0  0  0  0  0  0  0  0
    5.1021   -0.7586    1.7303 H   0  0  0  0  0  0  0  0  0  0  0  0
    6.1839   -1.5375    0.4595 H   0  0  0  0  0  0  0  0  0  0  0  0
    7.7390    0.4403    0.6985 H   0  0  0  0  0  0  0  0  0  0  0  0
    7.6424   -0.6063    2.1693 H   0  0  0  0  0  0  0  0  0  0  0  0
    4.9080    2.1389    1.9660 H   0  0  0  0  0  0  0  0  0  0  0  0
    6.3626    3.1249    1.5845 H   0  0  0  0  0  0  0  0  0  0  0  0
    5.1367    2.4823   -0.3644 H   0  0  0  0  0  0  0  0  0  0  0  0
    6.7925    1.8402   -0.4484 H   0  0  0  0  0  0  0  0  0  0  0  0
    3.2690   -1.6896    0.1045 H   0  0  0  0  0  0  0  0  0  0  0  0
    1.4720   -2.7944    0.2187 H   0  0  0  0  0  0  0  0  0  0  0  0
   -3.8839   -5.7368    1.0080 H   0  0  0  0  0  0  0  0  0  0  0  0
   -3.0272   -6.2553   -0.4564 H   0  0  0  0  0  0  0  0  0  0  0  0
   -2.2705   -6.5860    1.1582 H   0  0  0  0  0  0  0  0  0  0  0  0
   -3.8748   -3.1748    0.2499 H   0  0  0  0  0  0  0  0  0  0  0  0
   -2.3192    1.4117   -0.3191 H   0  0  0  0  0  0  0  0  0  0  0  0
   -5.0263    1.3129    1.1103 H   0  0  0  0  0  0  0  0  0  0  0  0
   -3.8680    2.6744    0.9589 H   0  0  0  0  0  0  0  0  0  0  0  0
   -3.4228    1.2190    1.8647 H   0  0  0  0  0  0  0  0  0  0  0  0
   -3.3800    1.0104   -2.3654 H   0  0  0  0  0  0  0  0  0  0  0  0
   -5.4643   -0.3754   -1.3376 H   0  0  0  0  0  0  0  0  0  0  0  0
   -5.7201    0.7124   -2.7090 H   0  0  0  0  0  0  0  0  0  0  0  0
   -7.2148    1.3033   -0.4903 H   0  0  0  0  0  0  0  0  0  0  0  0
   -3.5677    3.3875   -1.1197 H   0  0  0  0  0  0  0  0  0  0  0  0
   -4.5860    3.0455   -2.6269 H   0  0  0  0  0  0  0  0  0  0  0  0
  1  2  1  0
  2  3  2  0
  3  4  1  0
  4  5  1  0
  5  6  1  0
  6  7  1  0
  7  8  1  0
  8  9  1  0
  9 10  1  0
  4 11  1  0
 11 12  2  0
 12 13  1  0
 13 14  2  0
 14 15  1  0
 15 16  2  0
 16 17  1  0
 17 18  1  0
 17 19  1  0
 19 20  2  0
 20 21  1  0
 21 22  1  0
 22 23  1  0
 23 24  1  0
 23 25  1  0
 25 26  1  0
 26 27  1  0
 27 28  1  0
 28 29  2  0
 28 30  1  0
 21 31  2  0
 12  2  1  0
 31 13  1  0
 10  5  1  0
 20 15  1  0
 30 25  1  0
  1 32  1  0
  1 33  1  0
  1 34  1  0
  5 35  1  0
  6 36  1  0
  6 37  1  0
  7 38  1  0
  7 39  1  0
  9 40  1  0
  9 41  1  0
 10 42  1  0
 10 43  1  0
 11 44  1  0
 14 45  1  0
 18 46  1  0
 18 47  1  0
 18 48  1  0
 19 49  1  0
 23 50  1  6
 24 51  1  0
 24 52  1  0
 24 53  1  0
 25 54  1  6
 26 55  1  0
 26 56  1  0
 27 57  1  0
 30 58  1  0
 30 59  1  0
M  END
$$$$
