@<TRIPOS>MOLECULE
*****
 59 63 0 0 0
SMALL
GASTEIGER

@<TRIPOS>ATOM
      1 C           0.7675    2.1978   -0.4179 C.3     1  UNL1       -0.0200
      2 C           1.8488    1.1794   -0.2784 C.ar    1  UNL1        0.0691
      3 N           3.1541    1.4618   -0.3075 N.ar    1  UNL1       -0.1756
      4 N           3.8662    0.3652   -0.1602 N.ar    1  UNL1       -0.2674
      5 C           5.3112    0.3439   -0.1489 C.3     1  UNL1        0.0568
      6 C           5.8480   -0.5836    0.9179 C.3     1  UNL1       -0.0069
      7 C           7.0756    0.0838    1.5135 C.3     1  UNL1        0.0496
      8 O           6.7188    1.1958    2.2708 O.3     1  UNL1       -0.3796
      9 C           5.9356    2.0851    1.5542 C.3     1  UNL1        0.0496
     10 C           5.8254    1.7222    0.0990 C.3     1  UNL1       -0.0069
     11 C           2.9991   -0.6537   -0.0324 C.ar    1  UNL1        0.0352
     12 C           1.7084   -0.1813   -0.1016 C.ar    1  UNL1        0.0409
     13 C           0.4571   -0.9178   -0.0140 C.ar    1  UNL1        0.0801
     14 C           0.5075   -2.2839    0.1534 C.ar    1  UNL1       -0.0076
     15 C          -0.6485   -3.0477    0.2437 C.ar    1  UNL1        0.0999
     16 N          -0.8842   -4.3709    0.4049 N.ar    1  UNL1       -0.1712
     17 N          -2.1900   -4.5794    0.4268 N.ar    1  UNL1       -0.2732
     18 C          -2.8686   -5.8732    0.5828 C.3     1  UNL1        0.0302
     19 C          -2.8121   -3.3955    0.2799 C.ar    1  UNL1        0.0380
     20 C          -1.8513   -2.3837    0.1589 C.ar    1  UNL1        0.0812
     21 C          -1.8999   -1.0305   -0.0068 C.ar    1  UNL1        0.2265
     22 O          -3.1398   -0.4296   -0.0836 O.3     1  UNL1       -0.4725
     23 C          -3.3427    0.9600   -0.2546 C.3     1  UNL1        0.1037
     24 C          -3.9847    1.5861    0.9635 C.3     1  UNL1       -0.0274
     25 C          -4.0585    1.2894   -1.5235 C.3     1  UNL1        0.0196
     26 C          -5.4139    0.6845   -1.6431 C.3     1  UNL1        0.0182
     27 N          -6.2695    1.5544   -0.9066 N.am    1  UNL1       -0.3149
     28 C          -5.6449    2.8327   -0.8164 C.2     1  UNL1        0.2135
     29 O          -6.0479    3.8617   -0.2239 O.2     1  UNL1       -0.2758
     30 C          -4.3656    2.7718   -1.5724 C.3     1  UNL1        0.0315
     31 N          -0.7454   -0.3291   -0.0895 N.ar    1  UNL1       -0.2121
     32 H           1.1729    3.0930   -0.9297 H       1  UNL1        0.0293
     33 H           0.0202    1.7443   -1.1308 H       1  UNL1        0.0293
     34 H           0.3108    2.4697    0.5438 H       1  UNL1        0.0293
     35 H           5.6576   -0.0120   -1.1553 H       1  UNL1        0.0546
     36 H           5.1021   -0.7586    1.7303 H       1  UNL1        0.0308
     37 H           6.1839   -1.5375    0.4595 H       1  UNL1        0.0308
     38 H           7.7390    0.4403    0.6985 H       1  UNL1        0.0560
     39 H           7.6424   -0.6063    2.1693 H       1  UNL1        0.0560
     40 H           4.9080    2.1389    1.9660 H       1  UNL1        0.0560
     41 H           6.3626    3.1249    1.5845 H       1  UNL1        0.0560
     42 H           5.1367    2.4823   -0.3644 H       1  UNL1        0.0308
     43 H           6.7925    1.8402   -0.4484 H       1  UNL1        0.0308
     44 H           3.2690   -1.6896    0.1045 H       1  UNL1        0.0833
     45 H           1.4720   -2.7944    0.2187 H       1  UNL1        0.0661
     46 H          -3.8839   -5.7368    1.0080 H       1  UNL1        0.0473
     47 H          -3.0272   -6.2553   -0.4564 H       1  UNL1        0.0473
     48 H          -2.2705   -6.5860    1.1582 H       1  UNL1        0.0473
     49 H          -3.8748   -3.1748    0.2499 H       1  UNL1        0.0834
     50 H          -2.3192    1.4117   -0.3191 H       1  UNL1        0.0734
     51 H          -5.0263    1.3129    1.1103 H       1  UNL1        0.0265
     52 H          -3.8680    2.6744    0.9589 H       1  UNL1        0.0265
     53 H          -3.4228    1.2190    1.8647 H       1  UNL1        0.0265
     54 H          -3.3800    1.0104   -2.3654 H       1  UNL1        0.0356
     55 H          -5.4643   -0.3754   -1.3376 H       1  UNL1        0.0466
     56 H          -5.7201    0.7124   -2.7090 H       1  UNL1        0.0466
     57 H          -7.2148    1.3033   -0.4903 H       1  UNL1        0.1487
     58 H          -3.5677    3.3875   -1.1197 H       1  UNL1        0.0363
     59 H          -4.5860    3.0455   -2.6269 H       1  UNL1        0.0363
@<TRIPOS>BOND
     1     1     2    1
     2     2     3   ar
     3     3     4   ar
     4     4     5    1
     5     5     6    1
     6     6     7    1
     7     7     8    1
     8     8     9    1
     9     9    10    1
    10     4    11   ar
    11    11    12   ar
    12    12    13    1
    13    13    14   ar
    14    14    15   ar
    15    15    16   ar
    16    16    17   ar
    17    17    18    1
    18    17    19   ar
    19    19    20   ar
    20    20    21   ar
    21    21    22    1
    22    22    23    1
    23    23    24    1
    24    23    25    1
    25    25    26    1
    26    26    27    1
    27    27    28   am
    28    28    29    2
    29    28    30    1
    30    21    31   ar
    31    12     2   ar
    32    31    13   ar
    33    10     5    1
    34    20    15   ar
    35    30    25    1
    36     1    32    1
    37     1    33    1
    38     1    34    1
    39     5    35    1
    40     6    36    1
    41     6    37    1
    42     7    38    1
    43     7    39    1
    44     9    40    1
    45     9    41    1
    46    10    42    1
    47    10    43    1
    48    11    44    1
    49    14    45    1
    50    18    46    1
    51    18    47    1
    52    18    48    1
    53    19    49    1
    54    23    50    1
    55    24    51    1
    56    24    52    1
    57    24    53    1
    58    25    54    1
    59    26    55    1
    60    26    56    1
    61    27    57    1
    62    30    58    1
    63    30    59    1
