
     RDKit          3D

 55 54  0  0  0  0  0  0  0  0999 V2000
    5.3006   -2.8564   -0.0956 C   0  0  1  0  0  0  0  0  0  0  0  0
    5.0606   -4.0986   -0.7611 N   0  0  0  0  0  0  0  0  0  0  0  0
    4.3335   -1.7584   -0.4286 C   0  0  0  0  0  0  0  0  0  0  0  0
    2.9032   -2.1094   -0.0795 C   0  0  0  0  0  0  0  0  0  0  0  0
    2.0521   -0.9272   -0.4651 C   0  0  0  0  0  0  0  0  0  0  0  0
    2.1451   -0.6375   -1.8203 O   0  0  0  0  0  0  0  0  0  0  0  0
    1.3092   -0.2323    0.3224 N   0  0  0  0  0  0  0  0  0  0  0  0
    0.4997    0.8892   -0.0342 C   0  0  1  0  0  0  0  0  0  0  0  0
   -0.6832    0.9061    0.9245 C   0  0  0  0  0  0  0  0  0  0  0  0
   -1.5800   -0.6435    0.7243 S   0  0  0  0  0  0  0  0  0  0  0  0
   -2.3040   -0.6766   -0.9456 C   0  0  0  0  0  0  0  0  0  0  0  0
   -3.3492    0.4067   -1.0218 C   0  0  0  0  0  0  0  0  0  0  0  0
   -4.4298    0.2195   -0.0161 C   0  0  0  0  0  0  0  0  0  0  0  0
   -5.1211   -1.0953   -0.2411 C   0  0  0  0  0  0  0  0  0  0  0  0
   -6.2177   -1.1982    0.8204 C   0  0  0  0  0  0  0  0  0  0  0  0
   -7.1380   -0.0211    0.5941 C   0  0  0  0  0  0  0  0  0  0  0  0
    1.2500    2.1795    0.0425 C   0  0  0  0  0  0  0  0  0  0  0  0
    2.3778    2.3533   -0.7455 O   0  0  0  0  0  0  0  0  0  0  0  0
    0.8506    3.1089    0.8288 N   0  0  0  0  0  0  0  0  0  0  0  0
    1.4851    4.3881    0.9898 C   0  0  0  0  0  0  0  0  0  0  0  0
    1.7786    5.0460   -0.3029 C   0  0  0  0  0  0  0  0  0  0  0  0
    1.5899    4.7297   -1.6532 O   0  0  0  0  0  0  0  0  0  0  0  0
    2.3359    6.1641   -0.0714 O   0  0  0  0  0  0  0  0  0  0  0  0
    5.3696   -3.0848    1.3692 C   0  0  0  0  0  0  0  0  0  0  0  0
    5.5897   -2.0961    2.3035 O   0  0  0  0  0  0  0  0  0  0  0  0
    5.2260   -4.2334    1.8574 O   0  0  0  0  0  0  0  0  0  0  0  0
    6.3028   -2.4903   -0.4253 H   0  0  0  0  0  0  0  0  0  0  0  0
    4.4325   -4.7578   -0.2949 H   0  0  0  0  0  0  0  0  0  0  0  0
    5.8645   -4.4976   -1.2762 H   0  0  0  0  0  0  0  0  0  0  0  0
    4.4226   -1.4467   -1.4699 H   0  0  0  0  0  0  0  0  0  0  0  0
    4.6182   -0.8881    0.2047 H   0  0  0  0  0  0  0  0  0  0  0  0
    2.6054   -2.9564   -0.7307 H   0  0  0  0  0  0  0  0  0  0  0  0
    2.7752   -2.3661    0.9711 H   0  0  0  0  0  0  0  0  0  0  0  0
    1.4871   -0.0438   -2.2949 H   0  0  0  0  0  0  0  0  0  0  0  0
    0.1075    0.7783   -1.0548 H   0  0  0  0  0  0  0  0  0  0  0  0
   -0.2473    0.9843    1.9442 H   0  0  0  0  0  0  0  0  0  0  0  0
   -1.3982    1.7250    0.7086 H   0  0  0  0  0  0  0  0  0  0  0  0
   -1.5257   -0.3908   -1.7062 H   0  0  0  0  0  0  0  0  0  0  0  0
   -2.7076   -1.6606   -1.1690 H   0  0  0  0  0  0  0  0  0  0  0  0
   -3.7548    0.4193   -2.0646 H   0  0  0  0  0  0  0  0  0  0  0  0
   -2.8071    1.3842   -0.8618 H   0  0  0  0  0  0  0  0  0  0  0  0
   -5.1366    1.0804   -0.0927 H   0  0  0  0  0  0  0  0  0  0  0  0
   -4.0749    0.2187    1.0258 H   0  0  0  0  0  0  0  0  0  0  0  0
   -5.5444   -1.1335   -1.2454 H   0  0  0  0  0  0  0  0  0  0  0  0
   -4.3658   -1.9047   -0.0732 H   0  0  0  0  0  0  0  0  0  0  0  0
   -5.7889   -1.1463    1.8237 H   0  0  0  0  0  0  0  0  0  0  0  0
   -6.7831   -2.1267    0.6931 H   0  0  0  0  0  0  0  0  0  0  0  0
   -8.1483   -0.3093    0.9811 H   0  0  0  0  0  0  0  0  0  0  0  0
   -7.2104    0.1582   -0.4801 H   0  0  0  0  0  0  0  0  0  0  0  0
   -6.7606    0.8726    1.1213 H   0  0  0  0  0  0  0  0  0  0  0  0
    3.1711    2.8897   -0.3628 H   0  0  0  0  0  0  0  0  0  0  0  0
    0.7862    5.0786    1.5376 H   0  0  0  0  0  0  0  0  0  0  0  0
    2.4001    4.3425    1.6213 H   0  0  0  0  0  0  0  0  0  0  0  0
    1.5295    5.4824   -2.3047 H   0  0  0  0  0  0  0  0  0  0  0  0
    5.1168   -2.0178    3.1798 H   0  0  0  0  0  0  0  0  0  0  0  0
  1  2  1  0
  1  3  1  0
  3  4  1  0
  4  5  1  0
  5  6  1  0
  5  7  2  3
  7  8  1  0
  8  9  1  0
  9 10  1  0
 10 11  1  0
 11 12  1  0
 12 13  1  0
 13 14  1  0
 14 15  1  0
 15 16  1  0
  8 17  1  0
 17 18  1  0
 17 19  2  3
 19 20  1  0
 20 21  1  0
 21 22  1  0
 21 23  2  0
  1 24  1  0
 24 25  1  0
 24 26  2  0
  1 27  1  6
  2 28  1  0
  2 29  1  0
  3 30  1  0
  3 31  1  0
  4 32  1  0
  4 33  1  0
  6 34  1  0
  8 35  1  6
  9 36  1  0
  9 37  1  0
 11 38  1  0
 11 39  1  0
 12 40  1  0
 12 41  1  0
 13 42  1  0
 13 43  1  0
 14 44  1  0
 14 45  1  0
 15 46  1  0
 15 47  1  0
 16 48  1  0
 16 49  1  0
 16 50  1  0
 18 51  1  0
 20 52  1  0
 20 53  1  0
 22 54  1  0
 25 55  1  0
M  END
$$$$
