@<TRIPOS>MOLECULE
*****
 36 38 0 0 0
SMALL
GASTEIGER

@<TRIPOS>ATOM
      1 C           7.3822   -0.7760   -0.6651 C.3     1  UNL1        0.0125
      2 C           6.0126   -0.3097   -0.3912 C.2     1  UNL1        0.2152
      3 O           5.8282    0.8331    0.1014 O.2     1  UNL1       -0.2757
      4 N           4.8520   -1.0907   -0.6554 N.am    1  UNL1       -0.2694
      5 C           3.5551   -0.5592   -0.3582 C.ar    1  UNL1        0.1439
      6 C           2.3318   -1.1592   -0.5433 C.ar    1  UNL1        0.0513
      7 N           1.3635   -0.3209   -0.1340 N.ar    1  UNL1       -0.3041
      8 C           0.0117   -0.3896   -0.0864 C.ar    1  UNL1        0.0190
      9 C          -0.7906    0.6239    0.3882 C.ar    1  UNL1        0.0002
     10 C          -2.2365    0.5629    0.4453 C.ar    1  UNL1        0.0023
     11 C          -2.9352    1.2197    1.4211 C.ar    1  UNL1        0.0374
     12 N          -4.2947    1.1759    1.4926 N.ar    1  UNL1       -0.2396
     13 C          -4.9559    0.4628    0.5714 C.ar    1  UNL1        0.1279
     14 N          -6.3623    0.4182    0.6470 N.pl3   1  UNL1       -0.3427
     15 C          -4.3126   -0.2190   -0.4335 C.ar    1  UNL1        0.0948
     16 C          -5.0814   -0.9976   -1.4345 C.3     1  UNL1        0.4206
     17 F          -5.9229   -0.1012   -2.0810 F       1  UNL1       -0.1658
     18 F          -5.8357   -1.9650   -0.8387 F       1  UNL1       -0.1658
     19 F          -4.1964   -1.5574   -2.3456 F       1  UNL1       -0.1658
     20 C          -2.9258   -0.1638   -0.4920 C.ar    1  UNL1       -0.0376
     21 C          -0.1505    1.7782    0.8407 C.ar    1  UNL1       -0.0491
     22 C           1.2176    1.8843    0.8080 C.ar    1  UNL1       -0.0182
     23 C           1.9464    0.8209    0.3164 C.ar    1  UNL1        0.1397
     24 N           3.2785    0.6460    0.1674 N.ar    1  UNL1       -0.2129
     25 H           7.7585   -0.4310   -1.6655 H       1  UNL1        0.0323
     26 H           8.1046   -0.3617    0.0736 H       1  UNL1        0.0323
     27 H           7.4909   -1.8712   -0.6588 H       1  UNL1        0.0323
     28 H           4.9477   -2.0430   -1.0627 H       1  UNL1        0.1563
     29 H           2.1343   -2.1390   -0.9470 H       1  UNL1        0.0848
     30 H          -0.4592   -1.2981   -0.4445 H       1  UNL1        0.0819
     31 H          -2.4441    1.8137    2.1950 H       1  UNL1        0.0836
     32 H          -6.8895   -0.4497    0.9439 H       1  UNL1        0.1437
     33 H          -6.8965    1.2849    0.3971 H       1  UNL1        0.1437
     34 H          -2.4113   -0.6987   -1.2817 H       1  UNL1        0.0631
     35 H          -0.7786    2.5801    1.2154 H       1  UNL1        0.0625
     36 H           1.6642    2.7974    1.1694 H       1  UNL1        0.0654
@<TRIPOS>BOND
     1     1     2    1
     2     2     3    2
     3     2     4   am
     4     4     5    1
     5     5     6   ar
     6     6     7   ar
     7     7     8   ar
     8     8     9   ar
     9     9    10    1
    10    10    11   ar
    11    11    12   ar
    12    12    13   ar
    13    13    14    1
    14    13    15   ar
    15    15    16    1
    16    16    17    1
    17    16    18    1
    18    16    19    1
    19    15    20   ar
    20     9    21   ar
    21    21    22   ar
    22    22    23   ar
    23    23    24   ar
    24    24     5   ar
    25    23     7   ar
    26    20    10   ar
    27     1    25    1
    28     1    26    1
    29     1    27    1
    30     4    28    1
    31     6    29    1
    32     8    30    1
    33    11    31    1
    34    14    32    1
    35    14    33    1
    36    20    34    1
    37    21    35    1
    38    22    36    1
