@<TRIPOS>MOLECULE
*****
 26 26 0 0 0
SMALL
GASTEIGER

@<TRIPOS>ATOM
      1 C          -4.1851    0.7508    1.0223 C.3     1  UNL1       -0.0188
      2 C          -2.7141    0.7066    0.6931 C.ar    1  UNL1        0.0801
      3 N          -1.8670    1.6815    1.0307 N.ar    1  UNL1       -0.2562
      4 C          -0.5564    1.6086    0.7169 C.ar    1  UNL1        0.0341
      5 C          -0.0072    0.5445    0.0368 C.ar    1  UNL1        0.0105
      6 C           1.4101    0.4036   -0.3277 C.3     1  UNL1        0.0863
      7 O           2.1356   -0.4532    0.4606 O.3     1  UNL1       -0.2820
      8 P           3.7275   -0.4430   -0.1496 P.3     1  UNL1        0.4727
      9 O           4.6427    0.7198    0.6778 O.3     1  UNL1       -0.3026
     10 O           4.4159   -1.9390    0.0957 O.3     1  UNL1       -0.3026
     11 O           3.7048   -0.0152   -1.6055 O.2     1  UNL1       -0.2275
     12 C          -0.9028   -0.4463   -0.3005 C.ar    1  UNL1        0.0641
     13 C          -0.3873   -1.6092   -1.0255 C.2     1  UNL1        0.1541
     14 O          -0.4368   -1.4410   -2.2771 O.2     1  UNL1       -0.2956
     15 C          -2.2475   -0.4025    0.0079 C.ar    1  UNL1        0.1483
     16 O          -3.1128   -1.4216   -0.3480 O.3     1  UNL1       -0.5043
     17 H          -4.3223    1.6036    1.6901 H       1  UNL1        0.0294
     18 H          -4.4986   -0.2066    1.4759 H       1  UNL1        0.0294
     19 H          -4.7690    1.0019    0.0999 H       1  UNL1        0.0294
     20 H           0.1083    2.4147    1.0093 H       1  UNL1        0.0833
     21 H           1.8781    1.4226   -0.2068 H       1  UNL1        0.0616
     22 H           1.5446    0.1512   -1.3943 H       1  UNL1        0.0616
     23 H           4.1900    1.5784    0.5195 H       1  UNL1        0.2220
     24 H           5.3490   -1.8818    0.4788 H       1  UNL1        0.2220
     25 H           0.0160   -2.5566   -0.6702 H       1  UNL1        0.1083
     26 H          -3.1159   -1.7717   -1.3033 H       1  UNL1        0.2922
@<TRIPOS>BOND
     1     1     2    1
     2     2     3   ar
     3     3     4   ar
     4     4     5   ar
     5     5     6    1
     6     6     7    1
     7     7     8    1
     8     8     9    1
     9     8    10    1
    10     8    11    2
    11     5    12   ar
    12    12    13    1
    13    13    14    2
    14    12    15   ar
    15    15    16    1
    16    15     2   ar
    17     1    17    1
    18     1    18    1
    19     1    19    1
    20     4    20    1
    21     6    21    1
    22     6    22    1
    23     9    23    1
    24    10    24    1
    25    13    25    1
    26    16    26    1
