
     RDKit          3D

 20 21  0  0  0  0  0  0  0  0999 V2000
    3.1152   -0.5294    0.4733 N   0  0  0  0  0  0  0  0  0  0  0  0
    2.2667   -0.5531   -0.6327 N   0  0  0  0  0  0  0  0  0  0  0  0
    1.2242    0.4045   -0.4624 C   0  0  0  0  0  0  0  0  0  0  0  0
    1.5731    1.7193   -0.5611 N   0  0  0  0  0  0  0  0  0  0  0  0
    0.6334    2.6534   -0.3951 N   0  0  0  0  0  0  0  0  0  0  0  0
   -0.6269    2.2479   -0.1350 C   0  0  0  0  0  0  0  0  0  0  0  0
   -0.9952    0.9301   -0.0337 C   0  0  0  0  0  0  0  0  0  0  0  0
   -2.2973    0.5146    0.2327 C   0  0  0  0  0  0  0  0  0  0  0  0
   -2.6101   -0.8373    0.3207 C   0  0  0  0  0  0  0  0  0  0  0  0
   -1.5962   -1.7908    0.1372 C   0  0  0  0  0  0  0  0  0  0  0  0
   -0.2944   -1.4252   -0.1265 C   0  0  0  0  0  0  0  0  0  0  0  0
   -0.0419   -0.0686   -0.2020 C   0  0  0  0  0  0  0  0  0  0  0  0
    3.7762    0.3037    0.4296 H   0  0  0  0  0  0  0  0  0  0  0  0
    2.5720   -0.4241    1.3603 H   0  0  0  0  0  0  0  0  0  0  0  0
    2.6894   -1.2977   -1.2449 H   0  0  0  0  0  0  0  0  0  0  0  0
   -1.3948    2.9927    0.0098 H   0  0  0  0  0  0  0  0  0  0  0  0
   -3.0329    1.2955    0.3598 H   0  0  0  0  0  0  0  0  0  0  0  0
   -3.6454   -1.1510    0.5326 H   0  0  0  0  0  0  0  0  0  0  0  0
   -1.8301   -2.8382    0.2074 H   0  0  0  0  0  0  0  0  0  0  0  0
    0.5150   -2.1464   -0.2700 H   0  0  0  0  0  0  0  0  0  0  0  0
  1  2  1  0
  2  3  1  0
  3  4  2  0
  4  5  1  0
  5  6  2  0
  6  7  1  0
  7  8  2  0
  8  9  1  0
  9 10  2  0
 10 11  1  0
 11 12  2  0
 12  3  1  0
 12  7  1  0
  1 13  1  0
  1 14  1  0
  2 15  1  0
  6 16  1  0
  8 17  1  0
  9 18  1  0
 10 19  1  0
 11 20  1  0
M  END
$$$$
