@<TRIPOS>MOLECULE
*****
 20 21 0 0 0
SMALL
GASTEIGER

@<TRIPOS>ATOM
      1 N           3.1152   -0.5294    0.4733 N.3     1  UNL1       -0.2553
      2 N           2.2667   -0.5531   -0.6327 N.pl3   1  UNL1       -0.2656
      3 C           1.2242    0.4045   -0.4624 C.ar    1  UNL1        0.1623
      4 N           1.5731    1.7193   -0.5611 N.ar    1  UNL1       -0.1325
      5 N           0.6334    2.6534   -0.3951 N.ar    1  UNL1       -0.1553
      6 C          -0.6269    2.2479   -0.1350 C.ar    1  UNL1        0.0578
      7 C          -0.9952    0.9301   -0.0337 C.ar    1  UNL1        0.0053
      8 C          -2.2973    0.5146    0.2327 C.ar    1  UNL1       -0.0524
      9 C          -2.6101   -0.8373    0.3207 C.ar    1  UNL1       -0.0611
     10 C          -1.5962   -1.7908    0.1372 C.ar    1  UNL1       -0.0611
     11 C          -0.2944   -1.4252   -0.1265 C.ar    1  UNL1       -0.0506
     12 C          -0.0419   -0.0686   -0.2020 C.ar    1  UNL1        0.0263
     13 H           3.7762    0.3037    0.4296 H       1  UNL1        0.1404
     14 H           2.5720   -0.4241    1.3603 H       1  UNL1        0.1404
     15 H           2.6894   -1.2977   -1.2449 H       1  UNL1        0.1675
     16 H          -1.3948    2.9927    0.0098 H       1  UNL1        0.0854
     17 H          -3.0329    1.2955    0.3598 H       1  UNL1        0.0624
     18 H          -3.6454   -1.1510    0.5326 H       1  UNL1        0.0618
     19 H          -1.8301   -2.8382    0.2074 H       1  UNL1        0.0618
     20 H           0.5150   -2.1464   -0.2700 H       1  UNL1        0.0625
@<TRIPOS>BOND
     1     1     2    1
     2     2     3    1
     3     3     4   ar
     4     4     5   ar
     5     5     6   ar
     6     6     7   ar
     7     7     8   ar
     8     8     9   ar
     9     9    10   ar
    10    10    11   ar
    11    11    12   ar
    12    12     3   ar
    13    12     7   ar
    14     1    13    1
    15     1    14    1
    16     2    15    1
    17     6    16    1
    18     8    17    1
    19     9    18    1
    20    10    19    1
    21    11    20    1
