@<TRIPOS>MOLECULE
*****
 61 63 0 0 0
SMALL
GASTEIGER

@<TRIPOS>ATOM
      1 C           7.2697   -0.1362    1.4830 C.3     1  UNL1       -0.0638
      2 C           5.9883   -0.7916    1.9533 C.3     1  UNL1       -0.0350
      3 C           4.8119   -0.1931    1.2465 C.3     1  UNL1        0.0817
      4 S           3.3190   -0.9958    1.8320 S.O2    1  UNL1        0.0318
      5 O           3.4734   -2.4555    1.5610 O.2     1  UNL1       -0.1580
      6 O           3.2584   -0.7898    3.2987 O.2     1  UNL1       -0.1580
      7 N           2.0080   -0.2823    1.0003 N.3     1  UNL1       -0.1811
      8 C           2.0616   -0.4605   -0.4259 C.3     1  UNL1        0.0211
      9 C           0.6881   -0.4967   -1.0293 C.3     1  UNL1       -0.0231
     10 C          -0.2915    0.4836   -0.4200 C.3     1  UNL1        0.0650
     11 C          -1.6387    0.1569   -1.0232 C.3     1  UNL1        0.0259
     12 N          -2.0875   -1.1895   -0.7490 N.am    1  UNL1       -0.3102
     13 C          -3.3225   -1.6513   -1.2463 C.2     1  UNL1        0.2483
     14 O          -3.9700   -0.7772   -1.9376 O.2     1  UNL1       -0.2701
     15 C          -3.8961   -2.9737   -1.0498 C.ar    1  UNL1        0.0900
     16 C          -3.3345   -3.9957   -0.3535 C.ar    1  UNL1        0.1369
     17 F          -2.1051   -3.8077    0.2394 F       1  UNL1       -0.2047
     18 C          -3.9487   -5.2199   -0.2159 C.ar    1  UNL1       -0.0256
     19 C          -5.1720   -5.4344   -0.7957 C.ar    1  UNL1       -0.0576
     20 C          -5.7765   -4.4132   -1.5150 C.ar    1  UNL1       -0.0425
     21 C          -5.1465   -3.2009   -1.6394 C.ar    1  UNL1        0.0558
     22 CL         -5.9735   -1.9653   -2.5610 Cl      1  UNL1       -0.0827
     23 C           0.0756    1.8497   -0.8601 C.2     1  UNL1        0.2235
     24 O           1.1220    1.9529   -1.5894 O.2     1  UNL1       -0.2749
     25 N          -0.5919    3.0483   -0.5708 N.am    1  UNL1       -0.2966
     26 C          -0.0727    4.3100   -1.0816 C.3     1  UNL1        0.0382
     27 C          -1.2605    5.1966   -1.3888 C.3     1  UNL1        0.0635
     28 O          -1.9444    5.5412   -0.2282 O.3     1  UNL1       -0.3767
     29 C          -1.7712    4.6117    0.7924 C.3     1  UNL1        0.0635
     30 C          -1.7967    3.1872    0.2016 C.3     1  UNL1        0.0382
     31 C          -0.2705    0.3354    1.0725 C.3     1  UNL1       -0.0231
     32 C           0.7127   -0.7420    1.4752 C.3     1  UNL1        0.0211
     33 H           8.1063   -0.6951    1.9809 H       1  UNL1        0.0230
     34 H           7.3777   -0.3211    0.3943 H       1  UNL1        0.0230
     35 H           7.3257    0.9200    1.7473 H       1  UNL1        0.0230
     36 H           6.0147   -1.8711    1.7366 H       1  UNL1        0.0279
     37 H           5.8406   -0.6448    3.0390 H       1  UNL1        0.0279
     38 H           4.6933    0.8829    1.3761 H       1  UNL1        0.0515
     39 H           4.8365   -0.3954    0.1432 H       1  UNL1        0.0515
     40 H           2.5677   -1.4014   -0.7265 H       1  UNL1        0.0444
     41 H           2.6332    0.3664   -0.8805 H       1  UNL1        0.0444
     42 H           0.8340   -0.2003   -2.1127 H       1  UNL1        0.0289
     43 H           0.2789   -1.5326   -1.0700 H       1  UNL1        0.0289
     44 H          -1.6163    0.3712   -2.1078 H       1  UNL1        0.0472
     45 H          -2.3864    0.8256   -0.5758 H       1  UNL1        0.0472
     46 H          -1.5055   -1.8140   -0.1853 H       1  UNL1        0.1490
     47 H          -3.4358   -6.0003    0.3615 H       1  UNL1        0.0646
     48 H          -5.6365   -6.4027   -0.6753 H       1  UNL1        0.0619
     49 H          -6.7421   -4.6320   -1.9536 H       1  UNL1        0.0632
     50 H           0.4631    4.7909   -0.2243 H       1  UNL1        0.0487
     51 H           0.5765    4.1976   -1.9433 H       1  UNL1        0.0487
     52 H          -1.9449    4.6344   -2.0477 H       1  UNL1        0.0575
     53 H          -0.9385    6.1604   -1.8538 H       1  UNL1        0.0575
     54 H          -2.6163    4.7540    1.4994 H       1  UNL1        0.0575
     55 H          -0.8370    4.7532    1.3606 H       1  UNL1        0.0575
     56 H          -2.7157    3.1739   -0.4197 H       1  UNL1        0.0487
     57 H          -1.7940    2.4741    1.0267 H       1  UNL1        0.0487
     58 H           0.1675    1.2796    1.4856 H       1  UNL1        0.0289
     59 H          -1.2529    0.2084    1.5369 H       1  UNL1        0.0289
     60 H           0.7775   -0.8557    2.5707 H       1  UNL1        0.0444
     61 H           0.5107   -1.7278    1.0421 H       1  UNL1        0.0444
@<TRIPOS>BOND
     1     1     2    1
     2     2     3    1
     3     3     4    1
     4     4     5    2
     5     4     6    2
     6     4     7    1
     7     7     8    1
     8     8     9    1
     9     9    10    1
    10    10    11    1
    11    11    12    1
    12    12    13   am
    13    13    14    2
    14    13    15    1
    15    15    16   ar
    16    16    17    1
    17    16    18   ar
    18    18    19   ar
    19    19    20   ar
    20    20    21   ar
    21    21    22    1
    22    10    23    1
    23    23    24    2
    24    23    25   am
    25    25    26    1
    26    26    27    1
    27    27    28    1
    28    28    29    1
    29    29    30    1
    30    10    31    1
    31    31    32    1
    32    32     7    1
    33    21    15   ar
    34    30    25    1
    35     1    33    1
    36     1    34    1
    37     1    35    1
    38     2    36    1
    39     2    37    1
    40     3    38    1
    41     3    39    1
    42     8    40    1
    43     8    41    1
    44     9    42    1
    45     9    43    1
    46    11    44    1
    47    11    45    1
    48    12    46    1
    49    18    47    1
    50    19    48    1
    51    20    49    1
    52    26    50    1
    53    26    51    1
    54    27    52    1
    55    27    53    1
    56    29    54    1
    57    29    55    1
    58    30    56    1
    59    30    57    1
    60    31    58    1
    61    31    59    1
    62    32    60    1
    63    32    61    1
