@<TRIPOS>MOLECULE
*****
 40 43 0 0 0
SMALL
GASTEIGER

@<TRIPOS>ATOM
      1 CL          1.9967    3.0949    3.1887 Cl      1  UNL1       -0.0410
      2 C           0.7734    2.3881    2.1424 C.ar    1  UNL1        0.2250
      3 N           0.9172    1.1379    1.7178 N.ar    1  UNL1       -0.2020
      4 C          -0.0028    0.5292    0.8990 C.ar    1  UNL1        0.1321
      5 N           0.3260   -0.7235    0.3588 N.pl3   1  UNL1       -0.3229
      6 C           1.5133   -1.4152    0.9148 C.3     1  UNL1        0.0528
      7 C           2.7364   -0.7083    0.5021 C.ar    1  UNL1        0.0583
      8 C           3.3489   -1.0103   -0.7191 C.ar    1  UNL1       -0.0388
      9 C           4.5030   -0.3843   -1.1332 C.ar    1  UNL1       -0.0586
     10 C           5.0870    0.5754   -0.3275 C.ar    1  UNL1       -0.0436
     11 C           4.4649    0.8562    0.8717 C.ar    1  UNL1        0.0279
     12 N           3.3380    0.2244    1.2436 N.ar    1  UNL1       -0.2583
     13 C          -1.0981    1.2619    0.5325 C.ar    1  UNL1        0.0479
     14 C          -2.0770    0.7132   -0.2614 C.ar    1  UNL1       -0.0054
     15 C          -2.1789   -0.6806   -0.6695 C.ar    1  UNL1       -0.0171
     16 C          -2.1771   -1.0478   -1.9933 C.ar    1  UNL1       -0.0540
     17 C          -2.3961   -2.3514   -2.3779 C.ar    1  UNL1       -0.0612
     18 C          -2.6156   -3.2613   -1.3695 C.ar    1  UNL1       -0.0617
     19 C          -2.6216   -2.9148   -0.0385 C.ar    1  UNL1       -0.0612
     20 C          -2.4028   -1.6225    0.3101 C.ar    1  UNL1       -0.0540
     21 C          -3.1672    1.5472   -0.5794 C.ar    1  UNL1       -0.0532
     22 C          -3.2504    2.8172   -0.1235 C.ar    1  UNL1       -0.0591
     23 C          -2.2770    3.3644    0.6774 C.ar    1  UNL1       -0.0355
     24 C          -1.2089    2.5706    0.9972 C.ar    1  UNL1        0.0781
     25 N          -0.2837    3.1183    1.7891 N.ar    1  UNL1       -0.2173
     26 H          -0.0756   -1.2086   -0.4155 H       1  UNL1        0.1479
     27 H           1.4926   -2.4430    0.5578 H       1  UNL1        0.0526
     28 H           1.4114   -1.3466    2.0289 H       1  UNL1        0.0526
     29 H           2.8870   -1.7558   -1.3349 H       1  UNL1        0.0636
     30 H           4.9356   -0.6552   -2.0865 H       1  UNL1        0.0619
     31 H           5.9857    1.0907   -0.6060 H       1  UNL1        0.0633
     32 H           4.9099    1.6159    1.5307 H       1  UNL1        0.0829
     33 H          -2.0009   -0.3136   -2.7884 H       1  UNL1        0.0624
     34 H          -2.4041   -2.6879   -3.4056 H       1  UNL1        0.0618
     35 H          -2.7957   -4.3137   -1.6175 H       1  UNL1        0.0618
     36 H          -2.8000   -3.6636    0.7474 H       1  UNL1        0.0618
     37 H          -2.4101   -1.3584    1.3790 H       1  UNL1        0.0624
     38 H          -3.9358    1.1118   -1.2114 H       1  UNL1        0.0624
     39 H          -4.0950    3.4471   -0.3786 H       1  UNL1        0.0618
     40 H          -2.3528    4.4017    1.0480 H       1  UNL1        0.0639
@<TRIPOS>BOND
     1     1     2    1
     2     2     3   ar
     3     3     4   ar
     4     4     5    1
     5     5     6    1
     6     6     7    1
     7     7     8   ar
     8     8     9   ar
     9     9    10   ar
    10    10    11   ar
    11    11    12   ar
    12     4    13   ar
    13    13    14   ar
    14    14    15    1
    15    15    16   ar
    16    16    17   ar
    17    17    18   ar
    18    18    19   ar
    19    19    20   ar
    20    14    21   ar
    21    21    22   ar
    22    22    23   ar
    23    23    24   ar
    24    24    25   ar
    25    25     2   ar
    26    12     7   ar
    27    24    13   ar
    28    20    15   ar
    29     5    26    1
    30     6    27    1
    31     6    28    1
    32     8    29    1
    33     9    30    1
    34    10    31    1
    35    11    32    1
    36    16    33    1
    37    17    34    1
    38    18    35    1
    39    19    36    1
    40    20    37    1
    41    21    38    1
    42    22    39    1
    43    23    40    1
