@<TRIPOS>MOLECULE
*****
 16 15 0 0 0
SMALL
GASTEIGER

@<TRIPOS>ATOM
      1 O           2.9856   -0.1405   -0.1926 O.3     1  UNL1       -0.3950
      2 C           1.8246    0.6150    0.0618 C.3     1  UNL1        0.0443
      3 C           0.6433   -0.3198   -0.0795 C.3     1  UNL1       -0.0276
      4 C          -0.6804    0.3678    0.1697 C.3     1  UNL1       -0.0276
      5 C          -1.8260   -0.6330    0.0105 C.3     1  UNL1        0.0443
      6 O          -3.0472   -0.0453    0.2294 O.3     1  UNL1       -0.3950
      7 H           2.8443   -0.8245   -0.8831 H       1  UNL1        0.2094
      8 H           1.9249    0.9729    1.1122 H       1  UNL1        0.0557
      9 H           1.8112    1.4811   -0.5910 H       1  UNL1        0.0557
     10 H           0.7769   -1.0982    0.7030 H       1  UNL1        0.0288
     11 H           0.6825   -0.7955   -1.0772 H       1  UNL1        0.0288
     12 H          -0.7410    0.8310    1.1548 H       1  UNL1        0.0288
     13 H          -0.8297    1.1549   -0.6002 H       1  UNL1        0.0288
     14 H          -1.6639   -1.4635    0.7552 H       1  UNL1        0.0557
     15 H          -1.7865   -1.0206   -1.0317 H       1  UNL1        0.0557
     16 H          -2.9186    0.9182    0.4129 H       1  UNL1        0.2094
@<TRIPOS>BOND
     1     1     2    1
     2     2     3    1
     3     3     4    1
     4     4     5    1
     5     5     6    1
     6     1     7    1
     7     2     8    1
     8     2     9    1
     9     3    10    1
    10     3    11    1
    11     4    12    1
    12     4    13    1
    13     5    14    1
    14     5    15    1
    15     6    16    1
