@<TRIPOS>MOLECULE
*****
 41 45 0 0 0
SMALL
GASTEIGER

@<TRIPOS>ATOM
      1 O          -1.3226   -2.7911   -2.4750 O.2     1  UNL1       -0.2656
      2 C          -0.8489   -1.9576   -1.6638 C.ar    1  UNL1        0.2748
      3 N           0.4851   -1.8457   -1.5666 N.ar    1  UNL1       -0.3203
      4 C           1.0645   -0.9723   -0.7173 C.ar    1  UNL1        0.0519
      5 C           2.4356   -0.8494   -0.6104 C.ar    1  UNL1       -0.0299
      6 C           3.0173    0.0485    0.2623 C.ar    1  UNL1       -0.0159
      7 C           4.4605    0.1704    0.3658 C.ar    1  UNL1       -0.0164
      8 C           5.2452   -0.0489   -0.7340 C.ar    1  UNL1       -0.0539
      9 C           6.6201    0.0605   -0.6645 C.ar    1  UNL1       -0.0598
     10 C           7.2573    0.3973    0.5257 C.ar    1  UNL1       -0.0434
     11 C           6.4811    0.6165    1.6234 C.ar    1  UNL1        0.0416
     12 CL          7.2251    1.0433    3.1503 Cl      1  UNL1       -0.0835
     13 C           5.0940    0.5037    1.5428 C.ar    1  UNL1       -0.0357
     14 C           2.1565    0.8163    1.0216 C.ar    1  UNL1       -0.0533
     15 C           0.7804    0.6979    0.9191 C.ar    1  UNL1       -0.0499
     16 C           0.2117   -0.1946    0.0517 C.ar    1  UNL1        0.0260
     17 C          -1.1576   -0.2942   -0.0332 C.ar    1  UNL1        0.1039
     18 N          -2.1913    0.3109    0.5683 N.ar    1  UNL1       -0.2268
     19 C          -3.3528   -0.1911    0.0875 C.ar    1  UNL1        0.1436
     20 C          -4.6725    0.2633    0.5443 C.ar    1  UNL1        0.0707
     21 C          -5.8576   -0.2442    0.0596 C.ar    1  UNL1        0.1354
     22 F          -5.8479   -1.2086   -0.8832 F       1  UNL1       -0.2047
     23 C          -7.0852    0.2002    0.5055 C.ar    1  UNL1       -0.0257
     24 C          -7.1809    1.1805    1.4645 C.ar    1  UNL1       -0.0576
     25 C          -5.9909    1.6931    1.9541 C.ar    1  UNL1       -0.0425
     26 C          -4.7745    1.2551    1.5144 C.ar    1  UNL1        0.0544
     27 CL         -3.2897    1.9458    2.1743 Cl      1  UNL1       -0.0827
     28 N          -3.0782   -1.1258   -0.8296 N.ar    1  UNL1       -0.3335
     29 C          -1.7126   -1.1956   -0.9102 C.ar    1  UNL1        0.1322
     30 H           1.1455   -2.4331   -2.1470 H       1  UNL1        0.1690
     31 H           3.0369   -1.4887   -1.2411 H       1  UNL1        0.0644
     32 H           4.8418   -0.3180   -1.7145 H       1  UNL1        0.0624
     33 H           7.2538   -0.1096   -1.5235 H       1  UNL1        0.0618
     34 H           8.3324    0.4855    0.5929 H       1  UNL1        0.0632
     35 H           4.5471    0.6864    2.4323 H       1  UNL1        0.0638
     36 H           2.5246    1.5348    1.7206 H       1  UNL1        0.0624
     37 H           0.1151    1.3076    1.5220 H       1  UNL1        0.0625
     38 H          -8.0140   -0.2108    0.1131 H       1  UNL1        0.0646
     39 H          -8.1466    1.5105    1.7959 H       1  UNL1        0.0619
     40 H          -6.0709    2.4646    2.7089 H       1  UNL1        0.0632
     41 H          -3.7368   -1.7131   -1.3976 H       1  UNL1        0.1675
@<TRIPOS>BOND
     1     1     2    2
     2     2     3   ar
     3     3     4   ar
     4     4     5   ar
     5     5     6   ar
     6     6     7    1
     7     7     8   ar
     8     8     9   ar
     9     9    10   ar
    10    10    11   ar
    11    11    12    1
    12    11    13   ar
    13     6    14   ar
    14    14    15   ar
    15    15    16   ar
    16    16    17   ar
    17    17    18   ar
    18    18    19   ar
    19    19    20    1
    20    20    21   ar
    21    21    22    1
    22    21    23   ar
    23    23    24   ar
    24    24    25   ar
    25    25    26   ar
    26    26    27    1
    27    19    28   ar
    28    28    29   ar
    29    29     2   ar
    30    16     4   ar
    31    29    17   ar
    32    13     7   ar
    33    26    20   ar
    34     3    30    1
    35     5    31    1
    36     8    32    1
    37     9    33    1
    38    10    34    1
    39    13    35    1
    40    14    36    1
    41    15    37    1
    42    23    38    1
    43    24    39    1
    44    25    40    1
    45    28    41    1
