
     RDKit          3D

 41 45  0  0  0  0  0  0  0  0999 V2000
   -1.3226   -2.7911   -2.4750 O   0  0  0  0  0  0  0  0  0  0  0  0
   -0.8489   -1.9576   -1.6638 C   0  0  0  0  0  0  0  0  0  0  0  0
    0.4851   -1.8457   -1.5666 N   0  0  0  0  0  0  0  0  0  0  0  0
    1.0645   -0.9723   -0.7173 C   0  0  0  0  0  0  0  0  0  0  0  0
    2.4356   -0.8494   -0.6104 C   0  0  0  0  0  0  0  0  0  0  0  0
    3.0173    0.0485    0.2623 C   0  0  0  0  0  0  0  0  0  0  0  0
    4.4605    0.1704    0.3658 C   0  0  0  0  0  0  0  0  0  0  0  0
    5.2452   -0.0489   -0.7340 C   0  0  0  0  0  0  0  0  0  0  0  0
    6.6201    0.0605   -0.6645 C   0  0  0  0  0  0  0  0  0  0  0  0
    7.2573    0.3973    0.5257 C   0  0  0  0  0  0  0  0  0  0  0  0
    6.4811    0.6165    1.6234 C   0  0  0  0  0  0  0  0  0  0  0  0
    7.2251    1.0433    3.1503 Cl  0  0  0  0  0  0  0  0  0  0  0  0
    5.0940    0.5037    1.5428 C   0  0  0  0  0  0  0  0  0  0  0  0
    2.1565    0.8163    1.0216 C   0  0  0  0  0  0  0  0  0  0  0  0
    0.7804    0.6979    0.9191 C   0  0  0  0  0  0  0  0  0  0  0  0
    0.2117   -0.1946    0.0517 C   0  0  0  0  0  0  0  0  0  0  0  0
   -1.1576   -0.2942   -0.0332 C   0  0  0  0  0  0  0  0  0  0  0  0
   -2.1913    0.3109    0.5683 N   0  0  0  0  0  0  0  0  0  0  0  0
   -3.3528   -0.1911    0.0875 C   0  0  0  0  0  0  0  0  0  0  0  0
   -4.6725    0.2633    0.5443 C   0  0  0  0  0  0  0  0  0  0  0  0
   -5.8576   -0.2442    0.0596 C   0  0  0  0  0  0  0  0  0  0  0  0
   -5.8479   -1.2086   -0.8832 F   0  0  0  0  0  0  0  0  0  0  0  0
   -7.0852    0.2002    0.5055 C   0  0  0  0  0  0  0  0  0  0  0  0
   -7.1809    1.1805    1.4645 C   0  0  0  0  0  0  0  0  0  0  0  0
   -5.9909    1.6931    1.9541 C   0  0  0  0  0  0  0  0  0  0  0  0
   -4.7745    1.2551    1.5144 C   0  0  0  0  0  0  0  0  0  0  0  0
   -3.2897    1.9458    2.1743 Cl  0  0  0  0  0  0  0  0  0  0  0  0
   -3.0782   -1.1258   -0.8296 N   0  0  0  0  0  0  0  0  0  0  0  0
   -1.7126   -1.1956   -0.9102 C   0  0  0  0  0  0  0  0  0  0  0  0
    1.1455   -2.4331   -2.1470 H   0  0  0  0  0  0  0  0  0  0  0  0
    3.0369   -1.4887   -1.2411 H   0  0  0  0  0  0  0  0  0  0  0  0
    4.8418   -0.3180   -1.7145 H   0  0  0  0  0  0  0  0  0  0  0  0
    7.2538   -0.1096   -1.5235 H   0  0  0  0  0  0  0  0  0  0  0  0
    8.3324    0.4855    0.5929 H   0  0  0  0  0  0  0  0  0  0  0  0
    4.5471    0.6864    2.4323 H   0  0  0  0  0  0  0  0  0  0  0  0
    2.5246    1.5348    1.7206 H   0  0  0  0  0  0  0  0  0  0  0  0
    0.1151    1.3076    1.5220 H   0  0  0  0  0  0  0  0  0  0  0  0
   -8.0140   -0.2108    0.1131 H   0  0  0  0  0  0  0  0  0  0  0  0
   -8.1466    1.5105    1.7959 H   0  0  0  0  0  0  0  0  0  0  0  0
   -6.0709    2.4646    2.7089 H   0  0  0  0  0  0  0  0  0  0  0  0
   -3.7368   -1.7131   -1.3976 H   0  0  0  0  0  0  0  0  0  0  0  0
  1  2  2  0
  2  3  1  0
  3  4  1  0
  4  5  2  0
  5  6  1  0
  6  7  1  0
  7  8  2  0
  8  9  1  0
  9 10  2  0
 10 11  1  0
 11 12  1  0
 11 13  2  0
  6 14  2  0
 14 15  1  0
 15 16  2  0
 16 17  1  0
 17 18  1  0
 18 19  2  0
 19 20  1  0
 20 21  2  0
 21 22  1  0
 21 23  1  0
 23 24  2  0
 24 25  1  0
 25 26  2  0
 26 27  1  0
 19 28  1  0
 28 29  1  0
 29  2  1  0
 16  4  1  0
 29 17  2  0
 13  7  1  0
 26 20  1  0
  3 30  1  0
  5 31  1  0
  8 32  1  0
  9 33  1  0
 10 34  1  0
 13 35  1  0
 14 36  1  0
 15 37  1  0
 23 38  1  0
 24 39  1  0
 25 40  1  0
 28 41  1  0
M  END
$$$$
