@<TRIPOS>MOLECULE
*****
 100 104 0 0 0
SMALL
GASTEIGER

@<TRIPOS>ATOM
      1 C           1.9982    0.8392    5.0964 C.3     1  UNL1       -0.0653
      2 C           1.7497   -0.4282    4.3168 C.3     1  UNL1       -0.0559
      3 C           1.9157   -0.2105    2.8115 C.3     1  UNL1       -0.0526
      4 C           0.9695    0.8126    2.2920 C.3     1  UNL1       -0.0414
      5 C           0.9894    1.1587    0.8620 C.3     1  UNL1        0.0415
      6 C           2.3531    1.6765    0.4652 C.2     1  UNL1        0.2192
      7 O           2.7842    2.8007    0.8186 O.2     1  UNL1       -0.2753
      8 N           3.2136    0.8781   -0.3455 N.am    1  UNL1       -0.3010
      9 C           4.4510    1.4258   -0.7966 C.3     1  UNL1        0.0175
     10 C           5.6100    1.2485    0.1225 C.3     1  UNL1       -0.0250
     11 C           5.9110   -0.1961    0.3509 C.3     1  UNL1       -0.0464
     12 C           6.9821   -0.6725   -0.6208 C.3     1  UNL1       -0.0263
     13 C           8.2812    0.0137   -0.3252 C.3     1  UNL1        0.0587
     14 O           9.0743   -0.7998    0.4634 O.3     1  UNL1       -0.3768
     15 C          10.2729   -1.0272   -0.1954 C.3     1  UNL1        0.0452
     16 C          10.0210   -1.6896   -1.5122 C.3     1  UNL1       -0.0416
     17 C           8.0373    1.3693    0.3524 C.3     1  UNL1       -0.0263
     18 C           6.8515    1.9831   -0.3735 C.3     1  UNL1       -0.0464
     19 C           2.7486   -0.4213   -0.6782 C.3     1  UNL1        0.0152
     20 C           1.3312   -0.2605   -1.1886 C.3     1  UNL1       -0.0307
     21 C           0.3756    0.2839   -0.1441 C.3     1  UNL1       -0.0144
     22 C          -0.4431   -0.8734    0.3556 C.3     1  UNL1       -0.0337
     23 C          -1.9536   -0.6339    0.1665 C.3     1  UNL1       -0.0001
     24 N          -2.2100   -0.7986   -1.2321 N.3     1  UNL1       -0.2968
     25 C          -3.6060   -0.7886   -1.5818 C.3     1  UNL1        0.0220
     26 C          -3.7161   -1.0216   -3.0777 C.3     1  UNL1       -0.0465
     27 C          -4.3282    0.4735   -1.2713 C.3     1  UNL1       -0.0188
     28 C          -5.6364    0.3289   -0.5719 C.3     1  UNL1        0.0166
     29 N          -6.3501   -0.8947   -0.8851 N.am    1  UNL1       -0.2973
     30 C          -7.7403   -0.9697   -0.6299 C.2     1  UNL1        0.2501
     31 O          -8.3384   -2.0609   -0.9179 O.2     1  UNL1       -0.2699
     32 C          -8.5157    0.1121   -0.0659 C.ar    1  UNL1        0.0788
     33 C          -8.6241    0.3406    1.2855 C.ar    1  UNL1        0.0538
     34 C          -7.9380   -0.5231    2.2634 C.3     1  UNL1       -0.0215
     35 N          -9.3693    1.3715    1.7516 N.ar    1  UNL1       -0.2398
     36 C         -10.0111    2.1843    0.9254 C.ar    1  UNL1        0.1165
     37 N          -9.9221    1.9843   -0.3959 N.ar    1  UNL1       -0.2398
     38 C          -9.1855    0.9621   -0.9156 C.ar    1  UNL1        0.0538
     39 C          -9.1202    0.7859   -2.3894 C.3     1  UNL1       -0.0215
     40 C          -5.6835   -2.0520   -1.4521 C.3     1  UNL1        0.0166
     41 C          -4.2479   -1.9857   -0.9135 C.3     1  UNL1       -0.0188
     42 C          -1.4208    0.1958   -1.9199 C.3     1  UNL1       -0.0001
     43 C          -0.6312    1.0814   -1.0128 C.3     1  UNL1       -0.0337
     44 H           2.7740    1.4712    4.6650 H       1  UNL1        0.0230
     45 H           1.0315    1.3349    5.2770 H       1  UNL1        0.0230
     46 H           2.3848    0.5211    6.1034 H       1  UNL1        0.0230
     47 H           0.7624   -0.7990    4.5826 H       1  UNL1        0.0263
     48 H           2.5827   -1.1351    4.5949 H       1  UNL1        0.0263
     49 H           1.7880   -1.2223    2.3848 H       1  UNL1        0.0265
     50 H           2.9814    0.0417    2.6672 H       1  UNL1        0.0265
     51 H           1.2126    1.7605    2.8700 H       1  UNL1        0.0273
     52 H          -0.0951    0.6124    2.6034 H       1  UNL1        0.0273
     53 H           0.3978    2.1411    0.8315 H       1  UNL1        0.0400
     54 H           4.6902    1.1067   -1.8439 H       1  UNL1        0.0467
     55 H           4.3127    2.5508   -0.8952 H       1  UNL1        0.0467
     56 H           5.3745    1.6802    1.1457 H       1  UNL1        0.0316
     57 H           6.2235   -0.3718    1.4034 H       1  UNL1        0.0269
     58 H           5.0209   -0.7994    0.1501 H       1  UNL1        0.0269
     59 H           7.0152   -1.7801   -0.4835 H       1  UNL1        0.0290
     60 H           6.6039   -0.4442   -1.6257 H       1  UNL1        0.0290
     61 H           8.7775    0.2802   -1.2883 H       1  UNL1        0.0596
     62 H          10.7601   -0.0296   -0.3205 H       1  UNL1        0.0557
     63 H          10.9090   -1.6546    0.4825 H       1  UNL1        0.0557
     64 H          10.8330   -2.4373   -1.6648 H       1  UNL1        0.0252
     65 H           9.0669   -2.2081   -1.6168 H       1  UNL1        0.0252
     66 H          10.0650   -0.9154   -2.3108 H       1  UNL1        0.0252
     67 H           8.9455    1.9751    0.2323 H       1  UNL1        0.0290
     68 H           7.8066    1.2341    1.4223 H       1  UNL1        0.0290
     69 H           6.8340    3.0510   -0.0968 H       1  UNL1        0.0269
     70 H           6.9924    1.9001   -1.4520 H       1  UNL1        0.0269
     71 H           2.7496   -1.0969    0.2030 H       1  UNL1        0.0465
     72 H           3.3235   -0.8276   -1.5073 H       1  UNL1        0.0465
     73 H           1.4099    0.3799   -2.0916 H       1  UNL1        0.0286
     74 H           1.0152   -1.2627   -1.5474 H       1  UNL1        0.0286
     75 H          -0.2552   -1.8184   -0.2371 H       1  UNL1        0.0283
     76 H          -0.3329   -1.1289    1.3956 H       1  UNL1        0.0283
     77 H          -2.4592   -1.4358    0.7839 H       1  UNL1        0.0427
     78 H          -2.2605    0.3134    0.6075 H       1  UNL1        0.0427
     79 H          -3.8312   -2.1075   -3.2874 H       1  UNL1        0.0247
     80 H          -4.5270   -0.4218   -3.5305 H       1  UNL1        0.0247
     81 H          -2.7605   -0.7322   -3.5572 H       1  UNL1        0.0247
     82 H          -4.4265    1.0947   -2.2067 H       1  UNL1        0.0298
     83 H          -3.6574    1.1041   -0.6179 H       1  UNL1        0.0298
     84 H          -5.4954    0.4572    0.5338 H       1  UNL1        0.0465
     85 H          -6.2985    1.1624   -0.8906 H       1  UNL1        0.0465
     86 H          -8.0609   -1.6047    2.0437 H       1  UNL1        0.0293
     87 H          -8.3833   -0.3733    3.2882 H       1  UNL1        0.0293
     88 H          -6.8761   -0.2177    2.3746 H       1  UNL1        0.0293
     89 H         -10.6055    3.0097    1.3483 H       1  UNL1        0.1047
     90 H          -8.0782    0.9213   -2.7568 H       1  UNL1        0.0293
     91 H          -9.7361    1.5431   -2.8759 H       1  UNL1        0.0293
     92 H          -9.5178   -0.2235   -2.7029 H       1  UNL1        0.0293
     93 H          -5.7203   -1.9336   -2.5493 H       1  UNL1        0.0465
     94 H          -6.1656   -3.0009   -1.1875 H       1  UNL1        0.0465
     95 H          -3.6645   -2.8835   -1.1594 H       1  UNL1        0.0298
     96 H          -4.3600   -1.8134    0.1813 H       1  UNL1        0.0298
     97 H          -2.0857    0.8613   -2.5045 H       1  UNL1        0.0427
     98 H          -0.7162   -0.3260   -2.5991 H       1  UNL1        0.0427
     99 H          -1.2235    1.7571   -0.3990 H       1  UNL1        0.0283
    100 H           0.0193    1.7178   -1.6563 H       1  UNL1        0.0283
@<TRIPOS>BOND
     1     1     2    1
     2     2     3    1
     3     3     4    1
     4     4     5    1
     5     5     6    1
     6     6     7    2
     7     6     8   am
     8     8     9    1
     9     9    10    1
    10    10    11    1
    11    11    12    1
    12    12    13    1
    13    13    14    1
    14    14    15    1
    15    15    16    1
    16    13    17    1
    17    17    18    1
    18     8    19    1
    19    19    20    1
    20    20    21    1
    21    21    22    1
    22    22    23    1
    23    23    24    1
    24    24    25    1
    25    25    26    1
    26    25    27    1
    27    27    28    1
    28    28    29    1
    29    29    30   am
    30    30    31    2
    31    30    32    1
    32    32    33   ar
    33    33    34    1
    34    33    35   ar
    35    35    36   ar
    36    36    37   ar
    37    37    38   ar
    38    38    39    1
    39    29    40    1
    40    40    41    1
    41    24    42    1
    42    42    43    1
    43    21     5    1
    44    41    25    1
    45    18    10    1
    46    43    21    1
    47    38    32   ar
    48     1    44    1
    49     1    45    1
    50     1    46    1
    51     2    47    1
    52     2    48    1
    53     3    49    1
    54     3    50    1
    55     4    51    1
    56     4    52    1
    57     5    53    1
    58     9    54    1
    59     9    55    1
    60    10    56    1
    61    11    57    1
    62    11    58    1
    63    12    59    1
    64    12    60    1
    65    13    61    1
    66    15    62    1
    67    15    63    1
    68    16    64    1
    69    16    65    1
    70    16    66    1
    71    17    67    1
    72    17    68    1
    73    18    69    1
    74    18    70    1
    75    19    71    1
    76    19    72    1
    77    20    73    1
    78    20    74    1
    79    22    75    1
    80    22    76    1
    81    23    77    1
    82    23    78    1
    83    26    79    1
    84    26    80    1
    85    26    81    1
    86    27    82    1
    87    27    83    1
    88    28    84    1
    89    28    85    1
    90    34    86    1
    91    34    87    1
    92    34    88    1
    93    36    89    1
    94    39    90    1
    95    39    91    1
    96    39    92    1
    97    40    93    1
    98    40    94    1
    99    41    95    1
   100    41    96    1
   101    42    97    1
   102    42    98    1
   103    43    99    1
   104    43   100    1
