
     RDKit          3D

100104  0  0  0  0  0  0  0  0999 V2000
    1.9982    0.8392    5.0964 C   0  0  0  0  0  0  0  0  0  0  0  0
    1.7497   -0.4282    4.3168 C   0  0  0  0  0  0  0  0  0  0  0  0
    1.9157   -0.2105    2.8115 C   0  0  0  0  0  0  0  0  0  0  0  0
    0.9695    0.8126    2.2920 C   0  0  0  0  0  0  0  0  0  0  0  0
    0.9894    1.1587    0.8620 C   0  0  0  0  0  0  0  0  0  0  0  0
    2.3531    1.6765    0.4652 C   0  0  0  0  0  0  0  0  0  0  0  0
    2.7842    2.8007    0.8186 O   0  0  0  0  0  0  0  0  0  0  0  0
    3.2136    0.8781   -0.3455 N   0  0  0  0  0  0  0  0  0  0  0  0
    4.4510    1.4258   -0.7966 C   0  0  0  0  0  0  0  0  0  0  0  0
    5.6100    1.2485    0.1225 C   0  0  1  0  0  0  0  0  0  0  0  0
    5.9110   -0.1961    0.3509 C   0  0  0  0  0  0  0  0  0  0  0  0
    6.9821   -0.6725   -0.6208 C   0  0  0  0  0  0  0  0  0  0  0  0
    8.2812    0.0137   -0.3252 C   0  0  2  0  0  0  0  0  0  0  0  0
    9.0743   -0.7998    0.4634 O   0  0  0  0  0  0  0  0  0  0  0  0
   10.2729   -1.0272   -0.1954 C   0  0  0  0  0  0  0  0  0  0  0  0
   10.0210   -1.6896   -1.5122 C   0  0  0  0  0  0  0  0  0  0  0  0
    8.0373    1.3693    0.3524 C   0  0  0  0  0  0  0  0  0  0  0  0
    6.8515    1.9831   -0.3735 C   0  0  0  0  0  0  0  0  0  0  0  0
    2.7486   -0.4213   -0.6782 C   0  0  0  0  0  0  0  0  0  0  0  0
    1.3312   -0.2605   -1.1886 C   0  0  0  0  0  0  0  0  0  0  0  0
    0.3756    0.2839   -0.1441 C   0  0  0  0  0  0  0  0  0  0  0  0
   -0.4431   -0.8734    0.3556 C   0  0  0  0  0  0  0  0  0  0  0  0
   -1.9536   -0.6339    0.1665 C   0  0  0  0  0  0  0  0  0  0  0  0
   -2.2100   -0.7986   -1.2321 N   0  0  0  0  0  0  0  0  0  0  0  0
   -3.6060   -0.7886   -1.5818 C   0  0  0  0  0  0  0  0  0  0  0  0
   -3.7161   -1.0216   -3.0777 C   0  0  0  0  0  0  0  0  0  0  0  0
   -4.3282    0.4735   -1.2713 C   0  0  0  0  0  0  0  0  0  0  0  0
   -5.6364    0.3289   -0.5719 C   0  0  0  0  0  0  0  0  0  0  0  0
   -6.3501   -0.8947   -0.8851 N   0  0  0  0  0  0  0  0  0  0  0  0
   -7.7403   -0.9697   -0.6299 C   0  0  0  0  0  0  0  0  0  0  0  0
   -8.3384   -2.0609   -0.9179 O   0  0  0  0  0  0  0  0  0  0  0  0
   -8.5157    0.1121   -0.0659 C   0  0  0  0  0  0  0  0  0  0  0  0
   -8.6241    0.3406    1.2855 C   0  0  0  0  0  0  0  0  0  0  0  0
   -7.9380   -0.5231    2.2634 C   0  0  0  0  0  0  0  0  0  0  0  0
   -9.3693    1.3715    1.7516 N   0  0  0  0  0  0  0  0  0  0  0  0
  -10.0111    2.1843    0.9254 C   0  0  0  0  0  0  0  0  0  0  0  0
   -9.9221    1.9843   -0.3959 N   0  0  0  0  0  0  0  0  0  0  0  0
   -9.1855    0.9621   -0.9156 C   0  0  0  0  0  0  0  0  0  0  0  0
   -9.1202    0.7859   -2.3894 C   0  0  0  0  0  0  0  0  0  0  0  0
   -5.6835   -2.0520   -1.4521 C   0  0  0  0  0  0  0  0  0  0  0  0
   -4.2479   -1.9857   -0.9135 C   0  0  0  0  0  0  0  0  0  0  0  0
   -1.4208    0.1958   -1.9199 C   0  0  0  0  0  0  0  0  0  0  0  0
   -0.6312    1.0814   -1.0128 C   0  0  0  0  0  0  0  0  0  0  0  0
    2.7740    1.4712    4.6650 H   0  0  0  0  0  0  0  0  0  0  0  0
    1.0315    1.3349    5.2770 H   0  0  0  0  0  0  0  0  0  0  0  0
    2.3848    0.5211    6.1034 H   0  0  0  0  0  0  0  0  0  0  0  0
    0.7624   -0.7990    4.5826 H   0  0  0  0  0  0  0  0  0  0  0  0
    2.5827   -1.1351    4.5949 H   0  0  0  0  0  0  0  0  0  0  0  0
    1.7880   -1.2223    2.3848 H   0  0  0  0  0  0  0  0  0  0  0  0
    2.9814    0.0417    2.6672 H   0  0  0  0  0  0  0  0  0  0  0  0
    1.2126    1.7605    2.8700 H   0  0  0  0  0  0  0  0  0  0  0  0
   -0.0951    0.6124    2.6034 H   0  0  0  0  0  0  0  0  0  0  0  0
    0.3978    2.1411    0.8315 H   0  0  0  0  0  0  0  0  0  0  0  0
    4.6902    1.1067   -1.8439 H   0  0  0  0  0  0  0  0  0  0  0  0
    4.3127    2.5508   -0.8952 H   0  0  0  0  0  0  0  0  0  0  0  0
    5.3745    1.6802    1.1457 H   0  0  0  0  0  0  0  0  0  0  0  0
    6.2235   -0.3718    1.4034 H   0  0  0  0  0  0  0  0  0  0  0  0
    5.0209   -0.7994    0.1501 H   0  0  0  0  0  0  0  0  0  0  0  0
    7.0152   -1.7801   -0.4835 H   0  0  0  0  0  0  0  0  0  0  0  0
    6.6039   -0.4442   -1.6257 H   0  0  0  0  0  0  0  0  0  0  0  0
    8.7775    0.2802   -1.2883 H   0  0  0  0  0  0  0  0  0  0  0  0
   10.7601   -0.0296   -0.3205 H   0  0  0  0  0  0  0  0  0  0  0  0
   10.9090   -1.6546    0.4825 H   0  0  0  0  0  0  0  0  0  0  0  0
   10.8330   -2.4373   -1.6648 H   0  0  0  0  0  0  0  0  0  0  0  0
    9.0669   -2.2081   -1.6168 H   0  0  0  0  0  0  0  0  0  0  0  0
   10.0650   -0.9154   -2.3108 H   0  0  0  0  0  0  0  0  0  0  0  0
    8.9455    1.9751    0.2323 H   0  0  0  0  0  0  0  0  0  0  0  0
    7.8066    1.2341    1.4223 H   0  0  0  0  0  0  0  0  0  0  0  0
    6.8340    3.0510   -0.0968 H   0  0  0  0  0  0  0  0  0  0  0  0
    6.9924    1.9001   -1.4520 H   0  0  0  0  0  0  0  0  0  0  0  0
    2.7496   -1.0969    0.2030 H   0  0  0  0  0  0  0  0  0  0  0  0
    3.3235   -0.8276   -1.5073 H   0  0  0  0  0  0  0  0  0  0  0  0
    1.4099    0.3799   -2.0916 H   0  0  0  0  0  0  0  0  0  0  0  0
    1.0152   -1.2627   -1.5474 H   0  0  0  0  0  0  0  0  0  0  0  0
   -0.2552   -1.8184   -0.2371 H   0  0  0  0  0  0  0  0  0  0  0  0
   -0.3329   -1.1289    1.3956 H   0  0  0  0  0  0  0  0  0  0  0  0
   -2.4592   -1.4358    0.7839 H   0  0  0  0  0  0  0  0  0  0  0  0
   -2.2605    0.3134    0.6075 H   0  0  0  0  0  0  0  0  0  0  0  0
   -3.8312   -2.1075   -3.2874 H   0  0  0  0  0  0  0  0  0  0  0  0
   -4.5270   -0.4218   -3.5305 H   0  0  0  0  0  0  0  0  0  0  0  0
   -2.7605   -0.7322   -3.5572 H   0  0  0  0  0  0  0  0  0  0  0  0
   -4.4265    1.0947   -2.2067 H   0  0  0  0  0  0  0  0  0  0  0  0
   -3.6574    1.1041   -0.6179 H   0  0  0  0  0  0  0  0  0  0  0  0
   -5.4954    0.4572    0.5338 H   0  0  0  0  0  0  0  0  0  0  0  0
   -6.2985    1.1624   -0.8906 H   0  0  0  0  0  0  0  0  0  0  0  0
   -8.0609   -1.6047    2.0437 H   0  0  0  0  0  0  0  0  0  0  0  0
   -8.3833   -0.3733    3.2882 H   0  0  0  0  0  0  0  0  0  0  0  0
   -6.8761   -0.2177    2.3746 H   0  0  0  0  0  0  0  0  0  0  0  0
  -10.6055    3.0097    1.3483 H   0  0  0  0  0  0  0  0  0  0  0  0
   -8.0782    0.9213   -2.7568 H   0  0  0  0  0  0  0  0  0  0  0  0
   -9.7361    1.5431   -2.8759 H   0  0  0  0  0  0  0  0  0  0  0  0
   -9.5178   -0.2235   -2.7029 H   0  0  0  0  0  0  0  0  0  0  0  0
   -5.7203   -1.9336   -2.5493 H   0  0  0  0  0  0  0  0  0  0  0  0
   -6.1656   -3.0009   -1.1875 H   0  0  0  0  0  0  0  0  0  0  0  0
   -3.6645   -2.8835   -1.1594 H   0  0  0  0  0  0  0  0  0  0  0  0
   -4.3600   -1.8134    0.1813 H   0  0  0  0  0  0  0  0  0  0  0  0
   -2.0857    0.8613   -2.5045 H   0  0  0  0  0  0  0  0  0  0  0  0
   -0.7162   -0.3260   -2.5991 H   0  0  0  0  0  0  0  0  0  0  0  0
   -1.2235    1.7571   -0.3990 H   0  0  0  0  0  0  0  0  0  0  0  0
    0.0193    1.7178   -1.6563 H   0  0  0  0  0  0  0  0  0  0  0  0
  1  2  1  0
  2  3  1  0
  3  4  1  0
  4  5  1  0
  5  6  1  0
  6  7  2  0
  6  8  1  0
  8  9  1  0
  9 10  1  0
 10 11  1  0
 11 12  1  0
 12 13  1  0
 13 14  1  0
 14 15  1  0
 15 16  1  0
 13 17  1  0
 17 18  1  0
  8 19  1  0
 19 20  1  0
 20 21  1  0
 21 22  1  0
 22 23  1  0
 23 24  1  0
 24 25  1  0
 25 26  1  0
 25 27  1  0
 27 28  1  0
 28 29  1  0
 29 30  1  0
 30 31  2  0
 30 32  1  0
 32 33  2  0
 33 34  1  0
 33 35  1  0
 35 36  2  0
 36 37  1  0
 37 38  2  0
 38 39  1  0
 29 40  1  0
 40 41  1  0
 24 42  1  0
 42 43  1  0
 21  5  1  0
 41 25  1  0
 18 10  1  0
 43 21  1  0
 38 32  1  0
  1 44  1  0
  1 45  1  0
  1 46  1  0
  2 47  1  0
  2 48  1  0
  3 49  1  0
  3 50  1  0
  4 51  1  0
  4 52  1  0
  5 53  1  0
  9 54  1  0
  9 55  1  0
 10 56  1  1
 11 57  1  0
 11 58  1  0
 12 59  1  0
 12 60  1  0
 13 61  1  6
 15 62  1  0
 15 63  1  0
 16 64  1  0
 16 65  1  0
 16 66  1  0
 17 67  1  0
 17 68  1  0
 18 69  1  0
 18 70  1  0
 19 71  1  0
 19 72  1  0
 20 73  1  0
 20 74  1  0
 22 75  1  0
 22 76  1  0
 23 77  1  0
 23 78  1  0
 26 79  1  0
 26 80  1  0
 26 81  1  0
 27 82  1  0
 27 83  1  0
 28 84  1  0
 28 85  1  0
 34 86  1  0
 34 87  1  0
 34 88  1  0
 36 89  1  0
 39 90  1  0
 39 91  1  0
 39 92  1  0
 40 93  1  0
 40 94  1  0
 41 95  1  0
 41 96  1  0
 42 97  1  0
 42 98  1  0
 43 99  1  0
 43100  1  0
M  END
$$$$
