
     RDKit          3D

 17 17  0  0  0  0  0  0  0  0999 V2000
    2.8495   -0.6152    0.3985 O   0  0  0  0  0  0  0  0  0  0  0  0
    1.8660    0.0175   -0.3168 C   0  0  0  0  0  0  0  0  0  0  0  0
    2.2596    0.3352   -1.4788 O   0  0  0  0  0  0  0  0  0  0  0  0
    0.5519    0.2323    0.3274 C   0  0  2  0  0  0  0  0  0  0  0  0
   -0.2053   -1.0488    0.5874 C   0  0  0  0  0  0  0  0  0  0  0  0
   -1.6740   -0.6150    0.5121 C   0  0  0  0  0  0  0  0  0  0  0  0
   -1.5696    0.8891    0.2927 C   0  0  0  0  0  0  0  0  0  0  0  0
   -0.3777    0.9179   -0.5709 N   0  0  0  0  0  0  0  0  0  0  0  0
    3.8397   -0.4223    0.3194 H   0  0  0  0  0  0  0  0  0  0  0  0
    0.6262    0.8293    1.2468 H   0  0  0  0  0  0  0  0  0  0  0  0
    0.0271   -1.4924    1.5751 H   0  0  0  0  0  0  0  0  0  0  0  0
    0.0146   -1.7687   -0.2256 H   0  0  0  0  0  0  0  0  0  0  0  0
   -2.2073   -1.0822   -0.3248 H   0  0  0  0  0  0  0  0  0  0  0  0
   -2.2031   -0.8193    1.4679 H   0  0  0  0  0  0  0  0  0  0  0  0
   -2.4458    1.3357   -0.1723 H   0  0  0  0  0  0  0  0  0  0  0  0
   -1.2678    1.3842    1.2439 H   0  0  0  0  0  0  0  0  0  0  0  0
   -0.0840    1.9226   -0.7222 H   0  0  0  0  0  0  0  0  0  0  0  0
  1  2  1  0
  2  3  2  0
  2  4  1  0
  4  5  1  0
  5  6  1  0
  6  7  1  0
  7  8  1  0
  8  4  1  0
  1  9  1  0
  4 10  1  1
  5 11  1  0
  5 12  1  0
  6 13  1  0
  6 14  1  0
  7 15  1  0
  7 16  1  0
  8 17  1  0
M  END
$$$$
