
     RDKit          3D

 37 40  0  0  0  0  0  0  0  0999 V2000
   -2.2242   -0.7911    1.6162 C   0  0  0  0  0  0  0  0  0  0  0  0
   -2.3209   -1.2299    0.2641 N   0  0  0  0  0  0  0  0  0  0  0  0
   -3.4076   -0.5845   -0.4053 C   0  0  0  0  0  0  0  0  0  0  0  0
   -3.2735    0.8822   -0.6095 C   0  0  0  0  0  0  0  0  0  0  0  0
   -1.8664    1.3182   -0.4872 C   0  0  0  0  0  0  0  0  0  0  0  0
   -1.5974    2.6522   -0.4393 C   0  0  0  0  0  0  0  0  0  0  0  0
   -0.3159    3.1091   -0.3262 C   0  0  0  0  0  0  0  0  0  0  0  0
    0.7810    2.2280   -0.2536 C   0  0  0  0  0  0  0  0  0  0  0  0
    0.5107    0.8882   -0.3012 C   0  0  0  0  0  0  0  0  0  0  0  0
   -0.7949    0.4163   -0.4179 C   0  0  0  0  0  0  0  0  0  0  0  0
   -1.1140   -1.0111   -0.5085 C   0  0  1  0  0  0  0  0  0  0  0  0
   -0.0519   -1.9770   -0.2292 C   0  0  0  0  0  0  0  0  0  0  0  0
    1.3002   -1.4482   -0.1888 C   0  0  0  0  0  0  0  0  0  0  0  0
    2.3263   -2.3614   -0.1187 C   0  0  0  0  0  0  0  0  0  0  0  0
    3.6287   -1.9753   -0.0449 C   0  0  0  0  0  0  0  0  0  0  0  0
    3.9320   -0.6351   -0.0401 C   0  0  0  0  0  0  0  0  0  0  0  0
    5.2613   -0.2685    0.0362 O   0  0  0  0  0  0  0  0  0  0  0  0
    2.9036    0.3129   -0.1114 C   0  0  0  0  0  0  0  0  0  0  0  0
    3.3014    1.6044   -0.1010 O   0  0  0  0  0  0  0  0  0  0  0  0
    1.6003   -0.1027   -0.1854 C   0  0  0  0  0  0  0  0  0  0  0  0
   -2.4663    0.2859    1.6767 H   0  0  0  0  0  0  0  0  0  0  0  0
   -1.2315   -0.9233    2.0775 H   0  0  0  0  0  0  0  0  0  0  0  0
   -2.9668   -1.3867    2.2156 H   0  0  0  0  0  0  0  0  0  0  0  0
   -4.3677   -0.7799    0.1304 H   0  0  0  0  0  0  0  0  0  0  0  0
   -3.5629   -1.0612   -1.4181 H   0  0  0  0  0  0  0  0  0  0  0  0
   -3.6196    1.1771   -1.6406 H   0  0  0  0  0  0  0  0  0  0  0  0
   -3.9360    1.4820    0.0739 H   0  0  0  0  0  0  0  0  0  0  0  0
   -2.3927    3.3583   -0.4901 H   0  0  0  0  0  0  0  0  0  0  0  0
   -0.0847    4.1646   -0.2872 H   0  0  0  0  0  0  0  0  0  0  0  0
    1.7549    2.6548   -0.1638 H   0  0  0  0  0  0  0  0  0  0  0  0
   -1.4656   -1.1619   -1.5823 H   0  0  0  0  0  0  0  0  0  0  0  0
   -0.1317   -2.8107   -0.9909 H   0  0  0  0  0  0  0  0  0  0  0  0
   -0.1887   -2.5349    0.7425 H   0  0  0  0  0  0  0  0  0  0  0  0
    2.1364   -3.4430   -0.1193 H   0  0  0  0  0  0  0  0  0  0  0  0
    4.4184   -2.7171    0.0096 H   0  0  0  0  0  0  0  0  0  0  0  0
    5.5757    0.6906   -0.0247 H   0  0  0  0  0  0  0  0  0  0  0  0
    3.9498    1.9789    0.5683 H   0  0  0  0  0  0  0  0  0  0  0  0
  1  2  1  0
  2  3  1  0
  3  4  1  0
  4  5  1  0
  5  6  2  0
  6  7  1  0
  7  8  2  0
  8  9  1  0
  9 10  2  0
 10 11  1  0
 11 12  1  0
 12 13  1  0
 13 14  2  0
 14 15  1  0
 15 16  2  0
 16 17  1  0
 16 18  1  0
 18 19  1  0
 18 20  2  0
 11  2  1  0
 20 13  1  0
 10  5  1  0
 20  9  1  0
  1 21  1  0
  1 22  1  0
  1 23  1  0
  3 24  1  0
  3 25  1  0
  4 26  1  0
  4 27  1  0
  6 28  1  0
  7 29  1  0
  8 30  1  0
 11 31  1  6
 12 32  1  0
 12 33  1  0
 14 34  1  0
 15 35  1  0
 17 36  1  0
 19 37  1  0
M  END
$$$$
