@<TRIPOS>MOLECULE
*****
 37 40 0 0 0
SMALL
GASTEIGER

@<TRIPOS>ATOM
      1 C          -2.2242   -0.7911    1.6162 C.3     1  UNL1       -0.0122
      2 N          -2.3209   -1.2299    0.2641 N.3     1  UNL1       -0.2978
      3 C          -3.4076   -0.5845   -0.4053 C.3     1  UNL1        0.0032
      4 C          -3.2735    0.8822   -0.6095 C.3     1  UNL1       -0.0145
      5 C          -1.8664    1.3182   -0.4872 C.ar    1  UNL1       -0.0409
      6 C          -1.5974    2.6522   -0.4393 C.ar    1  UNL1       -0.0582
      7 C          -0.3159    3.1091   -0.3262 C.ar    1  UNL1       -0.0609
      8 C           0.7810    2.2280   -0.2536 C.ar    1  UNL1       -0.0536
      9 C           0.5107    0.8882   -0.3012 C.ar    1  UNL1       -0.0091
     10 C          -0.7949    0.4163   -0.4179 C.ar    1  UNL1       -0.0189
     11 C          -1.1140   -1.0111   -0.5085 C.3     1  UNL1        0.0401
     12 C          -0.0519   -1.9770   -0.2292 C.3     1  UNL1       -0.0072
     13 C           1.3002   -1.4482   -0.1888 C.ar    1  UNL1       -0.0341
     14 C           2.3263   -2.3614   -0.1187 C.ar    1  UNL1       -0.0543
     15 C           3.6287   -1.9753   -0.0449 C.ar    1  UNL1       -0.0162
     16 C           3.9320   -0.6351   -0.0401 C.ar    1  UNL1        0.1589
     17 O           5.2613   -0.2685    0.0362 O.3     1  UNL1       -0.5033
     18 C           2.9036    0.3129   -0.1114 C.ar    1  UNL1        0.1664
     19 O           3.3014    1.6044   -0.1010 O.3     1  UNL1       -0.5029
     20 C           1.6003   -0.1027   -0.1854 C.ar    1  UNL1        0.0308
     21 H          -2.4663    0.2859    1.6767 H       1  UNL1        0.0391
     22 H          -1.2315   -0.9233    2.0775 H       1  UNL1        0.0391
     23 H          -2.9668   -1.3867    2.2156 H       1  UNL1        0.0391
     24 H          -4.3677   -0.7799    0.1304 H       1  UNL1        0.0430
     25 H          -3.5629   -1.0612   -1.4181 H       1  UNL1        0.0430
     26 H          -3.6196    1.1771   -1.6406 H       1  UNL1        0.0326
     27 H          -3.9360    1.4820    0.0739 H       1  UNL1        0.0326
     28 H          -2.3927    3.3583   -0.4901 H       1  UNL1        0.0620
     29 H          -0.0847    4.1646   -0.2872 H       1  UNL1        0.0618
     30 H           1.7549    2.6548   -0.1638 H       1  UNL1        0.0624
     31 H          -1.4656   -1.1619   -1.5823 H       1  UNL1        0.0515
     32 H          -0.1317   -2.8107   -0.9909 H       1  UNL1        0.0332
     33 H          -0.1887   -2.5349    0.7425 H       1  UNL1        0.0332
     34 H           2.1364   -3.4430   -0.1193 H       1  UNL1        0.0622
     35 H           4.4184   -2.7171    0.0096 H       1  UNL1        0.0655
     36 H           5.5757    0.6906   -0.0247 H       1  UNL1        0.2923
     37 H           3.9498    1.9789    0.5683 H       1  UNL1        0.2923
@<TRIPOS>BOND
     1     1     2    1
     2     2     3    1
     3     3     4    1
     4     4     5    1
     5     5     6   ar
     6     6     7   ar
     7     7     8   ar
     8     8     9   ar
     9     9    10   ar
    10    10    11    1
    11    11    12    1
    12    12    13    1
    13    13    14   ar
    14    14    15   ar
    15    15    16   ar
    16    16    17    1
    17    16    18   ar
    18    18    19    1
    19    18    20   ar
    20    11     2    1
    21    20    13   ar
    22    10     5   ar
    23    20     9    1
    24     1    21    1
    25     1    22    1
    26     1    23    1
    27     3    24    1
    28     3    25    1
    29     4    26    1
    30     4    27    1
    31     6    28    1
    32     7    29    1
    33     8    30    1
    34    11    31    1
    35    12    32    1
    36    12    33    1
    37    14    34    1
    38    15    35    1
    39    17    36    1
    40    19    37    1
