@<TRIPOS>MOLECULE
*****
 47 50 0 0 0
SMALL
GASTEIGER

@<TRIPOS>ATOM
      1 C          -7.1630   -0.1327   -1.1145 C.3     1  UNL1        0.0790
      2 O          -6.3884   -0.3657    0.0448 O.3     1  UNL1       -0.4913
      3 C          -5.0226   -0.1350   -0.0199 C.ar    1  UNL1        0.1650
      4 C          -4.4154    0.3101   -1.1748 C.ar    1  UNL1        0.0267
      5 C          -3.0559    0.5413   -1.2444 C.ar    1  UNL1        0.1421
      6 O          -2.4656    0.9633   -2.3322 O.2     1  UNL1       -0.4620
      7 C          -1.1767    1.1745   -2.3721 C.ar    1  UNL1        0.1038
      8 C          -0.3547    0.9716   -1.2874 C.ar    1  UNL1        0.0643
      9 C           1.0951    1.2045   -1.3167 C.ar    1  UNL1       -0.0095
     10 C           1.6326    2.3314   -1.8835 C.ar    1  UNL1       -0.0537
     11 C           2.9845    2.5500   -1.9116 C.ar    1  UNL1       -0.0594
     12 C           3.8747    1.6518   -1.3733 C.ar    1  UNL1       -0.0406
     13 C           3.3539    0.5014   -0.7928 C.ar    1  UNL1        0.0303
     14 N           4.2266   -0.4592   -0.2232 N.pl3   1  UNL1       -0.3299
     15 C           3.8061   -1.6851    0.4189 C.3     1  UNL1        0.0122
     16 C           4.8858   -1.9646    1.4192 C.3     1  UNL1       -0.0358
     17 C           5.9261   -0.8927    1.2667 C.3     1  UNL1       -0.0358
     18 C           5.6563   -0.4276   -0.1652 C.3     1  UNL1        0.0122
     19 C           1.9781    0.2921   -0.7713 C.ar    1  UNL1       -0.0327
     20 C          -0.9435    0.5266   -0.1231 C.ar    1  UNL1        0.2003
     21 O          -0.2519    0.3157    0.9217 O.2     1  UNL1       -0.2864
     22 C          -2.3066    0.3137   -0.1157 C.ar    1  UNL1        0.0682
     23 C          -2.9015   -0.1384    1.0691 C.ar    1  UNL1       -0.0019
     24 C          -4.2599   -0.3608    1.1100 C.ar    1  UNL1        0.1624
     25 O          -4.8697   -0.8073    2.2685 O.3     1  UNL1       -0.4914
     26 C          -4.1614   -1.0581    3.4527 C.3     1  UNL1        0.0790
     27 H          -8.2300   -0.3679   -0.9650 H       1  UNL1        0.0660
     28 H          -6.8141   -0.7307   -1.9867 H       1  UNL1        0.0660
     29 H          -7.1271    0.9417   -1.4246 H       1  UNL1        0.0660
     30 H          -4.9990    0.4915   -2.0679 H       1  UNL1        0.0692
     31 H          -0.7349    1.5215   -3.2888 H       1  UNL1        0.1037
     32 H           0.9759    3.0602   -2.3159 H       1  UNL1        0.0624
     33 H           3.4076    3.4579   -2.3689 H       1  UNL1        0.0618
     34 H           4.9403    1.7977   -1.3820 H       1  UNL1        0.0636
     35 H           3.8633   -2.4846   -0.3770 H       1  UNL1        0.0464
     36 H           2.8013   -1.6509    0.8594 H       1  UNL1        0.0464
     37 H           5.3852   -2.9504    1.2486 H       1  UNL1        0.0281
     38 H           4.4676   -1.9041    2.4590 H       1  UNL1        0.0281
     39 H           5.7658   -0.0477    1.9855 H       1  UNL1        0.0281
     40 H           6.9588   -1.2737    1.3424 H       1  UNL1        0.0281
     41 H           6.1212   -1.2299   -0.8099 H       1  UNL1        0.0464
     42 H           6.1332    0.5238   -0.3817 H       1  UNL1        0.0464
     43 H           1.5467   -0.5996   -0.3243 H       1  UNL1        0.0642
     44 H          -2.2524   -0.2990    1.9270 H       1  UNL1        0.0663
     45 H          -4.7073   -1.7974    4.1057 H       1  UNL1        0.0660
     46 H          -3.1894   -1.5611    3.2257 H       1  UNL1        0.0660
     47 H          -3.9959   -0.1179    3.9933 H       1  UNL1        0.0660
@<TRIPOS>BOND
     1     1     2    1
     2     2     3    1
     3     3     4   ar
     4     4     5   ar
     5     5     6   ar
     6     6     7   ar
     7     7     8   ar
     8     8     9    1
     9     9    10   ar
    10    10    11   ar
    11    11    12   ar
    12    12    13   ar
    13    13    14    1
    14    14    15    1
    15    15    16    1
    16    16    17    1
    17    17    18    1
    18    13    19   ar
    19     8    20   ar
    20    20    21    2
    21    20    22   ar
    22    22    23   ar
    23    23    24   ar
    24    24    25    1
    25    25    26    1
    26    24     3   ar
    27    22     5   ar
    28    19     9   ar
    29    18    14    1
    30     1    27    1
    31     1    28    1
    32     1    29    1
    33     4    30    1
    34     7    31    1
    35    10    32    1
    36    11    33    1
    37    12    34    1
    38    15    35    1
    39    15    36    1
    40    16    37    1
    41    16    38    1
    42    17    39    1
    43    17    40    1
    44    18    41    1
    45    18    42    1
    46    19    43    1
    47    23    44    1
    48    26    45    1
    49    26    46    1
    50    26    47    1
