
     RDKit          3D

 18 18  0  0  0  0  0  0  0  0999 V2000
   -2.4608    0.0459   -0.3975 N   0  0  0  0  0  4  0  0  0  0  0  0
   -1.5630   -0.3218    0.6756 C   0  0  0  0  0  0  0  0  0  0  0  0
   -0.1504   -0.0361    0.3543 C   0  0  0  0  0  0  0  0  0  0  0  0
    0.5439    1.1303    0.6046 C   0  0  0  0  0  0  0  0  0  0  0  0
    1.8724    1.2633    0.2484 C   0  0  0  0  0  0  0  0  0  0  0  0
    2.4993    0.1774   -0.3767 C   0  0  0  0  0  0  0  0  0  0  0  0
    3.8147    0.2869   -0.7383 F   0  0  0  0  0  0  0  0  0  0  0  0
    1.8273   -1.0055   -0.6405 C   0  0  0  0  0  0  0  0  0  0  0  0
    0.5013   -1.0854   -0.2639 C   0  0  0  0  0  0  0  0  0  0  0  0
   -2.9303   -0.8177   -0.7623 H   0  0  0  0  0  0  0  0  0  0  0  0
   -3.2248    0.6598   -0.0360 H   0  0  0  0  0  0  0  0  0  0  0  0
   -1.9648    0.5529   -1.1492 H   0  0  0  0  0  0  0  0  0  0  0  0
   -1.8210    0.2965    1.5804 H   0  0  0  0  0  0  0  0  0  0  0  0
   -1.7064   -1.3780    0.9863 H   0  0  0  0  0  0  0  0  0  0  0  0
   -0.0278    1.9124    1.0919 H   0  0  0  0  0  0  0  0  0  0  0  0
    2.3913    2.1895    0.4571 H   0  0  0  0  0  0  0  0  0  0  0  0
    2.3589   -1.8291   -1.1319 H   0  0  0  0  0  0  0  0  0  0  0  0
    0.0403   -2.0413   -0.5023 H   0  0  0  0  0  0  0  0  0  0  0  0
  1  2  1  0
  2  3  1  0
  3  4  2  0
  4  5  1  0
  5  6  2  0
  6  7  1  0
  6  8  1  0
  8  9  2  0
  9  3  1  0
  1 10  1  0
  1 11  1  0
  1 12  1  0
  2 13  1  0
  2 14  1  0
  4 15  1  0
  5 16  1  0
  8 17  1  0
  9 18  1  0
M  CHG  1   1   1
M  END
$$$$
