@<TRIPOS>MOLECULE
*****
 48 52 0 0 0
SMALL
GASTEIGER

@<TRIPOS>ATOM
      1 C          -3.0073    4.4566   -1.5281 C.3     1  UNL1       -0.0223
      2 C          -3.0170    3.3389   -0.5177 C.ar    1  UNL1        0.0390
      3 C          -4.1020    3.1797    0.3187 C.ar    1  UNL1       -0.0406
      4 C          -4.1058    2.1480    1.2478 C.ar    1  UNL1       -0.0580
      5 C          -3.0358    1.2744    1.3489 C.ar    1  UNL1       -0.0342
      6 C          -1.9739    1.4719    0.4928 C.ar    1  UNL1        0.0895
      7 C          -0.8012    0.5833    0.5433 C.ar    1  UNL1        0.0926
      8 N           0.4596    0.9359    0.8350 N.ar    1  UNL1       -0.3389
      9 C           1.2538   -0.1283    0.7839 C.ar    1  UNL1        0.1254
     10 C           2.7262   -0.1824    1.0380 C.3     1  UNL1        0.0673
     11 N           3.4314    0.0355   -0.1867 N.pl3   1  UNL1       -0.3345
     12 C           4.8396    0.0377   -0.2670 C.ar    1  UNL1        0.0631
     13 C           5.5788   -0.1792    0.8707 C.ar    1  UNL1       -0.0380
     14 C           6.9651   -0.1898    0.8535 C.ar    1  UNL1       -0.0598
     15 C           7.6260    0.0194   -0.3186 C.ar    1  UNL1       -0.0589
     16 C           6.9207    0.2401   -1.4788 C.ar    1  UNL1       -0.0246
     17 C           5.5210    0.2471   -1.4413 C.ar    1  UNL1        0.1441
     18 F           4.8451    0.4647   -2.5856 F       1  UNL1       -0.2036
     19 N           0.4888   -1.1709    0.4558 N.ar    1  UNL1       -0.2302
     20 C          -0.7774   -0.7658    0.3013 C.ar    1  UNL1        0.0998
     21 C          -1.8709   -1.6346   -0.0542 C.ar    1  UNL1        0.0208
     22 C          -2.5471   -1.4332   -1.2247 C.ar    1  UNL1       -0.0475
     23 C          -3.5916   -2.2721   -1.5554 C.ar    1  UNL1       -0.0167
     24 C          -3.9121   -3.2940   -0.6746 C.ar    1  UNL1        0.1557
     25 N          -4.8616   -4.2702   -0.7013 N.ar    1  UNL1       -0.2149
     26 C          -4.7571   -5.0160    0.3975 C.ar    1  UNL1        0.1390
     27 N          -3.7497   -4.5184    1.1170 N.ar    1  UNL1       -0.1535
     28 N          -3.2351   -3.4675    0.4611 N.ar    1  UNL1       -0.2198
     29 C          -2.2260   -2.6506    0.7726 C.ar    1  UNL1        0.0407
     30 N          -2.0055    2.4873   -0.3992 N.ar    1  UNL1       -0.2503
     31 H          -2.6077    5.3902   -1.0358 H       1  UNL1        0.0292
     32 H          -4.0341    4.6829   -1.8348 H       1  UNL1        0.0292
     33 H          -2.4248    4.1947   -2.4227 H       1  UNL1        0.0292
     34 H          -4.9450    3.8611    0.2454 H       1  UNL1        0.0635
     35 H          -4.9459    1.9875    1.9289 H       1  UNL1        0.0619
     36 H          -3.0460    0.4667    2.0807 H       1  UNL1        0.0639
     37 H           0.8019    1.9127    1.0749 H       1  UNL1        0.1672
     38 H           3.0033    0.5438    1.8368 H       1  UNL1        0.0541
     39 H           2.9488   -1.1905    1.4283 H       1  UNL1        0.0541
     40 H           2.8977    0.2053   -1.0885 H       1  UNL1        0.1466
     41 H           5.0773   -0.3456    1.8020 H       1  UNL1        0.0637
     42 H           7.5354   -0.3628    1.7617 H       1  UNL1        0.0618
     43 H           8.7174    0.0094   -0.3239 H       1  UNL1        0.0618
     44 H           7.4605    0.4017   -2.3850 H       1  UNL1        0.0647
     45 H          -2.3155   -0.6367   -1.9359 H       1  UNL1        0.0626
     46 H          -4.1697   -2.1780   -2.4555 H       1  UNL1        0.0655
     47 H          -5.3386   -5.8794    0.7223 H       1  UNL1        0.1066
     48 H          -1.6939   -2.8108    1.6963 H       1  UNL1        0.0837
@<TRIPOS>BOND
     1     1     2    1
     2     2     3   ar
     3     3     4   ar
     4     4     5   ar
     5     5     6   ar
     6     6     7    1
     7     7     8   ar
     8     8     9   ar
     9     9    10    1
    10    10    11    1
    11    11    12    1
    12    12    13   ar
    13    13    14   ar
    14    14    15   ar
    15    15    16   ar
    16    16    17   ar
    17    17    18    1
    18     9    19   ar
    19    19    20   ar
    20    20    21    1
    21    21    22   ar
    22    22    23   ar
    23    23    24   ar
    24    24    25   ar
    25    25    26   ar
    26    26    27   ar
    27    27    28   ar
    28    28    29   ar
    29     6    30   ar
    30    30     2   ar
    31    20     7   ar
    32    29    21   ar
    33    17    12   ar
    34    28    24   ar
    35     1    31    1
    36     1    32    1
    37     1    33    1
    38     3    34    1
    39     4    35    1
    40     5    36    1
    41     8    37    1
    42    10    38    1
    43    10    39    1
    44    11    40    1
    45    13    41    1
    46    14    42    1
    47    15    43    1
    48    16    44    1
    49    22    45    1
    50    23    46    1
    51    26    47    1
    52    29    48    1
