@<TRIPOS>MOLECULE
*****
 37 41 0 0 0
SMALL
GASTEIGER

@<TRIPOS>ATOM
      1 O           1.1287   -1.9313   -0.7642 O.2     1  UNL1       -0.2682
      2 C           1.6419   -0.8696   -0.3843 C.2     1  UNL1        0.2671
      3 C           0.8275    0.3114   -0.1874 C.ar    1  UNL1        0.1538
      4 N           1.3578    1.5606    0.0519 N.ar    1  UNL1       -0.2211
      5 C           0.3863    2.4579    0.2270 C.ar    1  UNL1        0.1556
      6 C           0.4038    3.8245    0.4940 C.ar    1  UNL1       -0.0159
      7 C          -0.7812    4.5170    0.6346 C.ar    1  UNL1       -0.0384
      8 C          -1.9478    3.7831    0.4972 C.ar    1  UNL1        0.0485
      9 N          -1.9076    2.4431    0.2352 N.ar    1  UNL1       -0.1729
     10 N          -0.7511    1.8090    0.1054 N.ar    1  UNL1       -0.2119
     11 C          -0.5218    0.4867   -0.1513 C.ar    1  UNL1        0.1053
     12 C          -1.5397   -0.5350   -0.3843 C.ar    1  UNL1        0.0063
     13 C          -1.5836   -1.3079   -1.5146 C.ar    1  UNL1       -0.0503
     14 C          -2.5635   -2.2963   -1.6660 C.ar    1  UNL1       -0.0320
     15 C          -3.5054   -2.5274   -0.7013 C.ar    1  UNL1        0.1093
     16 N          -4.5372   -3.3794   -0.5725 N.ar    1  UNL1       -0.2161
     17 C          -5.1340   -3.1532    0.6130 C.ar    1  UNL1        0.1831
     18 O          -4.4746   -2.1837    1.1856 O.2     1  UNL1       -0.4424
     19 C          -3.4802   -1.7627    0.4434 C.ar    1  UNL1        0.1557
     20 C          -2.5047   -0.7858    0.5813 C.ar    1  UNL1       -0.0079
     21 N           3.0330   -0.8097   -0.1372 N.am    1  UNL1       -0.2961
     22 C           4.1645   -1.7154   -0.2075 C.3     1  UNL1        0.0164
     23 C           5.0569   -0.5053   -0.4329 C.3     1  UNL1       -0.0213
     24 C           3.9736    0.2203    0.3134 C.3     1  UNL1        0.0164
     25 H           1.3342    4.3616    0.6005 H       1  UNL1        0.0655
     26 H          -0.8233    5.5875    0.8409 H       1  UNL1        0.0634
     27 H          -2.8954    4.3020    0.5998 H       1  UNL1        0.0847
     28 H          -0.8715   -1.1493   -2.3111 H       1  UNL1        0.0625
     29 H          -2.5733   -2.8909   -2.5732 H       1  UNL1        0.0640
     30 H          -5.9960   -3.7113    0.9606 H       1  UNL1        0.1255
     31 H          -2.4954   -0.1897    1.4995 H       1  UNL1        0.0661
     32 H           4.4327   -2.1656    0.7841 H       1  UNL1        0.0465
     33 H           4.1507   -2.4152   -1.0609 H       1  UNL1        0.0465
     34 H           6.0399   -0.5637    0.1161 H       1  UNL1        0.0296
     35 H           5.1524   -0.1882   -1.4876 H       1  UNL1        0.0296
     36 H           3.7443    1.2545   -0.0262 H       1  UNL1        0.0465
     37 H           4.0593    0.1171    1.4227 H       1  UNL1        0.0465
@<TRIPOS>BOND
     1     1     2    2
     2     2     3    1
     3     3     4   ar
     4     4     5   ar
     5     5     6   ar
     6     6     7   ar
     7     7     8   ar
     8     8     9   ar
     9     9    10   ar
    10    10    11   ar
    11    11    12    1
    12    12    13   ar
    13    13    14   ar
    14    14    15   ar
    15    15    16   ar
    16    16    17   ar
    17    17    18   ar
    18    18    19   ar
    19    19    20   ar
    20     2    21   am
    21    21    22    1
    22    22    23    1
    23    23    24    1
    24    11     3   ar
    25    20    12   ar
    26    24    21    1
    27    10     5   ar
    28    19    15   ar
    29     6    25    1
    30     7    26    1
    31     8    27    1
    32    13    28    1
    33    14    29    1
    34    17    30    1
    35    20    31    1
    36    22    32    1
    37    22    33    1
    38    23    34    1
    39    23    35    1
    40    24    36    1
    41    24    37    1
