
     RDKit          3D

 37 41  0  0  0  0  0  0  0  0999 V2000
    1.1287   -1.9313   -0.7642 O   0  0  0  0  0  0  0  0  0  0  0  0
    1.6419   -0.8696   -0.3843 C   0  0  0  0  0  0  0  0  0  0  0  0
    0.8275    0.3114   -0.1874 C   0  0  0  0  0  0  0  0  0  0  0  0
    1.3578    1.5606    0.0519 N   0  0  0  0  0  0  0  0  0  0  0  0
    0.3863    2.4579    0.2270 C   0  0  0  0  0  0  0  0  0  0  0  0
    0.4038    3.8245    0.4940 C   0  0  0  0  0  0  0  0  0  0  0  0
   -0.7812    4.5170    0.6346 C   0  0  0  0  0  0  0  0  0  0  0  0
   -1.9478    3.7831    0.4972 C   0  0  0  0  0  0  0  0  0  0  0  0
   -1.9076    2.4431    0.2352 N   0  0  0  0  0  0  0  0  0  0  0  0
   -0.7511    1.8090    0.1054 N   0  0  0  0  0  0  0  0  0  0  0  0
   -0.5218    0.4867   -0.1513 C   0  0  0  0  0  0  0  0  0  0  0  0
   -1.5397   -0.5350   -0.3843 C   0  0  0  0  0  0  0  0  0  0  0  0
   -1.5836   -1.3079   -1.5146 C   0  0  0  0  0  0  0  0  0  0  0  0
   -2.5635   -2.2963   -1.6660 C   0  0  0  0  0  0  0  0  0  0  0  0
   -3.5054   -2.5274   -0.7013 C   0  0  0  0  0  0  0  0  0  0  0  0
   -4.5372   -3.3794   -0.5725 N   0  0  0  0  0  0  0  0  0  0  0  0
   -5.1340   -3.1532    0.6130 C   0  0  0  0  0  0  0  0  0  0  0  0
   -4.4746   -2.1837    1.1856 O   0  0  0  0  0  0  0  0  0  0  0  0
   -3.4802   -1.7627    0.4434 C   0  0  0  0  0  0  0  0  0  0  0  0
   -2.5047   -0.7858    0.5813 C   0  0  0  0  0  0  0  0  0  0  0  0
    3.0330   -0.8097   -0.1372 N   0  0  0  0  0  0  0  0  0  0  0  0
    4.1645   -1.7154   -0.2075 C   0  0  0  0  0  0  0  0  0  0  0  0
    5.0569   -0.5053   -0.4329 C   0  0  0  0  0  0  0  0  0  0  0  0
    3.9736    0.2203    0.3134 C   0  0  0  0  0  0  0  0  0  0  0  0
    1.3342    4.3616    0.6005 H   0  0  0  0  0  0  0  0  0  0  0  0
   -0.8233    5.5875    0.8409 H   0  0  0  0  0  0  0  0  0  0  0  0
   -2.8954    4.3020    0.5998 H   0  0  0  0  0  0  0  0  0  0  0  0
   -0.8715   -1.1493   -2.3111 H   0  0  0  0  0  0  0  0  0  0  0  0
   -2.5733   -2.8909   -2.5732 H   0  0  0  0  0  0  0  0  0  0  0  0
   -5.9960   -3.7113    0.9606 H   0  0  0  0  0  0  0  0  0  0  0  0
   -2.4954   -0.1897    1.4995 H   0  0  0  0  0  0  0  0  0  0  0  0
    4.4327   -2.1656    0.7841 H   0  0  0  0  0  0  0  0  0  0  0  0
    4.1507   -2.4152   -1.0609 H   0  0  0  0  0  0  0  0  0  0  0  0
    6.0399   -0.5637    0.1161 H   0  0  0  0  0  0  0  0  0  0  0  0
    5.1524   -0.1882   -1.4876 H   0  0  0  0  0  0  0  0  0  0  0  0
    3.7443    1.2545   -0.0262 H   0  0  0  0  0  0  0  0  0  0  0  0
    4.0593    0.1171    1.4227 H   0  0  0  0  0  0  0  0  0  0  0  0
  1  2  2  0
  2  3  1  0
  3  4  1  0
  4  5  2  0
  5  6  1  0
  6  7  2  0
  7  8  1  0
  8  9  2  0
  9 10  1  0
 10 11  1  0
 11 12  1  0
 12 13  2  0
 13 14  1  0
 14 15  2  0
 15 16  1  0
 16 17  2  0
 17 18  1  0
 18 19  1  0
 19 20  2  0
  2 21  1  0
 21 22  1  0
 22 23  1  0
 23 24  1  0
 11  3  2  0
 20 12  1  0
 24 21  1  0
 10  5  1  0
 19 15  1  0
  6 25  1  0
  7 26  1  0
  8 27  1  0
 13 28  1  0
 14 29  1  0
 17 30  1  0
 20 31  1  0
 22 32  1  0
 22 33  1  0
 23 34  1  0
 23 35  1  0
 24 36  1  0
 24 37  1  0
M  END
$$$$
