
     RDKit          3D

 70 74  0  0  0  0  0  0  0  0999 V2000
   -0.0351    1.6759   -3.2583 C   0  0  0  0  0  0  0  0  0  0  0  0
   -0.1003    0.3442   -2.5552 C   0  0  1  0  0  0  0  0  0  0  0  0
    1.1909    0.0832   -1.8555 C   0  0  0  0  0  0  0  0  0  0  0  0
    2.1144   -0.7858   -2.4377 C   0  0  0  0  0  0  0  0  0  0  0  0
    3.3282   -1.0825   -1.8589 C   0  0  0  0  0  0  0  0  0  0  0  0
    3.6868   -0.5206   -0.6555 C   0  0  0  0  0  0  0  0  0  0  0  0
    4.9914   -0.8622   -0.0481 C   0  0  0  0  0  0  0  0  0  0  0  0
    5.5445   -2.1123   -0.2286 C   0  0  0  0  0  0  0  0  0  0  0  0
    6.7607   -2.4174    0.3340 C   0  0  0  0  0  0  0  0  0  0  0  0
    7.4668   -1.5207    1.0811 N   0  0  0  0  0  0  0  0  0  0  0  0
    8.7267   -1.8804    1.6429 C   0  0  0  0  0  0  0  0  0  0  0  0
    9.0494   -1.3862    3.0165 C   0  0  0  0  0  0  0  0  0  0  0  0
    9.8277   -0.9071    1.8133 C   0  0  0  0  0  0  0  0  0  0  0  0
    6.9012   -0.3166    1.2356 C   0  0  0  0  0  0  0  0  0  0  0  0
    7.4970    0.5625    1.9129 O   0  0  0  0  0  0  0  0  0  0  0  0
    5.6897    0.0484    0.6997 C   0  0  0  0  0  0  0  0  0  0  0  0
    2.7947    0.3381   -0.0640 C   0  0  0  0  0  0  0  0  0  0  0  0
    1.5587    0.6383   -0.6556 C   0  0  0  0  0  0  0  0  0  0  0  0
   -1.2565    0.2967   -1.7300 N   0  0  0  0  0  0  0  0  0  0  0  0
   -1.6266    1.1888   -0.6627 C   0  0  0  0  0  0  0  0  0  0  0  0
   -3.1545    1.3832   -0.7657 C   0  0  0  0  0  0  0  0  0  0  0  0
   -3.9088    0.1496   -0.4499 C   0  0  2  0  0  0  0  0  0  0  0  0
   -5.2280   -0.0052   -1.1468 C   0  0  0  0  0  0  0  0  0  0  0  0
   -6.2840    0.9789   -0.9388 C   0  0  0  0  0  0  0  0  0  0  0  0
   -5.9903    2.4057   -1.3310 C   0  0  0  0  0  0  0  0  0  0  0  0
   -6.9188    0.9306    0.4460 C   0  0  0  0  0  0  0  0  0  0  0  0
   -7.3516    0.5979   -1.8020 O   0  0  0  0  0  0  0  0  0  0  0  0
   -4.0097   -0.1392    1.0018 C   0  0  0  0  0  0  0  0  0  0  0  0
   -4.6223   -1.3011    1.4701 C   0  0  0  0  0  0  0  0  0  0  0  0
   -4.7419   -1.5985    2.8005 C   0  0  0  0  0  0  0  0  0  0  0  0
   -4.2559   -0.7525    3.7457 C   0  0  0  0  0  0  0  0  0  0  0  0
   -3.6391    0.4144    3.3106 C   0  0  0  0  0  0  0  0  0  0  0  0
   -3.5261    0.7018    1.9583 C   0  0  0  0  0  0  0  0  0  0  0  0
   -3.1544   -0.9682   -0.9822 O   0  0  0  0  0  0  0  0  0  0  0  0
   -2.2165   -0.7596   -1.9858 C   0  0  0  0  0  0  0  0  0  0  0  0
   -2.1987   -1.4373   -3.0409 O   0  0  0  0  0  0  0  0  0  0  0  0
   -0.0678    2.5115   -2.5288 H   0  0  0  0  0  0  0  0  0  0  0  0
    0.9645    1.7677   -3.7791 H   0  0  0  0  0  0  0  0  0  0  0  0
   -0.7818    1.7678   -4.0695 H   0  0  0  0  0  0  0  0  0  0  0  0
   -0.1597   -0.4554   -3.3402 H   0  0  0  0  0  0  0  0  0  0  0  0
    1.8619   -1.2423   -3.3856 H   0  0  0  0  0  0  0  0  0  0  0  0
    4.0407   -1.7712   -2.3361 H   0  0  0  0  0  0  0  0  0  0  0  0
    4.9986   -2.8394   -0.8187 H   0  0  0  0  0  0  0  0  0  0  0  0
    7.2085   -3.4022    0.1992 H   0  0  0  0  0  0  0  0  0  0  0  0
    9.0623   -2.9357    1.4116 H   0  0  0  0  0  0  0  0  0  0  0  0
    9.5611   -2.1314    3.6975 H   0  0  0  0  0  0  0  0  0  0  0  0
    8.3951   -0.7280    3.5824 H   0  0  0  0  0  0  0  0  0  0  0  0
   10.8698   -1.2824    1.7785 H   0  0  0  0  0  0  0  0  0  0  0  0
    9.7486    0.1356    1.4603 H   0  0  0  0  0  0  0  0  0  0  0  0
    5.2730    1.0445    0.8567 H   0  0  0  0  0  0  0  0  0  0  0  0
    3.0684    0.7832    0.8809 H   0  0  0  0  0  0  0  0  0  0  0  0
    0.8885    1.3199   -0.1540 H   0  0  0  0  0  0  0  0  0  0  0  0
   -1.3688    0.7189    0.2959 H   0  0  0  0  0  0  0  0  0  0  0  0
   -1.1631    2.1961   -0.7733 H   0  0  0  0  0  0  0  0  0  0  0  0
   -3.3067    1.5774   -1.8736 H   0  0  0  0  0  0  0  0  0  0  0  0
   -3.3544    2.2701   -0.1697 H   0  0  0  0  0  0  0  0  0  0  0  0
   -5.6307   -1.0061   -0.9022 H   0  0  0  0  0  0  0  0  0  0  0  0
   -4.9898   -0.0546   -2.2339 H   0  0  0  0  0  0  0  0  0  0  0  0
   -5.4531    2.4695   -2.2783 H   0  0  0  0  0  0  0  0  0  0  0  0
   -6.9777    2.9383   -1.5474 H   0  0  0  0  0  0  0  0  0  0  0  0
   -5.5813    2.9709   -0.4879 H   0  0  0  0  0  0  0  0  0  0  0  0
   -7.8427    1.5578    0.4793 H   0  0  0  0  0  0  0  0  0  0  0  0
   -6.2121    1.4153    1.1482 H   0  0  0  0  0  0  0  0  0  0  0  0
   -7.2200   -0.0803    0.7262 H   0  0  0  0  0  0  0  0  0  0  0  0
   -7.8150    1.3538   -2.1898 H   0  0  0  0  0  0  0  0  0  0  0  0
   -5.0182   -1.9984    0.7460 H   0  0  0  0  0  0  0  0  0  0  0  0
   -5.2370   -2.5288    3.0736 H   0  0  0  0  0  0  0  0  0  0  0  0
   -4.3667   -1.0166    4.7880 H   0  0  0  0  0  0  0  0  0  0  0  0
   -3.2624    1.0671    4.0844 H   0  0  0  0  0  0  0  0  0  0  0  0
   -3.0420    1.6223    1.6992 H   0  0  0  0  0  0  0  0  0  0  0  0
  1  2  1  0
  2  3  1  0
  3  4  2  0
  4  5  1  0
  5  6  2  0
  6  7  1  0
  7  8  1  0
  8  9  2  0
  9 10  1  0
 10 11  1  0
 11 12  1  0
 12 13  1  0
 10 14  1  0
 14 15  2  0
 14 16  1  0
  6 17  1  0
 17 18  2  0
  2 19  1  0
 19 20  1  0
 20 21  1  0
 21 22  1  0
 22 23  1  6
 23 24  1  0
 24 25  1  0
 24 26  1  0
 24 27  1  0
 22 28  1  0
 28 29  2  0
 29 30  1  0
 30 31  2  0
 31 32  1  0
 32 33  2  0
 22 34  1  0
 34 35  1  0
 35 36  2  0
 18  3  1  0
 35 19  1  0
 16  7  2  0
 33 28  1  0
 13 11  1  0
  1 37  1  0
  1 38  1  0
  1 39  1  0
  2 40  1  6
  4 41  1  0
  5 42  1  0
  8 43  1  0
  9 44  1  0
 11 45  1  0
 12 46  1  0
 12 47  1  0
 13 48  1  0
 13 49  1  0
 16 50  1  0
 17 51  1  0
 18 52  1  0
 20 53  1  0
 20 54  1  0
 21 55  1  0
 21 56  1  0
 23 57  1  0
 23 58  1  0
 25 59  1  0
 25 60  1  0
 25 61  1  0
 26 62  1  0
 26 63  1  0
 26 64  1  0
 27 65  1  0
 29 66  1  0
 30 67  1  0
 31 68  1  0
 32 69  1  0
 33 70  1  0
M  END
$$$$
