@<TRIPOS>MOLECULE
*****
 70 74 0 0 0
SMALL
GASTEIGER

@<TRIPOS>ATOM
      1 C          -0.0351    1.6759   -3.2583 C.3     1  UNL1       -0.0421
      2 C          -0.1003    0.3442   -2.5552 C.3     1  UNL1        0.0515
      3 C           1.1909    0.0832   -1.8555 C.ar    1  UNL1       -0.0271
      4 C           2.1144   -0.7858   -2.4377 C.ar    1  UNL1       -0.0562
      5 C           3.3282   -1.0825   -1.8589 C.ar    1  UNL1       -0.0537
      6 C           3.6868   -0.5206   -0.6555 C.ar    1  UNL1       -0.0177
      7 C           4.9914   -0.8622   -0.0481 C.ar    1  UNL1       -0.0114
      8 C           5.5445   -2.1123   -0.2286 C.ar    1  UNL1       -0.0376
      9 C           6.7607   -2.4174    0.3340 C.ar    1  UNL1        0.0088
     10 N           7.4668   -1.5207    1.0811 N.ar    1  UNL1       -0.3121
     11 C           8.7267   -1.8804    1.6429 C.3     1  UNL1        0.0375
     12 C           9.0494   -1.3862    3.0165 C.3     1  UNL1       -0.0301
     13 C           9.8277   -0.9071    1.8133 C.3     1  UNL1       -0.0301
     14 C           6.9012   -0.3166    1.2356 C.ar    1  UNL1        0.2521
     15 O           7.4970    0.5625    1.9129 O.2     1  UNL1       -0.2677
     16 C           5.6897    0.0484    0.6997 C.ar    1  UNL1        0.0107
     17 C           2.7947    0.3381   -0.0640 C.ar    1  UNL1       -0.0537
     18 C           1.5587    0.6383   -0.6556 C.ar    1  UNL1       -0.0562
     19 N          -1.2565    0.2967   -1.7300 N.am    1  UNL1       -0.2605
     20 C          -1.6266    1.1888   -0.6627 C.3     1  UNL1        0.0224
     21 C          -3.1545    1.3832   -0.7657 C.3     1  UNL1        0.0076
     22 C          -3.9088    0.1496   -0.4499 C.3     1  UNL1        0.1440
     23 C          -5.2280   -0.0052   -1.1468 C.3     1  UNL1        0.0199
     24 C          -6.2840    0.9789   -0.9388 C.3     1  UNL1        0.0645
     25 C          -5.9903    2.4057   -1.3310 C.3     1  UNL1       -0.0362
     26 C          -6.9188    0.9306    0.4460 C.3     1  UNL1       -0.0362
     27 O          -7.3516    0.5979   -1.8020 O.3     1  UNL1       -0.3890
     28 C          -4.0097   -0.1392    1.0018 C.ar    1  UNL1       -0.0040
     29 C          -4.6223   -1.3011    1.4701 C.ar    1  UNL1       -0.0548
     30 C          -4.7419   -1.5985    2.8005 C.ar    1  UNL1       -0.0614
     31 C          -4.2559   -0.7525    3.7457 C.ar    1  UNL1       -0.0617
     32 C          -3.6391    0.4144    3.3106 C.ar    1  UNL1       -0.0614
     33 C          -3.5261    0.7018    1.9583 C.ar    1  UNL1       -0.0548
     34 O          -3.1544   -0.9682   -0.9822 O.3     1  UNL1       -0.4387
     35 C          -2.2165   -0.7596   -1.9858 C.2     1  UNL1        0.4042
     36 O          -2.1987   -1.4373   -3.0409 O.2     1  UNL1       -0.2262
     37 H          -0.0678    2.5115   -2.5288 H       1  UNL1        0.0251
     38 H           0.9645    1.7677   -3.7791 H       1  UNL1        0.0251
     39 H          -0.7818    1.7678   -4.0695 H       1  UNL1        0.0251
     40 H          -0.1597   -0.4554   -3.3402 H       1  UNL1        0.0549
     41 H           1.8619   -1.2423   -3.3856 H       1  UNL1        0.0621
     42 H           4.0407   -1.7712   -2.3361 H       1  UNL1        0.0624
     43 H           4.9986   -2.8394   -0.8187 H       1  UNL1        0.0638
     44 H           7.2085   -3.4022    0.1992 H       1  UNL1        0.0810
     45 H           9.0623   -2.9357    1.4116 H       1  UNL1        0.0529
     46 H           9.5611   -2.1314    3.6975 H       1  UNL1        0.0286
     47 H           8.3951   -0.7280    3.5824 H       1  UNL1        0.0286
     48 H          10.8698   -1.2824    1.7785 H       1  UNL1        0.0286
     49 H           9.7486    0.1356    1.4603 H       1  UNL1        0.0286
     50 H           5.2730    1.0445    0.8567 H       1  UNL1        0.0678
     51 H           3.0684    0.7832    0.8809 H       1  UNL1        0.0624
     52 H           0.8885    1.3199   -0.1540 H       1  UNL1        0.0621
     53 H          -1.3688    0.7189    0.2959 H       1  UNL1        0.0467
     54 H          -1.1631    2.1961   -0.7733 H       1  UNL1        0.0467
     55 H          -3.3067    1.5774   -1.8736 H       1  UNL1        0.0322
     56 H          -3.3544    2.2701   -0.1697 H       1  UNL1        0.0322
     57 H          -5.6307   -1.0061   -0.9022 H       1  UNL1        0.0335
     58 H          -4.9898   -0.0546   -2.2339 H       1  UNL1        0.0335
     59 H          -5.4531    2.4695   -2.2783 H       1  UNL1        0.0257
     60 H          -6.9777    2.9383   -1.5474 H       1  UNL1        0.0257
     61 H          -5.5813    2.9709   -0.4879 H       1  UNL1        0.0257
     62 H          -7.8427    1.5578    0.4793 H       1  UNL1        0.0257
     63 H          -6.2121    1.4153    1.1482 H       1  UNL1        0.0257
     64 H          -7.2200   -0.0803    0.7262 H       1  UNL1        0.0257
     65 H          -7.8150    1.3538   -2.1898 H       1  UNL1        0.2101
     66 H          -5.0182   -1.9984    0.7460 H       1  UNL1        0.0622
     67 H          -5.2370   -2.5288    3.0736 H       1  UNL1        0.0618
     68 H          -4.3667   -1.0166    4.7880 H       1  UNL1        0.0618
     69 H          -3.2624    1.0671    4.0844 H       1  UNL1        0.0618
     70 H          -3.0420    1.6223    1.6992 H       1  UNL1        0.0622
@<TRIPOS>BOND
     1     1     2    1
     2     2     3    1
     3     3     4   ar
     4     4     5   ar
     5     5     6   ar
     6     6     7    1
     7     7     8   ar
     8     8     9   ar
     9     9    10   ar
    10    10    11    1
    11    11    12    1
    12    12    13    1
    13    10    14   ar
    14    14    15    2
    15    14    16   ar
    16     6    17   ar
    17    17    18   ar
    18     2    19    1
    19    19    20    1
    20    20    21    1
    21    21    22    1
    22    22    23    1
    23    23    24    1
    24    24    25    1
    25    24    26    1
    26    24    27    1
    27    22    28    1
    28    28    29   ar
    29    29    30   ar
    30    30    31   ar
    31    31    32   ar
    32    32    33   ar
    33    22    34    1
    34    34    35    1
    35    35    36    2
    36    18     3   ar
    37    35    19   am
    38    16     7   ar
    39    33    28   ar
    40    13    11    1
    41     1    37    1
    42     1    38    1
    43     1    39    1
    44     2    40    1
    45     4    41    1
    46     5    42    1
    47     8    43    1
    48     9    44    1
    49    11    45    1
    50    12    46    1
    51    12    47    1
    52    13    48    1
    53    13    49    1
    54    16    50    1
    55    17    51    1
    56    18    52    1
    57    20    53    1
    58    20    54    1
    59    21    55    1
    60    21    56    1
    61    23    57    1
    62    23    58    1
    63    25    59    1
    64    25    60    1
    65    25    61    1
    66    26    62    1
    67    26    63    1
    68    26    64    1
    69    27    65    1
    70    29    66    1
    71    30    67    1
    72    31    68    1
    73    32    69    1
    74    33    70    1
