@<TRIPOS>MOLECULE
*****
 23 23 0 0 0
SMALL
GASTEIGER

@<TRIPOS>ATOM
      1 N          -4.2582    0.3675   -0.7271 N.pl3   1  UNL1       -0.2889
      2 C          -3.1564   -0.1226    0.0656 C.cat   1  UNL1        0.3810
      3 N          -3.1103   -1.3174    0.5340 N.pl3   1  UNL1       -0.1295
      4 N          -2.0857    0.7508    0.3359 N.pl3   1  UNL1       -0.2438
      5 C          -0.7398    0.3795    0.1815 C.ar    1  UNL1        0.1000
      6 C          -0.2706   -0.7755   -0.3942 C.ar    1  UNL1       -0.0229
      7 C           1.0493   -1.1120   -0.5200 C.ar    1  UNL1       -0.0531
      8 C           2.0176   -0.2507   -0.0444 C.ar    1  UNL1       -0.0220
      9 C           3.4710   -0.5122   -0.1272 C.3     1  UNL1        0.0692
     10 O           3.9702    0.0119   -1.3354 O.3     1  UNL1       -0.3904
     11 C           1.6317    0.9373    0.5507 C.ar    1  UNL1       -0.0531
     12 C           0.2848    1.2083    0.6422 C.ar    1  UNL1       -0.0229
     13 H          -4.6287    1.2472   -0.3447 H       1  UNL1        0.2547
     14 H          -4.9767    0.4584   -1.4516 H       1  UNL1        0.2547
     15 H          -2.3508   -1.6998    1.0977 H       1  UNL1        0.3062
     16 H          -2.2933    1.7432    0.6648 H       1  UNL1        0.2648
     17 H          -0.9646   -1.4769   -0.7876 H       1  UNL1        0.0652
     18 H           1.3664   -2.0508   -0.9899 H       1  UNL1        0.0622
     19 H           4.0406   -0.1248    0.7321 H       1  UNL1        0.0607
     20 H           3.6901   -1.6181   -0.1750 H       1  UNL1        0.0607
     21 H           4.9401    0.1603   -1.2792 H       1  UNL1        0.2098
     22 H           2.3564    1.6412    0.9369 H       1  UNL1        0.0622
     23 H           0.0172    2.1552    1.1180 H       1  UNL1        0.0652
@<TRIPOS>BOND
     1     1     2    1
     2     2     3    2
     3     2     4    1
     4     4     5    1
     5     5     6   ar
     6     6     7   ar
     7     7     8   ar
     8     8     9    1
     9     9    10    1
    10     8    11   ar
    11    11    12   ar
    12    12     5   ar
    13     1    13    1
    14     1    14    1
    15     3    15    1
    16     4    16    1
    17     6    17    1
    18     7    18    1
    19     9    19    1
    20     9    20    1
    21    10    21    1
    22    11    22    1
    23    12    23    1
