@<TRIPOS>MOLECULE
*****
 58 61 0 0 0
SMALL
GASTEIGER

@<TRIPOS>ATOM
      1 O          -2.7535    0.1389    1.0658 O.2     1  UNL1       -0.2741
      2 C          -2.2936    1.1843    0.5612 C.2     1  UNL1        0.2305
      3 C          -3.1228    2.3075    0.0594 C.3     1  UNL1        0.0884
      4 N          -4.5470    1.9930    0.2506 N.am    1  UNL1       -0.3028
      5 C          -5.1151    0.8644   -0.3593 C.2     1  UNL1        0.2445
      6 O          -4.3501    0.1408   -1.0725 O.2     1  UNL1       -0.2702
      7 C          -6.5131    0.4640   -0.2343 C.ar    1  UNL1        0.0372
      8 C          -7.4256    1.1738    0.5114 C.ar    1  UNL1       -0.0496
      9 C          -8.7362    0.7609    0.6029 C.ar    1  UNL1       -0.0605
     10 C          -9.1374   -0.3770   -0.0608 C.ar    1  UNL1       -0.0501
     11 C          -8.2624   -1.1268   -0.8233 C.ar    1  UNL1        0.0555
     12 C          -8.7015   -2.3550   -1.5380 C.3     1  UNL1        0.4174
     13 F          -9.9680   -2.0787   -2.0427 F       1  UNL1       -0.1659
     14 F          -7.8493   -2.6819   -2.5536 F       1  UNL1       -0.1659
     15 F          -8.8339   -3.3581   -0.5938 F       1  UNL1       -0.1659
     16 C          -6.9638   -0.6671   -0.8794 C.ar    1  UNL1       -0.0380
     17 N          -0.8865    1.2898    0.4686 N.am    1  UNL1       -0.3087
     18 C          -0.0079    0.2686    0.9209 C.3     1  UNL1        0.0486
     19 C           1.2237    0.6689    1.6618 C.3     1  UNL1        0.0189
     20 N           2.0182    0.7256    0.4529 N.3     1  UNL1       -0.2958
     21 C           3.2455   -0.0354    0.4871 C.3     1  UNL1        0.0107
     22 C           3.9222    0.1551   -0.8612 C.3     1  UNL1       -0.0344
     23 C           4.9010   -1.0000   -1.0023 C.3     1  UNL1       -0.0164
     24 C           5.8071   -0.9654    0.1941 C.3     1  UNL1        0.1140
     25 O           5.6857   -2.1672    0.8901 O.3     1  UNL1       -0.3819
     26 C           7.2013   -0.9134   -0.3273 C.ar    1  UNL1        0.1098
     27 N           7.6721   -0.8964   -1.5442 N.ar    1  UNL1       -0.2494
     28 C           8.9121   -0.8500   -1.8398 C.ar    1  UNL1        0.0351
     29 C           9.8094   -0.8160   -0.8089 C.ar    1  UNL1       -0.0045
     30 S           8.6804   -0.8576    0.6144 S.2     1  UNL1       -0.0777
     31 C           5.6011    0.2398    1.0582 C.3     1  UNL1       -0.0164
     32 C           4.1941    0.4057    1.5480 C.3     1  UNL1       -0.0344
     33 C           0.9807   -0.0897   -0.1953 C.3     1  UNL1        0.0189
     34 H          -3.0090    2.3968   -1.0596 H       1  UNL1        0.0558
     35 H          -2.8642    3.2769    0.4835 H       1  UNL1        0.0558
     36 H          -5.1309    2.6066    0.8369 H       1  UNL1        0.1495
     37 H          -7.0672    2.0645    1.0184 H       1  UNL1        0.0625
     38 H          -9.4453    1.3368    1.1991 H       1  UNL1        0.0618
     39 H         -10.1634   -0.7036    0.0085 H       1  UNL1        0.0623
     40 H          -6.2526   -1.2337   -1.4698 H       1  UNL1        0.0631
     41 H          -0.4540    2.1632    0.0455 H       1  UNL1        0.1491
     42 H          -0.5359   -0.6085    1.3486 H       1  UNL1        0.0523
     43 H           1.2325    1.6359    2.1641 H       1  UNL1        0.0445
     44 H           1.5884   -0.1653    2.2963 H       1  UNL1        0.0445
     45 H           2.9802   -1.0910    0.6589 H       1  UNL1        0.0462
     46 H           4.4948    1.1071   -0.8684 H       1  UNL1        0.0281
     47 H           3.1282    0.1321   -1.6215 H       1  UNL1        0.0281
     48 H           4.2757   -1.9376   -1.0209 H       1  UNL1        0.0297
     49 H           5.4398   -0.9772   -1.9675 H       1  UNL1        0.0297
     50 H           4.9366   -2.1800    1.5236 H       1  UNL1        0.2107
     51 H           9.2743   -0.8370   -2.9041 H       1  UNL1        0.0835
     52 H          10.9343   -0.7738   -0.7428 H       1  UNL1        0.0709
     53 H           6.2476    0.1110    1.9606 H       1  UNL1        0.0297
     54 H           5.9972    1.1278    0.5309 H       1  UNL1        0.0297
     55 H           4.0277   -0.1597    2.5097 H       1  UNL1        0.0281
     56 H           4.0536    1.4757    1.8215 H       1  UNL1        0.0281
     57 H           1.1798   -1.1666   -0.1959 H       1  UNL1        0.0445
     58 H           0.7449    0.3512   -1.1663 H       1  UNL1        0.0445
@<TRIPOS>BOND
     1     1     2    2
     2     2     3    1
     3     3     4    1
     4     4     5   am
     5     5     6    2
     6     5     7    1
     7     7     8   ar
     8     8     9   ar
     9     9    10   ar
    10    10    11   ar
    11    11    12    1
    12    12    13    1
    13    12    14    1
    14    12    15    1
    15    11    16   ar
    16     2    17   am
    17    17    18    1
    18    18    19    1
    19    19    20    1
    20    20    21    1
    21    21    22    1
    22    22    23    1
    23    23    24    1
    24    24    25    1
    25    24    26    1
    26    26    27   ar
    27    27    28   ar
    28    28    29   ar
    29    29    30   ar
    30    24    31    1
    31    31    32    1
    32    20    33    1
    33    16     7   ar
    34    33    18    1
    35    32    21    1
    36    30    26   ar
    37     3    34    1
    38     3    35    1
    39     4    36    1
    40     8    37    1
    41     9    38    1
    42    10    39    1
    43    16    40    1
    44    17    41    1
    45    18    42    1
    46    19    43    1
    47    19    44    1
    48    21    45    1
    49    22    46    1
    50    22    47    1
    51    23    48    1
    52    23    49    1
    53    25    50    1
    54    28    51    1
    55    29    52    1
    56    31    53    1
    57    31    54    1
    58    32    55    1
    59    32    56    1
    60    33    57    1
    61    33    58    1
