@<TRIPOS>MOLECULE
*****
 39 42 0 0 0
SMALL
GASTEIGER

@<TRIPOS>ATOM
      1 N          -4.5002    2.2348   -2.1961 N.pl3   1  UNL1       -0.3289
      2 C          -4.0955    1.5537   -1.0149 C.ar    1  UNL1        0.1952
      3 N          -4.9186    1.5713    0.0477 N.ar    1  UNL1       -0.1756
      4 C          -4.6225    0.9562    1.2079 C.ar    1  UNL1        0.3021
      5 O          -5.4086    0.9832    2.1969 O.2     1  UNL1       -0.2633
      6 C          -3.4233    0.2754    1.3195 C.ar    1  UNL1        0.1721
      7 C          -2.5895    0.2642    0.2261 C.ar    1  UNL1        0.1483
      8 N          -2.9114    0.8889   -0.9236 N.ar    1  UNL1       -0.3122
      9 N          -1.5034   -0.4496    0.5733 N.ar    1  UNL1       -0.2869
     10 C          -1.6144   -0.8941    1.8488 C.ar    1  UNL1        0.1004
     11 N          -2.8158   -0.4314    2.2929 N.ar    1  UNL1       -0.2286
     12 C          -0.3248   -0.7650   -0.2131 C.3     1  UNL1        0.1670
     13 O           0.0643   -2.0762   -0.0379 O.3     1  UNL1       -0.3456
     14 C           1.4394   -2.1198   -0.0327 C.3     1  UNL1        0.1130
     15 C           1.9863   -3.3211    0.6975 C.3     1  UNL1        0.0730
     16 O           1.5672   -4.5186    0.1387 O.3     1  UNL1       -0.3924
     17 C           1.7757   -0.8867    0.8074 C.3     1  UNL1        0.1209
     18 O           3.0136   -0.3729    0.5392 O.3     1  UNL1       -0.3329
     19 C           2.9249    0.4368   -0.5906 C.3     1  UNL1        0.2639
     20 O           1.5889    0.5085   -0.9411 O.3     1  UNL1       -0.3311
     21 C           0.8366    0.1103    0.1580 C.3     1  UNL1        0.1359
     22 P           3.5185    2.1104   -0.2370 P.3     1  UNL1        0.3832
     23 O           2.3205    3.2598   -0.5374 O.3     1  UNL1       -0.3207
     24 O           4.8981    2.3701   -1.1889 O.3     1  UNL1       -0.3207
     25 O           3.8839    2.2239    1.2236 O.2     1  UNL1       -0.2535
     26 H          -5.0444    3.1391   -2.0857 H       1  UNL1        0.1451
     27 H          -4.3541    1.9988   -3.2001 H       1  UNL1        0.1451
     28 H          -2.2732    0.8711   -1.7372 H       1  UNL1        0.1700
     29 H          -0.9254   -1.4924    2.4379 H       1  UNL1        0.1030
     30 H          -0.5578   -0.6351   -1.3007 H       1  UNL1        0.0866
     31 H           1.9153   -2.0058   -1.0151 H       1  UNL1        0.0647
     32 H           3.0867   -3.3034    0.6502 H       1  UNL1        0.0584
     33 H           1.7312   -3.2946    1.7757 H       1  UNL1        0.0584
     34 H           1.5130   -5.1807    0.8753 H       1  UNL1        0.2095
     35 H           1.5572   -1.0471    1.8737 H       1  UNL1        0.0651
     36 H           3.5511   -0.0834   -1.3689 H       1  UNL1        0.1045
     37 H           0.5714    0.9436    0.8308 H       1  UNL1        0.0669
     38 H           2.4705    3.6210   -1.4381 H       1  UNL1        0.2199
     39 H           5.6686    2.5571   -0.6001 H       1  UNL1        0.2199
@<TRIPOS>BOND
     1     1     2    1
     2     2     3   ar
     3     3     4   ar
     4     4     5    2
     5     4     6   ar
     6     6     7   ar
     7     7     8   ar
     8     7     9   ar
     9     9    10   ar
    10    10    11   ar
    11     9    12    1
    12    12    13    1
    13    13    14    1
    14    14    15    1
    15    15    16    1
    16    14    17    1
    17    17    18    1
    18    18    19    1
    19    19    20    1
    20    20    21    1
    21    19    22    1
    22    22    23    1
    23    22    24    1
    24    22    25    2
    25     8     2   ar
    26    21    12    1
    27    11     6   ar
    28    21    17    1
    29     1    26    1
    30     1    27    1
    31     8    28    1
    32    10    29    1
    33    12    30    1
    34    14    31    1
    35    15    32    1
    36    15    33    1
    37    16    34    1
    38    17    35    1
    39    19    36    1
    40    21    37    1
    41    23    38    1
    42    24    39    1
