@<TRIPOS>MOLECULE
*****
 50 52 0 0 0
SMALL
GASTEIGER

@<TRIPOS>ATOM
      1 C           2.3083    3.7416    1.4543 C.3     1  UNL1       -0.0470
      2 C           2.2881    3.2465    0.0212 C.3     1  UNL1        0.0225
      3 N           1.1230    2.3798   -0.0745 N.ar    1  UNL1       -0.3223
      4 C          -0.1657    2.7342   -0.3651 C.ar    1  UNL1        0.1672
      5 C          -0.5267    4.1135   -0.6761 C.ar    1  UNL1        0.1904
      6 N           0.1799    5.2109   -0.6957 N.ar    1  UNL1       -0.0438
      7 O          -0.5412    6.2179   -1.0298 O.2     1  UNL1       -0.2402
      8 N          -1.7800    5.8080   -1.2464 N.ar    1  UNL1       -0.0335
      9 C          -1.8362    4.5012   -1.0418 C.ar    1  UNL1        0.1909
     10 N          -2.9213    3.6144   -1.1455 N.pl3   1  UNL1       -0.3386
     11 N          -0.8972    1.6372   -0.3337 N.ar    1  UNL1       -0.2229
     12 C          -0.1346    0.5829   -0.0377 C.ar    1  UNL1        0.1234
     13 C          -0.4059   -0.7586    0.0997 C.ar    1  UNL1        0.1411
     14 C          -1.7688   -1.2708    0.0244 C.1     1  UNL1       -0.0414
     15 C          -2.9246   -1.7276   -0.0344 C.1     1  UNL1       -0.0614
     16 C          -4.2890   -2.2520   -0.0821 C.3     1  UNL1        0.1212
     17 C          -5.2813   -1.2410    0.5011 C.3     1  UNL1       -0.0249
     18 C          -4.6672   -2.5019   -1.4993 C.3     1  UNL1       -0.0249
     19 O          -4.3862   -3.3849    0.7441 O.3     1  UNL1       -0.3771
     20 N           0.5947   -1.5944    0.3836 N.ar    1  UNL1       -0.2410
     21 C           1.8880   -1.1970    0.5545 C.ar    1  UNL1        0.0448
     22 C           2.9670   -2.1673    0.8270 C.3     1  UNL1       -0.0092
     23 C           3.6390   -2.6360   -0.4485 C.3     1  UNL1       -0.0352
     24 C           4.6520   -3.7022   -0.1138 C.3     1  UNL1       -0.0066
     25 N           4.0123   -4.8648    0.4904 N.3     1  UNL1       -0.3300
     26 C           2.1398    0.1345    0.4230 C.ar    1  UNL1       -0.0146
     27 C           1.1640    1.0933    0.1239 C.ar    1  UNL1        0.0736
     28 H           2.9751    4.5983    1.5869 H       1  UNL1        0.0247
     29 H           2.6488    2.9004    2.0675 H       1  UNL1        0.0247
     30 H           1.2645    4.0458    1.7589 H       1  UNL1        0.0247
     31 H           2.1969    4.0626   -0.6979 H       1  UNL1        0.0490
     32 H           3.2057    2.6731   -0.2061 H       1  UNL1        0.0490
     33 H          -3.8039    3.8567   -0.6081 H       1  UNL1        0.1439
     34 H          -2.9662    2.7307   -1.6906 H       1  UNL1        0.1439
     35 H          -5.4294   -1.4348    1.5941 H       1  UNL1        0.0267
     36 H          -4.9330   -0.2030    0.4207 H       1  UNL1        0.0267
     37 H          -6.2672   -1.3002   -0.0049 H       1  UNL1        0.0267
     38 H          -3.7913   -2.3560   -2.1626 H       1  UNL1        0.0267
     39 H          -5.4289   -1.7716   -1.7997 H       1  UNL1        0.0267
     40 H          -5.0377   -3.5582   -1.5416 H       1  UNL1        0.0267
     41 H          -4.6643   -3.1055    1.6732 H       1  UNL1        0.2114
     42 H           3.7923   -1.7445    1.4524 H       1  UNL1        0.0329
     43 H           2.5766   -3.0470    1.3688 H       1  UNL1        0.0329
     44 H           4.2241   -1.8023   -0.9154 H       1  UNL1        0.0281
     45 H           2.8986   -3.0005   -1.1670 H       1  UNL1        0.0281
     46 H           5.2113   -4.0471   -0.9819 H       1  UNL1        0.0422
     47 H           5.3879   -3.3278    0.6399 H       1  UNL1        0.0422
     48 H           4.6270   -5.6985    0.3583 H       1  UNL1        0.1182
     49 H           3.7399   -4.7114    1.4807 H       1  UNL1        0.1182
     50 H           3.1429    0.5237    0.5515 H       1  UNL1        0.0657
@<TRIPOS>BOND
     1     1     2    1
     2     2     3    1
     3     3     4   ar
     4     4     5    1
     5     5     6   ar
     6     6     7   ar
     7     7     8   ar
     8     8     9   ar
     9     9    10    1
    10     4    11   ar
    11    11    12   ar
    12    12    13   ar
    13    13    14    1
    14    14    15    3
    15    15    16    1
    16    16    17    1
    17    16    18    1
    18    16    19    1
    19    13    20   ar
    20    20    21   ar
    21    21    22    1
    22    22    23    1
    23    23    24    1
    24    24    25    1
    25    21    26   ar
    26    26    27   ar
    27    27     3   ar
    28     9     5   ar
    29    27    12   ar
    30     1    28    1
    31     1    29    1
    32     1    30    1
    33     2    31    1
    34     2    32    1
    35    10    33    1
    36    10    34    1
    37    17    35    1
    38    17    36    1
    39    17    37    1
    40    18    38    1
    41    18    39    1
    42    18    40    1
    43    19    41    1
    44    22    42    1
    45    22    43    1
    46    23    44    1
    47    23    45    1
    48    24    46    1
    49    24    47    1
    50    25    48    1
    51    25    49    1
    52    26    50    1
