
     RDKit          3D

 50 52  0  0  0  0  0  0  0  0999 V2000
    2.3083    3.7416    1.4543 C   0  0  0  0  0  0  0  0  0  0  0  0
    2.2881    3.2465    0.0212 C   0  0  0  0  0  0  0  0  0  0  0  0
    1.1230    2.3798   -0.0745 N   0  0  0  0  0  0  0  0  0  0  0  0
   -0.1657    2.7342   -0.3651 C   0  0  0  0  0  0  0  0  0  0  0  0
   -0.5267    4.1135   -0.6761 C   0  0  0  0  0  0  0  0  0  0  0  0
    0.1799    5.2109   -0.6957 N   0  0  0  0  0  0  0  0  0  0  0  0
   -0.5412    6.2179   -1.0298 O   0  0  0  0  0  0  0  0  0  0  0  0
   -1.7800    5.8080   -1.2464 N   0  0  0  0  0  0  0  0  0  0  0  0
   -1.8362    4.5012   -1.0418 C   0  0  0  0  0  0  0  0  0  0  0  0
   -2.9213    3.6144   -1.1455 N   0  0  0  0  0  0  0  0  0  0  0  0
   -0.8972    1.6372   -0.3337 N   0  0  0  0  0  0  0  0  0  0  0  0
   -0.1346    0.5829   -0.0377 C   0  0  0  0  0  0  0  0  0  0  0  0
   -0.4059   -0.7586    0.0997 C   0  0  0  0  0  0  0  0  0  0  0  0
   -1.7688   -1.2708    0.0244 C   0  0  0  0  0  0  0  0  0  0  0  0
   -2.9246   -1.7276   -0.0344 C   0  0  0  0  0  0  0  0  0  0  0  0
   -4.2890   -2.2520   -0.0821 C   0  0  0  0  0  0  0  0  0  0  0  0
   -5.2813   -1.2410    0.5011 C   0  0  0  0  0  0  0  0  0  0  0  0
   -4.6672   -2.5019   -1.4993 C   0  0  0  0  0  0  0  0  0  0  0  0
   -4.3862   -3.3849    0.7441 O   0  0  0  0  0  0  0  0  0  0  0  0
    0.5947   -1.5944    0.3836 N   0  0  0  0  0  0  0  0  0  0  0  0
    1.8880   -1.1970    0.5545 C   0  0  0  0  0  0  0  0  0  0  0  0
    2.9670   -2.1673    0.8270 C   0  0  0  0  0  0  0  0  0  0  0  0
    3.6390   -2.6360   -0.4485 C   0  0  0  0  0  0  0  0  0  0  0  0
    4.6520   -3.7022   -0.1138 C   0  0  0  0  0  0  0  0  0  0  0  0
    4.0123   -4.8648    0.4904 N   0  0  0  0  0  0  0  0  0  0  0  0
    2.1398    0.1345    0.4230 C   0  0  0  0  0  0  0  0  0  0  0  0
    1.1640    1.0933    0.1239 C   0  0  0  0  0  0  0  0  0  0  0  0
    2.9751    4.5983    1.5869 H   0  0  0  0  0  0  0  0  0  0  0  0
    2.6488    2.9004    2.0675 H   0  0  0  0  0  0  0  0  0  0  0  0
    1.2645    4.0458    1.7589 H   0  0  0  0  0  0  0  0  0  0  0  0
    2.1969    4.0626   -0.6979 H   0  0  0  0  0  0  0  0  0  0  0  0
    3.2057    2.6731   -0.2061 H   0  0  0  0  0  0  0  0  0  0  0  0
   -3.8039    3.8567   -0.6081 H   0  0  0  0  0  0  0  0  0  0  0  0
   -2.9662    2.7307   -1.6906 H   0  0  0  0  0  0  0  0  0  0  0  0
   -5.4294   -1.4348    1.5941 H   0  0  0  0  0  0  0  0  0  0  0  0
   -4.9330   -0.2030    0.4207 H   0  0  0  0  0  0  0  0  0  0  0  0
   -6.2672   -1.3002   -0.0049 H   0  0  0  0  0  0  0  0  0  0  0  0
   -3.7913   -2.3560   -2.1626 H   0  0  0  0  0  0  0  0  0  0  0  0
   -5.4289   -1.7716   -1.7997 H   0  0  0  0  0  0  0  0  0  0  0  0
   -5.0377   -3.5582   -1.5416 H   0  0  0  0  0  0  0  0  0  0  0  0
   -4.6643   -3.1055    1.6732 H   0  0  0  0  0  0  0  0  0  0  0  0
    3.7923   -1.7445    1.4524 H   0  0  0  0  0  0  0  0  0  0  0  0
    2.5766   -3.0470    1.3688 H   0  0  0  0  0  0  0  0  0  0  0  0
    4.2241   -1.8023   -0.9154 H   0  0  0  0  0  0  0  0  0  0  0  0
    2.8986   -3.0005   -1.1670 H   0  0  0  0  0  0  0  0  0  0  0  0
    5.2113   -4.0471   -0.9819 H   0  0  0  0  0  0  0  0  0  0  0  0
    5.3879   -3.3278    0.6399 H   0  0  0  0  0  0  0  0  0  0  0  0
    4.6270   -5.6985    0.3583 H   0  0  0  0  0  0  0  0  0  0  0  0
    3.7399   -4.7114    1.4807 H   0  0  0  0  0  0  0  0  0  0  0  0
    3.1429    0.5237    0.5515 H   0  0  0  0  0  0  0  0  0  0  0  0
  1  2  1  0
  2  3  1  0
  3  4  1  0
  4  5  1  0
  5  6  2  0
  6  7  1  0
  7  8  1  0
  8  9  2  0
  9 10  1  0
  4 11  2  0
 11 12  1  0
 12 13  2  0
 13 14  1  0
 14 15  3  0
 15 16  1  0
 16 17  1  0
 16 18  1  0
 16 19  1  0
 13 20  1  0
 20 21  2  0
 21 22  1  0
 22 23  1  0
 23 24  1  0
 24 25  1  0
 21 26  1  0
 26 27  2  0
 27  3  1  0
  9  5  1  0
 27 12  1  0
  1 28  1  0
  1 29  1  0
  1 30  1  0
  2 31  1  0
  2 32  1  0
 10 33  1  0
 10 34  1  0
 17 35  1  0
 17 36  1  0
 17 37  1  0
 18 38  1  0
 18 39  1  0
 18 40  1  0
 19 41  1  0
 22 42  1  0
 22 43  1  0
 23 44  1  0
 23 45  1  0
 24 46  1  0
 24 47  1  0
 25 48  1  0
 25 49  1  0
 26 50  1  0
M  END
$$$$
