
     RDKit          3D

 45 48  0  0  0  0  0  0  0  0999 V2000
    7.4729   -0.7573    1.4091 C   0  0  0  0  0  0  0  0  0  0  0  0
    7.7059   -1.0088   -0.3282 S   0  0  0  0  0  6  0  0  0  0  0  0
    9.1832   -0.8028   -0.6016 O   0  0  0  0  0  0  0  0  0  0  0  0
    7.3406   -2.4138   -0.7240 O   0  0  0  0  0  0  0  0  0  0  0  0
    6.8282    0.1541   -1.2192 N   0  0  0  0  0  0  0  0  0  0  0  0
    5.4133    0.2308   -1.1147 C   0  0  0  0  0  0  0  0  0  0  0  0
    4.6802   -0.9326   -1.0988 C   0  0  0  0  0  0  0  0  0  0  0  0
    3.2915   -0.8538   -0.9800 C   0  0  0  0  0  0  0  0  0  0  0  0
    2.6989    0.4069   -0.8830 C   0  0  0  0  0  0  0  0  0  0  0  0
    1.2589    0.4524   -0.7589 C   0  0  0  0  0  0  0  0  0  0  0  0
    0.4713    1.2310   -1.5718 C   0  0  0  0  0  0  0  0  0  0  0  0
   -0.8452    1.2176   -1.4381 O   0  0  0  0  0  0  0  0  0  0  0  0
   -1.4700    0.4814   -0.5462 C   0  0  0  0  0  0  0  0  0  0  0  0
   -2.8521    0.4886   -0.4325 C   0  0  0  0  0  0  0  0  0  0  0  0
   -3.5155   -0.2739    0.4926 C   0  0  0  0  0  0  0  0  0  0  0  0
   -4.9395   -0.3019    0.5646 C   0  0  0  0  0  0  0  0  0  0  0  0
   -6.1757   -0.3453    0.6172 C   0  0  0  0  0  0  0  0  0  0  0  0
   -7.6030   -0.4174    0.6659 C   0  0  0  0  0  0  0  0  0  0  0  0
   -8.2823   -1.6300    0.4523 C   0  0  0  0  0  0  0  0  0  0  0  0
   -9.6056   -1.7048    0.5109 N   0  0  0  0  0  0  0  0  0  0  0  0
  -10.3584   -0.6351    0.7741 C   0  0  0  0  0  0  0  0  0  0  0  0
   -9.7672    0.5542    0.9868 N   0  0  0  0  0  0  0  0  0  0  0  0
   -8.4227    0.6462    0.9310 C   0  0  0  0  0  0  0  0  0  0  0  0
   -2.7521   -1.0716    1.3363 C   0  0  0  0  0  0  0  0  0  0  0  0
   -1.3815   -1.0952    1.2400 C   0  0  0  0  0  0  0  0  0  0  0  0
   -0.7412   -0.3140    0.2926 C   0  0  0  0  0  0  0  0  0  0  0  0
    0.6394   -0.3280    0.1837 C   0  0  0  0  0  0  0  0  0  0  0  0
    1.2639   -1.0604    0.9617 O   0  0  0  0  0  0  0  0  0  0  0  0
    3.4255    1.5628   -0.8983 C   0  0  0  0  0  0  0  0  0  0  0  0
    4.7887    1.4636   -1.0149 C   0  0  0  0  0  0  0  0  0  0  0  0
    6.5645   -0.1055    1.5427 H   0  0  0  0  0  0  0  0  0  0  0  0
    8.3213   -0.1926    1.8254 H   0  0  0  0  0  0  0  0  0  0  0  0
    7.3615   -1.7424    1.9235 H   0  0  0  0  0  0  0  0  0  0  0  0
    7.3048    0.8289   -1.8543 H   0  0  0  0  0  0  0  0  0  0  0  0
    5.1111   -1.9115   -1.1751 H   0  0  0  0  0  0  0  0  0  0  0  0
    2.6707   -1.7235   -0.9622 H   0  0  0  0  0  0  0  0  0  0  0  0
    0.9786    1.8405   -2.3087 H   0  0  0  0  0  0  0  0  0  0  0  0
   -3.4312    1.1142   -1.0990 H   0  0  0  0  0  0  0  0  0  0  0  0
   -7.6450   -2.4847    0.2354 H   0  0  0  0  0  0  0  0  0  0  0  0
  -11.4531   -0.6966    0.8262 H   0  0  0  0  0  0  0  0  0  0  0  0
   -7.9243    1.6056    1.1034 H   0  0  0  0  0  0  0  0  0  0  0  0
   -3.2019   -1.7039    2.1019 H   0  0  0  0  0  0  0  0  0  0  0  0
   -0.7988   -1.7114    1.8884 H   0  0  0  0  0  0  0  0  0  0  0  0
    2.9820    2.5477   -0.8260 H   0  0  0  0  0  0  0  0  0  0  0  0
    5.4096    2.3670   -1.0303 H   0  0  0  0  0  0  0  0  0  0  0  0
  1  2  1  0
  2  3  2  0
  2  4  2  0
  2  5  1  0
  5  6  1  0
  6  7  2  0
  7  8  1  0
  8  9  2  0
  9 10  1  0
 10 11  2  0
 11 12  1  0
 12 13  1  0
 13 14  2  0
 14 15  1  0
 15 16  1  0
 16 17  3  0
 17 18  1  0
 18 19  2  0
 19 20  1  0
 20 21  2  0
 21 22  1  0
 22 23  2  0
 15 24  2  0
 24 25  1  0
 25 26  2  0
 26 27  1  0
 27 28  2  0
  9 29  1  0
 29 30  2  0
 30  6  1  0
 27 10  1  0
 26 13  1  0
 23 18  1  0
  1 31  1  0
  1 32  1  0
  1 33  1  0
  5 34  1  0
  7 35  1  0
  8 36  1  0
 11 37  1  0
 14 38  1  0
 19 39  1  0
 21 40  1  0
 23 41  1  0
 24 42  1  0
 25 43  1  0
 29 44  1  0
 30 45  1  0
M  END
$$$$
