@<TRIPOS>MOLECULE
*****
 45 48 0 0 0
SMALL
GASTEIGER

@<TRIPOS>ATOM
      1 C           7.4729   -0.7573    1.4091 C.3     1  UNL1        0.0736
      2 S           7.7059   -1.0088   -0.3282 S.O2    1  UNL1        0.0403
      3 O           9.1832   -0.8028   -0.6016 O.2     1  UNL1       -0.1555
      4 O           7.3406   -2.4138   -0.7240 O.2     1  UNL1       -0.1555
      5 N           6.8282    0.1541   -1.2192 N.pl3   1  UNL1       -0.2209
      6 C           5.4133    0.2308   -1.1147 C.ar    1  UNL1        0.0477
      7 C           4.6802   -0.9326   -1.0988 C.ar    1  UNL1       -0.0388
      8 C           3.2915   -0.8538   -0.9800 C.ar    1  UNL1       -0.0520
      9 C           2.6989    0.4069   -0.8830 C.ar    1  UNL1       -0.0112
     10 C           1.2589    0.4524   -0.7589 C.ar    1  UNL1        0.0643
     11 C           0.4713    1.2310   -1.5718 C.ar    1  UNL1        0.1038
     12 O          -0.8452    1.2176   -1.4381 O.2     1  UNL1       -0.4621
     13 C          -1.4700    0.4814   -0.5462 C.ar    1  UNL1        0.1396
     14 C          -2.8521    0.4886   -0.4325 C.ar    1  UNL1       -0.0032
     15 C          -3.5155   -0.2739    0.4926 C.ar    1  UNL1        0.0288
     16 C          -4.9395   -0.3019    0.5646 C.1     1  UNL1       -0.0608
     17 C          -6.1757   -0.3453    0.6172 C.1     1  UNL1       -0.0580
     18 C          -7.6030   -0.4174    0.6659 C.ar    1  UNL1        0.0614
     19 C          -8.2823   -1.6300    0.4523 C.ar    1  UNL1        0.0462
     20 N          -9.6056   -1.7048    0.5109 N.ar    1  UNL1       -0.2425
     21 C         -10.3584   -0.6351    0.7741 C.ar    1  UNL1        0.1159
     22 N          -9.7672    0.5542    0.9868 N.ar    1  UNL1       -0.2425
     23 C          -8.4227    0.6462    0.9310 C.ar    1  UNL1        0.0462
     24 C          -2.7521   -1.0716    1.3363 C.ar    1  UNL1       -0.0454
     25 C          -1.3815   -1.0952    1.2400 C.ar    1  UNL1       -0.0462
     26 C          -0.7412   -0.3140    0.2926 C.ar    1  UNL1        0.0646
     27 C           0.6394   -0.3280    0.1837 C.ar    1  UNL1        0.2001
     28 O           1.2639   -1.0604    0.9617 O.2     1  UNL1       -0.2864
     29 C           3.4255    1.5628   -0.8983 C.ar    1  UNL1       -0.0520
     30 C           4.7887    1.4636   -1.0149 C.ar    1  UNL1       -0.0388
     31 H           6.5645   -0.1055    1.5427 H       1  UNL1        0.0482
     32 H           8.3213   -0.1926    1.8254 H       1  UNL1        0.0482
     33 H           7.3615   -1.7424    1.9235 H       1  UNL1        0.0482
     34 H           7.3048    0.8289   -1.8543 H       1  UNL1        0.1733
     35 H           5.1111   -1.9115   -1.1751 H       1  UNL1        0.0637
     36 H           2.6707   -1.7235   -0.9622 H       1  UNL1        0.0624
     37 H           0.9786    1.8405   -2.3087 H       1  UNL1        0.1037
     38 H          -3.4312    1.1142   -1.0990 H       1  UNL1        0.0667
     39 H          -7.6450   -2.4847    0.2354 H       1  UNL1        0.0843
     40 H         -11.4531   -0.6966    0.8262 H       1  UNL1        0.1047
     41 H          -7.9243    1.6056    1.1034 H       1  UNL1        0.0843
     42 H          -3.2019   -1.7039    2.1019 H       1  UNL1        0.0630
     43 H          -0.7988   -1.7114    1.8884 H       1  UNL1        0.0626
     44 H           2.9820    2.5477   -0.8260 H       1  UNL1        0.0624
     45 H           5.4096    2.3670   -1.0303 H       1  UNL1        0.0637
@<TRIPOS>BOND
     1     1     2    1
     2     2     3    2
     3     2     4    2
     4     2     5    1
     5     5     6    1
     6     6     7   ar
     7     7     8   ar
     8     8     9   ar
     9     9    10    1
    10    10    11   ar
    11    11    12   ar
    12    12    13   ar
    13    13    14   ar
    14    14    15   ar
    15    15    16    1
    16    16    17    3
    17    17    18    1
    18    18    19   ar
    19    19    20   ar
    20    20    21   ar
    21    21    22   ar
    22    22    23   ar
    23    15    24   ar
    24    24    25   ar
    25    25    26   ar
    26    26    27   ar
    27    27    28    2
    28     9    29   ar
    29    29    30   ar
    30    30     6   ar
    31    27    10   ar
    32    26    13   ar
    33    23    18   ar
    34     1    31    1
    35     1    32    1
    36     1    33    1
    37     5    34    1
    38     7    35    1
    39     8    36    1
    40    11    37    1
    41    14    38    1
    42    19    39    1
    43    21    40    1
    44    23    41    1
    45    24    42    1
    46    25    43    1
    47    29    44    1
    48    30    45    1
