@<TRIPOS>MOLECULE
*****
 39 42 0 0 0
SMALL
GASTEIGER

@<TRIPOS>ATOM
      1 C           0.3299   -4.3787    0.2496 C.3     1  UNL1       -0.0470
      2 C           1.1129   -3.0713    0.4506 C.3     1  UNL1        0.0219
      3 N           0.0655   -2.0806    0.9456 N.ar    1  UNL1       -0.3298
      4 C          -0.8899   -2.5667    1.8489 C.ar    1  UNL1        0.0971
      5 N          -1.8131   -1.6519    1.8133 N.ar    1  UNL1       -0.2351
      6 C          -1.6199   -0.6235    0.9967 C.ar    1  UNL1        0.0967
      7 C          -2.3991    0.4630    0.6169 C.ar    1  UNL1        0.0026
      8 C          -3.1174    0.2914   -0.6748 C.ar    1  UNL1       -0.0498
      9 C          -3.8135    1.5054   -0.9448 C.ar    1  UNL1       -0.0258
     10 C          -3.8526    2.5086   -0.2685 C.ar    1  UNL1        0.1234
     11 F          -4.8111    3.5917   -0.5769 F       1  UNL1       -0.2055
     12 C          -3.2364    2.8355    0.9723 C.ar    1  UNL1       -0.0258
     13 C          -2.5013    1.5986    1.3077 C.ar    1  UNL1       -0.0498
     14 C          -0.2996   -1.0013    0.4704 C.ar    1  UNL1        0.0778
     15 C           0.4778    0.0359   -0.2884 C.ar    1  UNL1        0.0173
     16 C           0.1570    0.8909   -0.9741 C.ar    1  UNL1       -0.0477
     17 C           0.6432    1.9731   -1.6484 C.ar    1  UNL1       -0.0181
     18 C           2.0623    1.9329   -1.3384 C.ar    1  UNL1        0.1385
     19 N           2.8985    2.9072   -1.6633 N.ar    1  UNL1       -0.2348
     20 C           4.0673    2.6324   -1.1138 C.ar    1  UNL1        0.0643
     21 C           3.8936    1.3607   -0.3718 C.ar    1  UNL1        0.1438
     22 C           5.0324    0.9353    0.1997 C.1     1  UNL1        0.1192
     23 N           6.1451    0.5302    0.7796 N.1     1  UNL1       -0.1893
     24 N           2.6017    0.9987   -0.5765 N.ar    1  UNL1       -0.2906
     25 C           1.9849   -0.0812    0.0651 C.ar    1  UNL1        0.0216
     26 H          -0.7279   -4.2820    0.1581 H       1  UNL1        0.0247
     27 H           0.7351   -4.8318   -0.7380 H       1  UNL1        0.0247
     28 H           0.6866   -5.1123    1.0483 H       1  UNL1        0.0247
     29 H           1.9411   -3.1698    1.0165 H       1  UNL1        0.0489
     30 H           1.2278   -2.7600   -0.6849 H       1  UNL1        0.0489
     31 H          -0.8146   -3.4688    2.3727 H       1  UNL1        0.1029
     32 H          -3.0099   -0.4854   -1.2363 H       1  UNL1        0.0625
     33 H          -4.3619    1.3825   -1.9308 H       1  UNL1        0.0646
     34 H          -3.2748    3.6760    1.5206 H       1  UNL1        0.0646
     35 H          -2.0878    1.6571    2.3510 H       1  UNL1        0.0625
     36 H          -1.0310    0.8098   -1.3444 H       1  UNL1        0.0626
     37 H           0.2492    2.6378   -2.3110 H       1  UNL1        0.0654
     38 H           4.9427    3.1984   -1.1507 H       1  UNL1        0.0859
     39 H           2.4073   -0.7877    0.6524 H       1  UNL1        0.0820
@<TRIPOS>BOND
     1     1     2    1
     2     2     3    1
     3     3     4   ar
     4     4     5   ar
     5     5     6   ar
     6     6     7    1
     7     7     8   ar
     8     8     9   ar
     9     9    10   ar
    10    10    11    1
    11    10    12   ar
    12    12    13   ar
    13     6    14   ar
    14    14    15    1
    15    15    16   ar
    16    16    17   ar
    17    17    18   ar
    18    18    19   ar
    19    19    20   ar
    20    20    21   ar
    21    21    22    1
    22    22    23    3
    23    21    24   ar
    24    24    25   ar
    25    14     3   ar
    26    25    15   ar
    27    13     7   ar
    28    24    18   ar
    29     1    26    1
    30     1    27    1
    31     1    28    1
    32     2    29    1
    33     2    30    1
    34     4    31    1
    35     8    32    1
    36     9    33    1
    37    12    34    1
    38    13    35    1
    39    16    36    1
    40    17    37    1
    41    20    38    1
    42    25    39    1
