@<TRIPOS>MOLECULE
*****
 59 63 0 0 0
SMALL
GASTEIGER

@<TRIPOS>ATOM
      1 C           8.4601   -0.0754   -0.2019 C.3     1  UNL1       -0.0126
      2 N           7.0889   -0.0829   -0.6064 N.3     1  UNL1       -0.3024
      3 C           6.8930    0.9371   -1.6359 C.3     1  UNL1        0.0144
      4 C           5.4531    0.8554   -2.1565 C.3     1  UNL1        0.0250
      5 N           4.7047   -0.1144   -1.4412 N.pl3   1  UNL1       -0.3274
      6 C           3.4702    0.1548   -0.8267 C.ar    1  UNL1        0.0315
      7 C           3.0198    1.4310   -0.6021 C.ar    1  UNL1       -0.0405
      8 C           1.8015    1.7150    0.0068 C.ar    1  UNL1       -0.0583
      9 C           1.0074    0.6728    0.4036 C.ar    1  UNL1       -0.0404
     10 C           1.4111   -0.6560    0.2019 C.ar    1  UNL1        0.0354
     11 N           0.5425   -1.6918    0.6383 N.pl3   1  UNL1       -0.2823
     12 C          -0.6088   -1.4192    1.4291 C.ar    1  UNL1        0.2396
     13 N          -1.8118   -0.9458    1.0662 N.ar    1  UNL1       -0.1933
     14 C          -2.6361   -0.8458    2.1482 C.ar    1  UNL1        0.1653
     15 C          -3.9449   -0.4168    2.2790 C.ar    1  UNL1        0.0264
     16 C          -4.6592    0.0438    1.0745 C.ar    1  UNL1       -0.0142
     17 C          -5.3901    1.2176    1.0925 C.ar    1  UNL1       -0.0521
     18 C          -6.0672    1.6600   -0.0238 C.ar    1  UNL1       -0.0363
     19 C          -6.0492    0.9517   -1.2177 C.ar    1  UNL1        0.0879
     20 S          -6.9185    1.5316   -2.6290 S.O2    1  UNL1       -0.0059
     21 C          -8.6005    0.8940   -2.5928 C.3     1  UNL1        0.0596
     22 O          -6.2658    0.8987   -3.8301 O.2     1  UNL1       -0.1696
     23 O          -6.9164    3.0158   -2.7074 O.2     1  UNL1       -0.1696
     24 C          -5.3203   -0.2171   -1.2328 C.ar    1  UNL1       -0.0363
     25 C          -4.6330   -0.6678   -0.1026 C.ar    1  UNL1       -0.0521
     26 C          -4.5433   -0.4196    3.5141 C.ar    1  UNL1       -0.0490
     27 C          -3.8087   -0.8559    4.5959 C.ar    1  UNL1       -0.0428
     28 C          -2.5111   -1.2714    4.4130 C.ar    1  UNL1        0.0316
     29 N          -1.9120   -1.2742    3.2106 N.ar    1  UNL1       -0.2179
     30 N          -0.7036   -1.6143    2.7744 N.ar    1  UNL1       -0.1287
     31 C           2.6200   -0.8660   -0.4025 C.ar    1  UNL1       -0.0194
     32 C           5.2682   -1.4686   -1.3233 C.3     1  UNL1        0.0250
     33 C           6.7918   -1.3764   -1.2172 C.3     1  UNL1        0.0144
     34 H           9.1019    0.0442   -1.0902 H       1  UNL1        0.0391
     35 H           8.6556   -1.0733    0.2907 H       1  UNL1        0.0391
     36 H           8.6981    0.7519    0.5127 H       1  UNL1        0.0391
     37 H           7.5855    0.6985   -2.4652 H       1  UNL1        0.0442
     38 H           7.1460    1.9454   -1.2664 H       1  UNL1        0.0442
     39 H           5.0584    1.8755   -2.1349 H       1  UNL1        0.0476
     40 H           5.4870    0.5661   -3.2458 H       1  UNL1        0.0476
     41 H           3.6092    2.2801   -0.8914 H       1  UNL1        0.0636
     42 H           1.5044    2.7473    0.1555 H       1  UNL1        0.0619
     43 H           0.0580    0.8562    0.8789 H       1  UNL1        0.0636
     44 H           0.7137   -2.6891    0.3991 H       1  UNL1        0.1551
     45 H          -5.4065    1.7815    2.0320 H       1  UNL1        0.0624
     46 H          -6.6387    2.5714   -0.0157 H       1  UNL1        0.0637
     47 H          -9.0382    1.3130   -1.6393 H       1  UNL1        0.0468
     48 H          -8.5929   -0.1943   -2.5060 H       1  UNL1        0.0468
     49 H          -9.1994    1.3135   -3.4018 H       1  UNL1        0.0468
     50 H          -5.2994   -0.7786   -2.1653 H       1  UNL1        0.0637
     51 H          -4.0735   -1.5913   -0.1597 H       1  UNL1        0.0624
     52 H          -5.5663   -0.0785    3.5805 H       1  UNL1        0.0625
     53 H          -4.2958   -0.8552    5.5767 H       1  UNL1        0.0633
     54 H          -1.9490   -1.6095    5.2623 H       1  UNL1        0.0831
     55 H           2.9145   -1.8985   -0.5517 H       1  UNL1        0.0655
     56 H           4.9425   -2.0950   -2.1516 H       1  UNL1        0.0476
     57 H           4.9304   -1.9577   -0.3850 H       1  UNL1        0.0476
     58 H           7.1523   -2.1554   -0.5376 H       1  UNL1        0.0442
     59 H           7.2703   -1.4680   -2.2169 H       1  UNL1        0.0442
@<TRIPOS>BOND
     1     1     2    1
     2     2     3    1
     3     3     4    1
     4     4     5    1
     5     5     6    1
     6     6     7   ar
     7     7     8   ar
     8     8     9   ar
     9     9    10   ar
    10    10    11    1
    11    11    12    1
    12    12    13   ar
    13    13    14   ar
    14    14    15   ar
    15    15    16    1
    16    16    17   ar
    17    17    18   ar
    18    18    19   ar
    19    19    20    1
    20    20    21    1
    21    20    22    2
    22    20    23    2
    23    19    24   ar
    24    24    25   ar
    25    15    26   ar
    26    26    27   ar
    27    27    28   ar
    28    28    29   ar
    29    29    30   ar
    30    10    31   ar
    31     5    32    1
    32    32    33    1
    33    33     2    1
    34    31     6   ar
    35    30    12   ar
    36    29    14   ar
    37    25    16   ar
    38     1    34    1
    39     1    35    1
    40     1    36    1
    41     3    37    1
    42     3    38    1
    43     4    39    1
    44     4    40    1
    45     7    41    1
    46     8    42    1
    47     9    43    1
    48    11    44    1
    49    17    45    1
    50    18    46    1
    51    21    47    1
    52    21    48    1
    53    21    49    1
    54    24    50    1
    55    25    51    1
    56    26    52    1
    57    27    53    1
    58    28    54    1
    59    31    55    1
    60    32    56    1
    61    32    57    1
    62    33    58    1
    63    33    59    1
