
     RDKit          3D

 60 62  0  0  0  0  0  0  0  0999 V2000
    2.9865    4.8272    1.3824 O   0  0  0  0  0  0  0  0  0  0  0  0
    3.2807    4.0995    0.2292 C   0  0  0  0  0  0  0  0  0  0  0  0
    4.4808    3.2508    0.4936 C   0  0  0  0  0  0  0  0  0  0  0  0
    4.9178    2.4380   -0.5918 N   0  0  0  0  0  0  0  0  0  0  0  0
    4.0410    1.3567   -0.9562 C   0  0  0  0  0  0  0  0  0  0  0  0
    4.0484    0.3393    0.1609 C   0  0  0  0  0  0  0  0  0  0  0  0
    3.2031   -0.8042   -0.0882 N   0  0  0  0  0  0  0  0  0  0  0  0
    1.7904   -0.7796   -0.0404 C   0  0  0  0  0  0  0  0  0  0  0  0
    1.1735    0.3933    0.3201 C   0  0  0  0  0  0  0  0  0  0  0  0
   -0.1966    0.4919    0.4185 C   0  0  0  0  0  0  0  0  0  0  0  0
   -1.0223   -0.5621    0.1662 C   0  0  0  0  0  0  0  0  0  0  0  0
   -2.4268   -0.3968    0.2943 N   0  0  0  0  0  0  0  0  0  0  0  0
   -2.9557    0.8816    0.6741 C   0  0  0  0  0  0  0  0  0  0  0  0
   -4.4271    0.9770    0.8421 C   0  0  0  0  0  0  0  0  0  0  0  0
   -4.7773    2.3348    1.2201 N   0  0  0  0  0  0  0  0  0  0  0  0
   -4.5660    3.2939    0.1796 C   0  0  0  0  0  0  0  0  0  0  0  0
   -4.9758    4.6661    0.7250 C   0  0  0  0  0  0  0  0  0  0  0  0
   -4.2208    4.9970    1.8261 O   0  0  0  0  0  0  0  0  0  0  0  0
   -0.4153   -1.7447   -0.1965 C   0  0  0  0  0  0  0  0  0  0  0  0
    0.9575   -1.8344   -0.2925 C   0  0  0  0  0  0  0  0  0  0  0  0
    1.5354   -3.1067   -0.6808 C   0  0  0  0  0  0  0  0  0  0  0  0
    2.7543   -3.3279   -0.8061 O   0  0  0  0  0  0  0  0  0  0  0  0
    0.7438   -4.2973   -0.9755 C   0  0  0  0  0  0  0  0  0  0  0  0
   -0.6522   -4.2060   -0.8778 C   0  0  0  0  0  0  0  0  0  0  0  0
   -1.4237   -5.3377   -1.1575 C   0  0  0  0  0  0  0  0  0  0  0  0
   -2.8210   -5.2179   -1.0519 O   0  0  0  0  0  0  0  0  0  0  0  0
   -0.8515   -6.5385   -1.5259 C   0  0  0  0  0  0  0  0  0  0  0  0
    0.5215   -6.6363   -1.6242 C   0  0  0  0  0  0  0  0  0  0  0  0
    1.2884   -5.5251   -1.3500 C   0  0  0  0  0  0  0  0  0  0  0  0
    2.6552   -5.6209   -1.4481 O   0  0  0  0  0  0  0  0  0  0  0  0
   -1.2248   -2.9207   -0.4862 C   0  0  0  0  0  0  0  0  0  0  0  0
   -2.4628   -2.9469   -0.4298 O   0  0  0  0  0  0  0  0  0  0  0  0
    3.8538    4.9837    1.8446 H   0  0  0  0  0  0  0  0  0  0  0  0
    2.3760    3.5193   -0.0239 H   0  0  0  0  0  0  0  0  0  0  0  0
    3.4604    4.8577   -0.5712 H   0  0  0  0  0  0  0  0  0  0  0  0
    5.3313    3.9622    0.7148 H   0  0  0  0  0  0  0  0  0  0  0  0
    4.3210    2.7260    1.4552 H   0  0  0  0  0  0  0  0  0  0  0  0
    5.8642    2.0742   -0.3772 H   0  0  0  0  0  0  0  0  0  0  0  0
    3.0652    1.7228   -1.2529 H   0  0  0  0  0  0  0  0  0  0  0  0
    4.5573    0.8246   -1.8190 H   0  0  0  0  0  0  0  0  0  0  0  0
    3.5956    0.8719    1.0619 H   0  0  0  0  0  0  0  0  0  0  0  0
    5.0844    0.1252    0.4330 H   0  0  0  0  0  0  0  0  0  0  0  0
    3.8798   -1.5603   -0.2912 H   0  0  0  0  0  0  0  0  0  0  0  0
    1.6822    1.3120    0.5634 H   0  0  0  0  0  0  0  0  0  0  0  0
   -0.6644    1.4422    0.7085 H   0  0  0  0  0  0  0  0  0  0  0  0
   -3.2402   -1.0162    0.1729 H   0  0  0  0  0  0  0  0  0  0  0  0
   -2.5382    1.6386   -0.0262 H   0  0  0  0  0  0  0  0  0  0  0  0
   -2.4916    1.1262    1.6607 H   0  0  0  0  0  0  0  0  0  0  0  0
   -5.0194    0.6474   -0.0333 H   0  0  0  0  0  0  0  0  0  0  0  0
   -4.7321    0.3592    1.7341 H   0  0  0  0  0  0  0  0  0  0  0  0
   -4.1595    2.5766    2.0505 H   0  0  0  0  0  0  0  0  0  0  0  0
   -3.5354    3.4051   -0.1682 H   0  0  0  0  0  0  0  0  0  0  0  0
   -5.2995    3.0532   -0.6240 H   0  0  0  0  0  0  0  0  0  0  0  0
   -6.0549    4.5757    0.9899 H   0  0  0  0  0  0  0  0  0  0  0  0
   -4.9326    5.4256   -0.0775 H   0  0  0  0  0  0  0  0  0  0  0  0
   -4.7770    5.0743    2.6326 H   0  0  0  0  0  0  0  0  0  0  0  0
   -3.3514   -5.5910   -1.8360 H   0  0  0  0  0  0  0  0  0  0  0  0
   -1.5137   -7.3720   -1.7259 H   0  0  0  0  0  0  0  0  0  0  0  0
    0.9862   -7.5703   -1.9116 H   0  0  0  0  0  0  0  0  0  0  0  0
    3.2941   -5.7374   -0.6913 H   0  0  0  0  0  0  0  0  0  0  0  0
  1  2  1  0
  2  3  1  0
  3  4  1  0
  4  5  1  0
  5  6  1  0
  6  7  1  0
  7  8  1  0
  8  9  2  0
  9 10  1  0
 10 11  2  0
 11 12  1  0
 12 13  1  0
 13 14  1  0
 14 15  1  0
 15 16  1  0
 16 17  1  0
 17 18  1  0
 11 19  1  0
 19 20  2  0
 20 21  1  0
 21 22  2  0
 21 23  1  0
 23 24  2  0
 24 25  1  0
 25 26  1  0
 25 27  2  0
 27 28  1  0
 28 29  2  0
 29 30  1  0
 24 31  1  0
 31 32  2  0
 20  8  1  0
 29 23  1  0
 31 19  1  0
  1 33  1  0
  2 34  1  0
  2 35  1  0
  3 36  1  0
  3 37  1  0
  4 38  1  0
  5 39  1  0
  5 40  1  0
  6 41  1  0
  6 42  1  0
  7 43  1  0
  9 44  1  0
 10 45  1  0
 12 46  1  0
 13 47  1  0
 13 48  1  0
 14 49  1  0
 14 50  1  0
 15 51  1  0
 16 52  1  0
 16 53  1  0
 17 54  1  0
 17 55  1  0
 18 56  1  0
 26 57  1  0
 27 58  1  0
 28 59  1  0
 30 60  1  0
M  END
$$$$
