@<TRIPOS>MOLECULE
*****
 38 41 0 0 0
SMALL
GASTEIGER

@<TRIPOS>ATOM
      1 C          -1.7757    3.3727    1.2352 C.3     1  UNL1       -0.0376
      2 C          -0.4229    2.8805    0.8533 C.ar    1  UNL1       -0.0231
      3 C           0.6249    3.7701    0.9227 C.ar    1  UNL1       -0.0384
      4 C           1.8586    3.2813    0.5630 C.ar    1  UNL1        0.0419
      5 CL          3.2822    4.3210    0.6087 Cl      1  UNL1       -0.0835
      6 C           2.0061    1.9441    0.1525 C.ar    1  UNL1       -0.0334
      7 C           0.9351    1.0928    0.0981 C.ar    1  UNL1        0.0160
      8 C           1.0401   -0.2229   -0.2986 C.ar    1  UNL1        0.0707
      9 C           2.3000   -0.7948   -0.6870 C.2     1  UNL1        0.3474
     10 O           2.2982   -2.0302   -1.0417 O.2     1  UNL1       -0.2444
     11 O           3.5149   -0.2020   -0.7326 O.3     1  UNL1       -0.3866
     12 C           4.6901   -0.8328   -1.1229 C.ar    1  UNL1        0.3414
     13 N           5.1481   -0.8774   -2.3861 N.ar    1  UNL1       -0.0707
     14 N           6.2870   -1.5566   -2.3899 N.ar    1  UNL1       -0.0200
     15 N           6.5619   -1.9456   -1.1484 N.ar    1  UNL1       -0.0439
     16 N           5.5895   -1.5044   -0.3795 N.ar    1  UNL1       -0.2086
     17 C          -0.1174   -1.0415   -0.3282 C.ar    1  UNL1       -0.0211
     18 C          -1.3170   -0.5239    0.0338 C.ar    1  UNL1        0.0725
     19 C          -2.5146   -1.3530    0.0084 C.ar    1  UNL1        0.0004
     20 C          -3.7068   -0.7329    0.3986 C.ar    1  UNL1       -0.0515
     21 C          -4.8472   -1.4872    0.3845 C.ar    1  UNL1       -0.0471
     22 C          -4.8728   -2.8097    0.0090 C.ar    1  UNL1        0.0179
     23 BR         -6.5043   -3.7853    0.0186 Br      1  UNL1       -0.0503
     24 C          -3.6918   -3.4091   -0.3732 C.ar    1  UNL1       -0.0471
     25 C          -2.5174   -2.6698   -0.3695 C.ar    1  UNL1       -0.0515
     26 N          -1.3821    0.7543    0.4128 N.ar    1  UNL1       -0.2464
     27 C          -0.3204    1.5717    0.4590 C.ar    1  UNL1        0.0754
     28 H          -1.8012    4.4799    1.2654 H       1  UNL1        0.0278
     29 H          -2.4772    2.9932    0.4373 H       1  UNL1        0.0278
     30 H          -2.0608    2.9615    2.2253 H       1  UNL1        0.0278
     31 H           0.5160    4.7979    1.2375 H       1  UNL1        0.0635
     32 H           2.9878    1.6000   -0.1210 H       1  UNL1        0.0639
     33 H           5.5133   -1.6466    0.6559 H       1  UNL1        0.1954
     34 H           0.0143   -2.0716   -0.6476 H       1  UNL1        0.0647
     35 H          -3.7180    0.3001    0.6974 H       1  UNL1        0.0624
     36 H          -5.7682   -0.9903    0.6910 H       1  UNL1        0.0629
     37 H          -3.7247   -4.4519   -0.6670 H       1  UNL1        0.0629
     38 H          -1.6276   -3.1818   -0.6748 H       1  UNL1        0.0624
@<TRIPOS>BOND
     1     1     2    1
     2     2     3   ar
     3     3     4   ar
     4     4     5    1
     5     4     6   ar
     6     6     7   ar
     7     7     8   ar
     8     8     9    1
     9     9    10    2
    10     9    11    1
    11    11    12    1
    12    12    13   ar
    13    13    14   ar
    14    14    15   ar
    15    15    16   ar
    16     8    17   ar
    17    17    18   ar
    18    18    19    1
    19    19    20   ar
    20    20    21   ar
    21    21    22   ar
    22    22    23    1
    23    22    24   ar
    24    24    25   ar
    25    18    26   ar
    26    26    27   ar
    27    27     2   ar
    28    27     7   ar
    29    16    12   ar
    30    25    19   ar
    31     1    28    1
    32     1    29    1
    33     1    30    1
    34     3    31    1
    35     6    32    1
    36    16    33    1
    37    17    34    1
    38    20    35    1
    39    21    36    1
    40    24    37    1
    41    25    38    1
