
     RDKit          3D

 38 41  0  0  0  0  0  0  0  0999 V2000
   -1.7757    3.3727    1.2352 C   0  0  0  0  0  0  0  0  0  0  0  0
   -0.4229    2.8805    0.8533 C   0  0  0  0  0  0  0  0  0  0  0  0
    0.6249    3.7701    0.9227 C   0  0  0  0  0  0  0  0  0  0  0  0
    1.8586    3.2813    0.5630 C   0  0  0  0  0  0  0  0  0  0  0  0
    3.2822    4.3210    0.6087 Cl  0  0  0  0  0  0  0  0  0  0  0  0
    2.0061    1.9441    0.1525 C   0  0  0  0  0  0  0  0  0  0  0  0
    0.9351    1.0928    0.0981 C   0  0  0  0  0  0  0  0  0  0  0  0
    1.0401   -0.2229   -0.2986 C   0  0  0  0  0  0  0  0  0  0  0  0
    2.3000   -0.7948   -0.6870 C   0  0  0  0  0  0  0  0  0  0  0  0
    2.2982   -2.0302   -1.0417 O   0  0  0  0  0  0  0  0  0  0  0  0
    3.5149   -0.2020   -0.7326 O   0  0  0  0  0  0  0  0  0  0  0  0
    4.6901   -0.8328   -1.1229 C   0  0  0  0  0  0  0  0  0  0  0  0
    5.1481   -0.8774   -2.3861 N   0  0  0  0  0  0  0  0  0  0  0  0
    6.2870   -1.5566   -2.3899 N   0  0  0  0  0  0  0  0  0  0  0  0
    6.5619   -1.9456   -1.1484 N   0  0  0  0  0  0  0  0  0  0  0  0
    5.5895   -1.5044   -0.3795 N   0  0  0  0  0  0  0  0  0  0  0  0
   -0.1174   -1.0415   -0.3282 C   0  0  0  0  0  0  0  0  0  0  0  0
   -1.3170   -0.5239    0.0338 C   0  0  0  0  0  0  0  0  0  0  0  0
   -2.5146   -1.3530    0.0084 C   0  0  0  0  0  0  0  0  0  0  0  0
   -3.7068   -0.7329    0.3986 C   0  0  0  0  0  0  0  0  0  0  0  0
   -4.8472   -1.4872    0.3845 C   0  0  0  0  0  0  0  0  0  0  0  0
   -4.8728   -2.8097    0.0090 C   0  0  0  0  0  0  0  0  0  0  0  0
   -6.5043   -3.7853    0.0186 Br  0  0  0  0  0  0  0  0  0  0  0  0
   -3.6918   -3.4091   -0.3732 C   0  0  0  0  0  0  0  0  0  0  0  0
   -2.5174   -2.6698   -0.3695 C   0  0  0  0  0  0  0  0  0  0  0  0
   -1.3821    0.7543    0.4128 N   0  0  0  0  0  0  0  0  0  0  0  0
   -0.3204    1.5717    0.4590 C   0  0  0  0  0  0  0  0  0  0  0  0
   -1.8012    4.4799    1.2654 H   0  0  0  0  0  0  0  0  0  0  0  0
   -2.4772    2.9932    0.4373 H   0  0  0  0  0  0  0  0  0  0  0  0
   -2.0608    2.9615    2.2253 H   0  0  0  0  0  0  0  0  0  0  0  0
    0.5160    4.7979    1.2375 H   0  0  0  0  0  0  0  0  0  0  0  0
    2.9878    1.6000   -0.1210 H   0  0  0  0  0  0  0  0  0  0  0  0
    5.5133   -1.6466    0.6559 H   0  0  0  0  0  0  0  0  0  0  0  0
    0.0143   -2.0716   -0.6476 H   0  0  0  0  0  0  0  0  0  0  0  0
   -3.7180    0.3001    0.6974 H   0  0  0  0  0  0  0  0  0  0  0  0
   -5.7682   -0.9903    0.6910 H   0  0  0  0  0  0  0  0  0  0  0  0
   -3.7247   -4.4519   -0.6670 H   0  0  0  0  0  0  0  0  0  0  0  0
   -1.6276   -3.1818   -0.6748 H   0  0  0  0  0  0  0  0  0  0  0  0
  1  2  1  0
  2  3  2  0
  3  4  1  0
  4  5  1  0
  4  6  2  0
  6  7  1  0
  7  8  2  0
  8  9  1  0
  9 10  2  0
  9 11  1  0
 11 12  1  0
 12 13  2  0
 13 14  1  0
 14 15  2  0
 15 16  1  0
  8 17  1  0
 17 18  2  0
 18 19  1  0
 19 20  2  0
 20 21  1  0
 21 22  2  0
 22 23  1  0
 22 24  1  0
 24 25  2  0
 18 26  1  0
 26 27  2  0
 27  2  1  0
 27  7  1  0
 16 12  1  0
 25 19  1  0
  1 28  1  0
  1 29  1  0
  1 30  1  0
  3 31  1  0
  6 32  1  0
 16 33  1  0
 17 34  1  0
 20 35  1  0
 21 36  1  0
 24 37  1  0
 25 38  1  0
M  END
$$$$
