@<TRIPOS>MOLECULE
*****
 47 50 0 0 0
SMALL
GASTEIGER

@<TRIPOS>ATOM
      1 O          -2.8817   -1.5752   -0.2929 O.2     1  UNL1       -0.2755
      2 C          -2.4435   -0.5113   -0.8355 C.2     1  UNL1        0.2176
      3 C          -1.0044   -0.3126   -1.0752 C.3     1  UNL1        0.0297
      4 C          -0.2630   -1.5641   -0.6222 C.3     1  UNL1       -0.0024
      5 C           1.1927   -1.4291   -0.8235 C.ar    1  UNL1        0.0403
      6 N           1.9050   -1.9888   -1.8097 N.ar    1  UNL1       -0.2807
      7 N           3.1805   -1.6544   -1.6858 N.ar    1  UNL1       -0.1734
      8 C           3.3177   -0.8781   -0.6244 C.ar    1  UNL1        0.0962
      9 C           2.0817   -0.7113   -0.0528 C.ar    1  UNL1        0.0012
     10 C           1.9033    0.1264    1.1244 C.3     1  UNL1       -0.0199
     11 C           3.1072    0.5781    1.8148 C.3     1  UNL1       -0.0228
     12 C           4.3985    0.4589    1.1167 C.ar    1  UNL1       -0.0344
     13 C           5.5340    1.0848    1.6804 C.ar    1  UNL1       -0.0164
     14 C           6.7563    0.9493    1.0695 C.ar    1  UNL1        0.1172
     15 O           7.8954    1.5565    1.6043 O.3     1  UNL1       -0.5068
     16 C           6.8767    0.2080   -0.0862 C.ar    1  UNL1       -0.0195
     17 C           5.7557   -0.3981   -0.6263 C.ar    1  UNL1       -0.0488
     18 C           4.5171   -0.2735   -0.0277 C.ar    1  UNL1        0.0058
     19 N          -3.4317    0.4552   -1.1867 N.am    1  UNL1       -0.2848
     20 C          -4.8071    0.2207   -0.9323 C.ar    1  UNL1        0.0474
     21 C          -5.6090   -0.4231   -1.8730 C.ar    1  UNL1       -0.0397
     22 C          -6.9406   -0.6291   -1.5821 C.ar    1  UNL1       -0.0600
     23 C          -7.4765   -0.2082   -0.3834 C.ar    1  UNL1       -0.0609
     24 C          -6.6455    0.4314    0.5321 C.ar    1  UNL1       -0.0460
     25 C          -5.3118    0.6523    0.2721 C.ar    1  UNL1        0.0800
     26 C          -4.4500    1.3173    1.2143 C.2     1  UNL1        0.3386
     27 O          -4.9459    1.7047    2.3237 O.2     1  UNL1       -0.2451
     28 O          -3.1138    1.5704    1.0055 O.3     1  UNL1       -0.4771
     29 H          -0.6202    0.5883   -0.5454 H       1  UNL1        0.0362
     30 H          -0.7486   -0.1691   -2.1482 H       1  UNL1        0.0362
     31 H          -0.6645   -2.3978   -1.2365 H       1  UNL1        0.0333
     32 H          -0.5161   -1.7653    0.4597 H       1  UNL1        0.0333
     33 H           1.5320   -2.6093   -2.5851 H       1  UNL1        0.1885
     34 H           1.2931    1.0421    0.8340 H       1  UNL1        0.0318
     35 H           1.2306   -0.3625    1.8851 H       1  UNL1        0.0318
     36 H           3.2132    0.0885    2.8445 H       1  UNL1        0.0317
     37 H           2.9505    1.6689    2.1198 H       1  UNL1        0.0317
     38 H           5.4383    1.6698    2.5929 H       1  UNL1        0.0657
     39 H           8.5261    2.1373    1.0939 H       1  UNL1        0.2921
     40 H           7.8286    0.0779   -0.5978 H       1  UNL1        0.0654
     41 H           5.8009   -0.9916   -1.5349 H       1  UNL1        0.0625
     42 H          -3.1546    1.3335   -1.6294 H       1  UNL1        0.1548
     43 H          -5.2244   -0.7639   -2.8165 H       1  UNL1        0.0636
     44 H          -7.6285   -1.1257   -2.2695 H       1  UNL1        0.0618
     45 H          -8.5160   -0.3763   -0.1711 H       1  UNL1        0.0618
     46 H          -7.1018    0.7517    1.4708 H       1  UNL1        0.0626
     47 H          -2.7361    2.4462    1.3474 H       1  UNL1        0.2954
@<TRIPOS>BOND
     1     1     2    2
     2     2     3    1
     3     3     4    1
     4     4     5    1
     5     5     6   ar
     6     6     7   ar
     7     7     8   ar
     8     8     9   ar
     9     9    10    1
    10    10    11    1
    11    11    12    1
    12    12    13   ar
    13    13    14   ar
    14    14    15    1
    15    14    16   ar
    16    16    17   ar
    17    17    18   ar
    18     2    19   am
    19    19    20    1
    20    20    21   ar
    21    21    22   ar
    22    22    23   ar
    23    23    24   ar
    24    24    25   ar
    25    25    26    1
    26    26    27    2
    27    26    28    1
    28     9     5   ar
    29    18    12   ar
    30    25    20   ar
    31    18     8    1
    32     3    29    1
    33     3    30    1
    34     4    31    1
    35     4    32    1
    36     6    33    1
    37    10    34    1
    38    10    35    1
    39    11    36    1
    40    11    37    1
    41    13    38    1
    42    15    39    1
    43    16    40    1
    44    17    41    1
    45    19    42    1
    46    21    43    1
    47    22    44    1
    48    23    45    1
    49    24    46    1
    50    28    47    1
