
     RDKit          3D

 47 50  0  0  0  0  0  0  0  0999 V2000
   -2.8817   -1.5752   -0.2929 O   0  0  0  0  0  0  0  0  0  0  0  0
   -2.4435   -0.5113   -0.8355 C   0  0  0  0  0  0  0  0  0  0  0  0
   -1.0044   -0.3126   -1.0752 C   0  0  0  0  0  0  0  0  0  0  0  0
   -0.2630   -1.5641   -0.6222 C   0  0  0  0  0  0  0  0  0  0  0  0
    1.1927   -1.4291   -0.8235 C   0  0  0  0  0  0  0  0  0  0  0  0
    1.9050   -1.9888   -1.8097 N   0  0  0  0  0  0  0  0  0  0  0  0
    3.1805   -1.6544   -1.6858 N   0  0  0  0  0  0  0  0  0  0  0  0
    3.3177   -0.8781   -0.6244 C   0  0  0  0  0  0  0  0  0  0  0  0
    2.0817   -0.7113   -0.0528 C   0  0  0  0  0  0  0  0  0  0  0  0
    1.9033    0.1264    1.1244 C   0  0  0  0  0  0  0  0  0  0  0  0
    3.1072    0.5781    1.8148 C   0  0  0  0  0  0  0  0  0  0  0  0
    4.3985    0.4589    1.1167 C   0  0  0  0  0  0  0  0  0  0  0  0
    5.5340    1.0848    1.6804 C   0  0  0  0  0  0  0  0  0  0  0  0
    6.7563    0.9493    1.0695 C   0  0  0  0  0  0  0  0  0  0  0  0
    7.8954    1.5565    1.6043 O   0  0  0  0  0  0  0  0  0  0  0  0
    6.8767    0.2080   -0.0862 C   0  0  0  0  0  0  0  0  0  0  0  0
    5.7557   -0.3981   -0.6263 C   0  0  0  0  0  0  0  0  0  0  0  0
    4.5171   -0.2735   -0.0277 C   0  0  0  0  0  0  0  0  0  0  0  0
   -3.4317    0.4552   -1.1867 N   0  0  0  0  0  0  0  0  0  0  0  0
   -4.8071    0.2207   -0.9323 C   0  0  0  0  0  0  0  0  0  0  0  0
   -5.6090   -0.4231   -1.8730 C   0  0  0  0  0  0  0  0  0  0  0  0
   -6.9406   -0.6291   -1.5821 C   0  0  0  0  0  0  0  0  0  0  0  0
   -7.4765   -0.2082   -0.3834 C   0  0  0  0  0  0  0  0  0  0  0  0
   -6.6455    0.4314    0.5321 C   0  0  0  0  0  0  0  0  0  0  0  0
   -5.3118    0.6523    0.2721 C   0  0  0  0  0  0  0  0  0  0  0  0
   -4.4500    1.3173    1.2143 C   0  0  0  0  0  0  0  0  0  0  0  0
   -4.9459    1.7047    2.3237 O   0  0  0  0  0  0  0  0  0  0  0  0
   -3.1138    1.5704    1.0055 O   0  0  0  0  0  0  0  0  0  0  0  0
   -0.6202    0.5883   -0.5454 H   0  0  0  0  0  0  0  0  0  0  0  0
   -0.7486   -0.1691   -2.1482 H   0  0  0  0  0  0  0  0  0  0  0  0
   -0.6645   -2.3978   -1.2365 H   0  0  0  0  0  0  0  0  0  0  0  0
   -0.5161   -1.7653    0.4597 H   0  0  0  0  0  0  0  0  0  0  0  0
    1.5320   -2.6093   -2.5851 H   0  0  0  0  0  0  0  0  0  0  0  0
    1.2931    1.0421    0.8340 H   0  0  0  0  0  0  0  0  0  0  0  0
    1.2306   -0.3625    1.8851 H   0  0  0  0  0  0  0  0  0  0  0  0
    3.2132    0.0885    2.8445 H   0  0  0  0  0  0  0  0  0  0  0  0
    2.9505    1.6689    2.1198 H   0  0  0  0  0  0  0  0  0  0  0  0
    5.4383    1.6698    2.5929 H   0  0  0  0  0  0  0  0  0  0  0  0
    8.5261    2.1373    1.0939 H   0  0  0  0  0  0  0  0  0  0  0  0
    7.8286    0.0779   -0.5978 H   0  0  0  0  0  0  0  0  0  0  0  0
    5.8009   -0.9916   -1.5349 H   0  0  0  0  0  0  0  0  0  0  0  0
   -3.1546    1.3335   -1.6294 H   0  0  0  0  0  0  0  0  0  0  0  0
   -5.2244   -0.7639   -2.8165 H   0  0  0  0  0  0  0  0  0  0  0  0
   -7.6285   -1.1257   -2.2695 H   0  0  0  0  0  0  0  0  0  0  0  0
   -8.5160   -0.3763   -0.1711 H   0  0  0  0  0  0  0  0  0  0  0  0
   -7.1018    0.7517    1.4708 H   0  0  0  0  0  0  0  0  0  0  0  0
   -2.7361    2.4462    1.3474 H   0  0  0  0  0  0  0  0  0  0  0  0
  1  2  2  0
  2  3  1  0
  3  4  1  0
  4  5  1  0
  5  6  1  0
  6  7  1  0
  7  8  2  0
  8  9  1  0
  9 10  1  0
 10 11  1  0
 11 12  1  0
 12 13  2  0
 13 14  1  0
 14 15  1  0
 14 16  2  0
 16 17  1  0
 17 18  2  0
  2 19  1  0
 19 20  1  0
 20 21  2  0
 21 22  1  0
 22 23  2  0
 23 24  1  0
 24 25  2  0
 25 26  1  0
 26 27  2  0
 26 28  1  0
  9  5  2  0
 18 12  1  0
 25 20  1  0
 18  8  1  0
  3 29  1  0
  3 30  1  0
  4 31  1  0
  4 32  1  0
  6 33  1  0
 10 34  1  0
 10 35  1  0
 11 36  1  0
 11 37  1  0
 13 38  1  0
 15 39  1  0
 16 40  1  0
 17 41  1  0
 19 42  1  0
 21 43  1  0
 22 44  1  0
 23 45  1  0
 24 46  1  0
 28 47  1  0
M  END
$$$$
