@<TRIPOS>MOLECULE
*****
 32 33 0 0 0
SMALL
GASTEIGER

@<TRIPOS>ATOM
      1 N           5.5835    0.3508   -0.5173 N.3     1  UNL1       -0.2035
      2 S           4.6701   -1.0902   -0.2651 S.O2    1  UNL1        0.0574
      3 O           4.8755   -2.0081   -1.4271 O.2     1  UNL1       -0.1532
      4 O           5.0822   -1.7854    0.9980 O.2     1  UNL1       -0.1532
      5 C           2.9773   -0.6521   -0.2136 C.ar    1  UNL1        0.1241
      6 C           2.0835   -1.6799   -0.0179 C.ar    1  UNL1        0.0690
      7 CL          2.5841   -3.3536    0.1736 Cl      1  UNL1       -0.0815
      8 C           0.7285   -1.4573    0.0405 C.ar    1  UNL1       -0.0198
      9 C           0.2885   -0.1587   -0.1047 C.ar    1  UNL1        0.0431
     10 N          -1.1044    0.1224   -0.0517 N.pl3   1  UNL1       -0.3360
     11 C          -2.0638   -0.9470    0.1538 C.3     1  UNL1        0.0673
     12 C          -3.4665   -0.4535    0.1791 C.ar    1  UNL1        0.1217
     13 C          -4.4061   -0.2810   -0.8136 C.ar    1  UNL1       -0.0192
     14 C          -5.5551    0.2117   -0.2272 C.ar    1  UNL1       -0.0236
     15 C          -5.2468    0.3132    1.1082 C.ar    1  UNL1        0.0921
     16 O          -4.0085   -0.0857    1.3206 O.2     1  UNL1       -0.4662
     17 C           1.1973    0.8570   -0.2998 C.ar    1  UNL1        0.0815
     18 C           2.5617    0.6681   -0.3633 C.ar    1  UNL1       -0.0182
     19 C           0.8078    2.2539   -0.4614 C.2     1  UNL1        0.3387
     20 O          -0.3052    3.0535   -0.4959 O.3     1  UNL1       -0.4771
     21 O           1.5633    3.2448   -0.6432 O.2     1  UNL1       -0.2451
     22 H           5.5048    0.9551    0.3381 H       1  UNL1        0.1442
     23 H           5.1351    0.8850   -1.2880 H       1  UNL1        0.1442
     24 H          -0.0229   -2.2155    0.1909 H       1  UNL1        0.0651
     25 H          -1.4998    1.0817   -0.1544 H       1  UNL1        0.1465
     26 H          -1.8271   -1.5439    1.0680 H       1  UNL1        0.0542
     27 H          -1.9676   -1.5963   -0.7591 H       1  UNL1        0.0542
     28 H          -4.2034   -0.5141   -1.8502 H       1  UNL1        0.0652
     29 H          -6.4614    0.4434   -0.7678 H       1  UNL1        0.0649
     30 H          -5.9352    0.6712    1.8610 H       1  UNL1        0.1029
     31 H           3.2893    1.4509   -0.5154 H       1  UNL1        0.0646
     32 H          -0.8587    3.2598   -1.3301 H       1  UNL1        0.2954
@<TRIPOS>BOND
     1     1     2    1
     2     2     3    2
     3     2     4    2
     4     2     5    1
     5     5     6   ar
     6     6     7    1
     7     6     8   ar
     8     8     9   ar
     9     9    10    1
    10    10    11    1
    11    11    12    1
    12    12    13   ar
    13    13    14   ar
    14    14    15   ar
    15    15    16   ar
    16     9    17   ar
    17    17    18   ar
    18    17    19    1
    19    19    20    1
    20    19    21    2
    21    18     5   ar
    22    16    12   ar
    23     1    22    1
    24     1    23    1
    25     8    24    1
    26    10    25    1
    27    11    26    1
    28    11    27    1
    29    13    28    1
    30    14    29    1
    31    15    30    1
    32    18    31    1
    33    20    32    1
