
     RDKit          3D

 48 50  0  0  0  0  0  0  0  0999 V2000
   -8.7937   -2.2532   -0.7172 C   0  0  0  0  0  0  0  0  0  0  0  0
   -8.0610   -1.0065   -0.4725 N   0  0  0  0  0  0  0  0  0  0  0  0
   -6.7818   -1.0464    0.1532 C   0  0  0  0  0  0  0  0  0  0  0  0
   -6.3442   -2.1823    0.4677 O   0  0  0  0  0  0  0  0  0  0  0  0
   -6.0237    0.1769    0.4123 C   0  0  0  0  0  0  0  0  0  0  0  0
   -4.7927    0.0638    1.0211 C   0  0  0  0  0  0  0  0  0  0  0  0
   -4.0770    1.2207    1.2655 C   0  0  0  0  0  0  0  0  0  0  0  0
   -2.8379    1.0704    1.8816 O   0  0  0  0  0  0  0  0  0  0  0  0
   -1.6776    0.8967    1.1254 C   0  0  0  0  0  0  0  0  0  0  0  0
   -1.2224   -0.3510    0.7566 C   0  0  0  0  0  0  0  0  0  0  0  0
   -0.0839   -0.5643    0.0120 C   0  0  0  0  0  0  0  0  0  0  0  0
    0.6471    0.5160   -0.3916 C   0  0  0  0  0  0  0  0  0  0  0  0
    1.8366    0.4187   -1.1619 N   0  0  0  0  0  0  0  0  0  0  0  0
    3.0932    0.3072   -0.5463 C   0  0  0  0  0  0  0  0  0  0  0  0
    3.1628    0.2937    0.6976 O   0  0  0  0  0  0  0  0  0  0  0  0
    4.3214    0.2063   -1.2692 N   0  0  0  0  0  0  0  0  0  0  0  0
    5.5611    0.0960   -0.6057 C   0  0  0  0  0  0  0  0  0  0  0  0
    6.2484    1.2376   -0.2855 C   0  0  0  0  0  0  0  0  0  0  0  0
    7.4822    1.1479    0.3740 C   0  0  0  0  0  0  0  0  0  0  0  0
    7.9918   -0.0698    0.6931 C   0  0  0  0  0  0  0  0  0  0  0  0
    9.5300   -0.2852    1.5194 Cl  0  0  0  0  0  0  0  0  0  0  0  0
    7.2902   -1.2130    0.3653 C   0  0  0  0  0  0  0  0  0  0  0  0
    7.8162   -2.5578    0.6980 C   0  0  0  0  0  0  0  0  0  0  0  0
    7.9635   -2.6256    2.0706 F   0  0  0  0  0  0  0  0  0  0  0  0
    6.9452   -3.5281    0.2918 F   0  0  0  0  0  0  0  0  0  0  0  0
    9.0367   -2.7425    0.0617 F   0  0  0  0  0  0  0  0  0  0  0  0
    6.0647   -1.1297   -0.2895 C   0  0  0  0  0  0  0  0  0  0  0  0
    0.2067    1.7896   -0.0307 C   0  0  0  0  0  0  0  0  0  0  0  0
   -0.9322    1.9810    0.7127 C   0  0  0  0  0  0  0  0  0  0  0  0
   -4.6102    2.4203    0.8988 C   0  0  0  0  0  0  0  0  0  0  0  0
   -5.8507    2.5223    0.2863 C   0  0  0  0  0  0  0  0  0  0  0  0
   -6.5073    1.3747    0.0698 N   0  0  0  0  0  0  0  0  0  0  0  0
   -9.2175   -2.6676    0.2205 H   0  0  0  0  0  0  0  0  0  0  0  0
   -8.0651   -2.9978   -1.1440 H   0  0  0  0  0  0  0  0  0  0  0  0
   -9.6397   -2.0569   -1.3967 H   0  0  0  0  0  0  0  0  0  0  0  0
   -8.4831   -0.1163   -0.7576 H   0  0  0  0  0  0  0  0  0  0  0  0
   -4.3781   -0.9024    1.3093 H   0  0  0  0  0  0  0  0  0  0  0  0
   -1.7974   -1.2307    1.0722 H   0  0  0  0  0  0  0  0  0  0  0  0
    0.2549   -1.5457   -0.2657 H   0  0  0  0  0  0  0  0  0  0  0  0
    1.7525    0.4321   -2.1930 H   0  0  0  0  0  0  0  0  0  0  0  0
    4.2504    0.2188   -2.3182 H   0  0  0  0  0  0  0  0  0  0  0  0
    5.9149    2.2435   -0.5026 H   0  0  0  0  0  0  0  0  0  0  0  0
    8.0267    2.0273    0.6287 H   0  0  0  0  0  0  0  0  0  0  0  0
    5.5497   -2.0676   -0.5262 H   0  0  0  0  0  0  0  0  0  0  0  0
    0.7726    2.6778   -0.3400 H   0  0  0  0  0  0  0  0  0  0  0  0
   -1.2714    2.9724    0.9914 H   0  0  0  0  0  0  0  0  0  0  0  0
   -4.0498    3.3284    1.0899 H   0  0  0  0  0  0  0  0  0  0  0  0
   -6.2212    3.5004    0.0185 H   0  0  0  0  0  0  0  0  0  0  0  0
  1  2  1  0
  2  3  1  0
  3  4  2  0
  3  5  1  0
  5  6  2  0
  6  7  1  0
  7  8  1  0
  8  9  1  0
  9 10  2  0
 10 11  1  0
 11 12  2  0
 12 13  1  0
 13 14  1  0
 14 15  2  0
 14 16  1  0
 16 17  1  0
 17 18  2  0
 18 19  1  0
 19 20  2  0
 20 21  1  0
 20 22  1  0
 22 23  1  0
 23 24  1  0
 23 25  1  0
 23 26  1  0
 22 27  2  0
 12 28  1  0
 28 29  2  0
  7 30  2  0
 30 31  1  0
 31 32  2  0
 32  5  1  0
 29  9  1  0
 27 17  1  0
  1 33  1  0
  1 34  1  0
  1 35  1  0
  2 36  1  0
  6 37  1  0
 10 38  1  0
 11 39  1  0
 13 40  1  0
 16 41  1  0
 18 42  1  0
 19 43  1  0
 27 44  1  0
 28 45  1  0
 29 46  1  0
 30 47  1  0
 31 48  1  0
M  END
$$$$
