@<TRIPOS>MOLECULE
*****
 48 50 0 0 0
SMALL
GASTEIGER

@<TRIPOS>ATOM
      1 C          -8.7937   -2.2532   -0.7172 C.3     1  UNL1        0.0004
      2 N          -8.0610   -1.0065   -0.4725 N.am    1  UNL1       -0.3132
      3 C          -6.7818   -1.0464    0.1532 C.2     1  UNL1        0.2623
      4 O          -6.3442   -2.1823    0.4677 O.2     1  UNL1       -0.2685
      5 C          -6.0237    0.1769    0.4123 C.ar    1  UNL1        0.1288
      6 C          -4.7927    0.0638    1.0211 C.ar    1  UNL1        0.0112
      7 C          -4.0770    1.2207    1.2655 C.ar    1  UNL1        0.1321
      8 O          -2.8379    1.0704    1.8816 O.3     1  UNL1       -0.4559
      9 C          -1.6776    0.8967    1.1254 C.ar    1  UNL1        0.1286
     10 C          -1.2224   -0.3510    0.7566 C.ar    1  UNL1       -0.0176
     11 C          -0.0839   -0.5643    0.0120 C.ar    1  UNL1       -0.0370
     12 C           0.6471    0.5160   -0.3916 C.ar    1  UNL1        0.0350
     13 N           1.8366    0.4187   -1.1619 N.am    1  UNL1       -0.2692
     14 C           3.0932    0.3072   -0.5463 C.2     1  UNL1        0.3081
     15 O           3.1628    0.2937    0.6976 O.2     1  UNL1       -0.2522
     16 N           4.3214    0.2063   -1.2692 N.am    1  UNL1       -0.2692
     17 C           5.5611    0.0960   -0.6057 C.ar    1  UNL1        0.0354
     18 C           6.2484    1.2376   -0.2855 C.ar    1  UNL1       -0.0390
     19 C           7.4822    1.1479    0.3740 C.ar    1  UNL1       -0.0411
     20 C           7.9918   -0.0698    0.6931 C.ar    1  UNL1        0.0527
     21 CL          9.5300   -0.2852    1.5194 Cl      1  UNL1       -0.0830
     22 C           7.2902   -1.2130    0.3653 C.ar    1  UNL1        0.0748
     23 C           7.8162   -2.5578    0.6980 C.3     1  UNL1        0.4188
     24 F           7.9635   -2.6256    2.0706 F       1  UNL1       -0.1658
     25 F           6.9452   -3.5281    0.2918 F       1  UNL1       -0.1658
     26 F           9.0367   -2.7425    0.0617 F       1  UNL1       -0.1658
     27 C           6.0647   -1.1297   -0.2895 C.ar    1  UNL1       -0.0274
     28 C           0.2067    1.7896   -0.0307 C.ar    1  UNL1       -0.0370
     29 C          -0.9322    1.9810    0.7127 C.ar    1  UNL1       -0.0176
     30 C          -4.6102    2.4203    0.8988 C.ar    1  UNL1       -0.0012
     31 C          -5.8507    2.5223    0.2863 C.ar    1  UNL1        0.0319
     32 N          -6.5073    1.3747    0.0698 N.ar    1  UNL1       -0.2501
     33 H          -9.2175   -2.6676    0.2205 H       1  UNL1        0.0426
     34 H          -8.0651   -2.9978   -1.1440 H       1  UNL1        0.0426
     35 H          -9.6397   -2.0569   -1.3967 H       1  UNL1        0.0426
     36 H          -8.4831   -0.1163   -0.7576 H       1  UNL1        0.1487
     37 H          -4.3781   -0.9024    1.3093 H       1  UNL1        0.0677
     38 H          -1.7974   -1.2307    1.0722 H       1  UNL1        0.0655
     39 H           0.2549   -1.5457   -0.2657 H       1  UNL1        0.0637
     40 H           1.7525    0.4321   -2.1930 H       1  UNL1        0.1564
     41 H           4.2504    0.2188   -2.3182 H       1  UNL1        0.1564
     42 H           5.9149    2.2435   -0.5026 H       1  UNL1        0.0636
     43 H           8.0267    2.0273    0.6287 H       1  UNL1        0.0633
     44 H           5.5497   -2.0676   -0.5262 H       1  UNL1        0.0642
     45 H           0.7726    2.6778   -0.3400 H       1  UNL1        0.0637
     46 H          -1.2714    2.9724    0.9914 H       1  UNL1        0.0655
     47 H          -4.0498    3.3284    1.0899 H       1  UNL1        0.0669
     48 H          -6.2212    3.5004    0.0185 H       1  UNL1        0.0831
@<TRIPOS>BOND
     1     1     2    1
     2     2     3   am
     3     3     4    2
     4     3     5    1
     5     5     6   ar
     6     6     7   ar
     7     7     8    1
     8     8     9    1
     9     9    10   ar
    10    10    11   ar
    11    11    12   ar
    12    12    13    1
    13    13    14   am
    14    14    15    2
    15    14    16   am
    16    16    17    1
    17    17    18   ar
    18    18    19   ar
    19    19    20   ar
    20    20    21    1
    21    20    22   ar
    22    22    23    1
    23    23    24    1
    24    23    25    1
    25    23    26    1
    26    22    27   ar
    27    12    28   ar
    28    28    29   ar
    29     7    30   ar
    30    30    31   ar
    31    31    32   ar
    32    32     5   ar
    33    29     9   ar
    34    27    17   ar
    35     1    33    1
    36     1    34    1
    37     1    35    1
    38     2    36    1
    39     6    37    1
    40    10    38    1
    41    11    39    1
    42    13    40    1
    43    16    41    1
    44    18    42    1
    45    19    43    1
    46    27    44    1
    47    28    45    1
    48    29    46    1
    49    30    47    1
    50    31    48    1
