
     RDKit          3D

 46 48  0  0  0  0  0  0  0  0999 V2000
    7.3513   -1.6029    1.6472 C   0  0  0  0  0  0  0  0  0  0  0  0
    6.5493   -0.5148    1.0576 C   0  0  0  0  0  0  0  0  0  0  0  0
    7.1407    0.7370    0.9781 C   0  0  0  0  0  0  0  0  0  0  0  0
    6.3988    1.7639    0.4529 C   0  0  0  0  0  0  0  0  0  0  0  0
    5.0910    1.5418    0.0165 C   0  0  0  0  0  0  0  0  0  0  0  0
    4.4919    0.3044    0.0893 C   0  0  0  0  0  0  0  0  0  0  0  0
    3.1114    0.0622   -0.3515 C   0  0  0  0  0  0  0  0  0  0  0  0
    2.6708   -1.1184   -0.5233 O   0  0  0  0  0  0  0  0  0  0  0  0
    2.1878    1.0855   -0.6215 N   0  0  0  0  0  0  0  0  0  0  0  0
    0.8601    0.9616   -1.0815 C   0  0  0  0  0  0  0  0  0  0  0  0
    0.6359    0.9708   -2.4697 C   0  0  0  0  0  0  0  0  0  0  0  0
   -0.6409    0.9034   -2.9927 C   0  0  0  0  0  0  0  0  0  0  0  0
   -1.7153    0.8252   -2.1508 C   0  0  0  0  0  0  0  0  0  0  0  0
   -1.5376    0.8116   -0.7544 C   0  0  0  0  0  0  0  0  0  0  0  0
   -2.7025    0.7599    0.0360 N   0  0  0  0  0  0  0  0  0  0  0  0
   -3.3744   -0.4878    0.2230 C   0  0  0  0  0  0  0  0  0  0  0  0
   -2.8924   -1.5147   -0.3254 O   0  0  0  0  0  0  0  0  0  0  0  0
   -4.5915   -0.6117    1.0173 C   0  0  0  0  0  0  0  0  0  0  0  0
   -4.5367   -0.4285    2.3650 C   0  0  0  0  0  0  0  0  0  0  0  0
   -5.7064   -0.5274    3.1170 C   0  0  0  0  0  0  0  0  0  0  0  0
   -6.8963   -0.8096    2.4808 C   0  0  0  0  0  0  0  0  0  0  0  0
   -6.9463   -0.9945    1.1165 C   0  0  0  0  0  0  0  0  0  0  0  0
   -5.7787   -0.8963    0.3647 C   0  0  0  0  0  0  0  0  0  0  0  0
   -5.8394   -1.1071   -1.0829 C   0  0  0  0  0  0  0  0  0  0  0  0
   -5.3802    0.0255   -1.7375 F   0  0  0  0  0  0  0  0  0  0  0  0
   -7.1609   -1.3691   -1.4645 F   0  0  0  0  0  0  0  0  0  0  0  0
   -5.1036   -2.1703   -1.5336 F   0  0  0  0  0  0  0  0  0  0  0  0
   -0.2451    0.8800   -0.2717 C   0  0  0  0  0  0  0  0  0  0  0  0
    5.2389   -0.7155    0.6142 C   0  0  0  0  0  0  0  0  0  0  0  0
    8.3275   -1.2310    2.0520 H   0  0  0  0  0  0  0  0  0  0  0  0
    7.5471   -2.3650    0.8776 H   0  0  0  0  0  0  0  0  0  0  0  0
    6.8150   -2.0298    2.5468 H   0  0  0  0  0  0  0  0  0  0  0  0
    8.1616    0.9204    1.3086 H   0  0  0  0  0  0  0  0  0  0  0  0
    6.8490    2.7483    0.3800 H   0  0  0  0  0  0  0  0  0  0  0  0
    4.5449    2.3607   -0.3979 H   0  0  0  0  0  0  0  0  0  0  0  0
    2.5628    2.0822   -0.4454 H   0  0  0  0  0  0  0  0  0  0  0  0
    1.5026    1.0259   -3.0901 H   0  0  0  0  0  0  0  0  0  0  0  0
   -0.7845    0.9075   -4.0828 H   0  0  0  0  0  0  0  0  0  0  0  0
   -2.7379    0.7798   -2.5490 H   0  0  0  0  0  0  0  0  0  0  0  0
   -3.0729    1.6013    0.4873 H   0  0  0  0  0  0  0  0  0  0  0  0
   -3.6165   -0.2146    2.9010 H   0  0  0  0  0  0  0  0  0  0  0  0
   -5.7225   -0.3934    4.1756 H   0  0  0  0  0  0  0  0  0  0  0  0
   -7.8434   -0.8980    3.0129 H   0  0  0  0  0  0  0  0  0  0  0  0
   -7.8847   -1.2146    0.6196 H   0  0  0  0  0  0  0  0  0  0  0  0
   -0.1399    0.8747    0.8276 H   0  0  0  0  0  0  0  0  0  0  0  0
    4.8117   -1.7183    0.6915 H   0  0  0  0  0  0  0  0  0  0  0  0
  1  2  1  0
  2  3  2  0
  3  4  1  0
  4  5  2  0
  5  6  1  0
  6  7  1  0
  7  8  2  0
  7  9  1  0
  9 10  1  0
 10 11  2  0
 11 12  1  0
 12 13  2  0
 13 14  1  0
 14 15  1  0
 15 16  1  0
 16 17  2  0
 16 18  1  0
 18 19  2  0
 19 20  1  0
 20 21  2  0
 21 22  1  0
 22 23  2  0
 23 24  1  0
 24 25  1  0
 24 26  1  0
 24 27  1  0
 14 28  2  0
  6 29  2  0
 29  2  1  0
 28 10  1  0
 23 18  1  0
  1 30  1  0
  1 31  1  0
  1 32  1  0
  3 33  1  0
  4 34  1  0
  5 35  1  0
  9 36  1  0
 11 37  1  0
 12 38  1  0
 13 39  1  0
 15 40  1  0
 19 41  1  0
 20 42  1  0
 21 43  1  0
 22 44  1  0
 28 45  1  0
 29 46  1  0
M  END
$$$$
