@<TRIPOS>MOLECULE
*****
 46 48 0 0 0
SMALL
GASTEIGER

@<TRIPOS>ATOM
      1 C           7.3513   -1.6029    1.6472 C.3     1  UNL1       -0.0397
      2 C           6.5493   -0.5148    1.0576 C.ar    1  UNL1       -0.0497
      3 C           7.1407    0.7370    0.9781 C.ar    1  UNL1       -0.0588
      4 C           6.3988    1.7639    0.4529 C.ar    1  UNL1       -0.0608
      5 C           5.0910    1.5418    0.0165 C.ar    1  UNL1       -0.0496
      6 C           4.4919    0.3044    0.0893 C.ar    1  UNL1        0.0373
      7 C           3.1114    0.0622   -0.3515 C.2     1  UNL1        0.2483
      8 O           2.6708   -1.1184   -0.5233 O.2     1  UNL1       -0.2699
      9 N           2.1878    1.0855   -0.6215 N.am    1  UNL1       -0.2814
     10 C           0.8601    0.9616   -1.0815 C.ar    1  UNL1        0.0354
     11 C           0.6359    0.9708   -2.4697 C.ar    1  UNL1       -0.0404
     12 C          -0.6409    0.9034   -2.9927 C.ar    1  UNL1       -0.0583
     13 C          -1.7153    0.8252   -2.1508 C.ar    1  UNL1       -0.0404
     14 C          -1.5376    0.8116   -0.7544 C.ar    1  UNL1        0.0354
     15 N          -2.7025    0.7599    0.0360 N.am    1  UNL1       -0.2814
     16 C          -3.3744   -0.4878    0.2230 C.2     1  UNL1        0.2488
     17 O          -2.8924   -1.5147   -0.3254 O.2     1  UNL1       -0.2698
     18 C          -4.5915   -0.6117    1.0173 C.ar    1  UNL1        0.0486
     19 C          -4.5367   -0.4285    2.3650 C.ar    1  UNL1       -0.0491
     20 C          -5.7064   -0.5274    3.1170 C.ar    1  UNL1       -0.0610
     21 C          -6.8963   -0.8096    2.4808 C.ar    1  UNL1       -0.0612
     22 C          -6.9463   -0.9945    1.1165 C.ar    1  UNL1       -0.0494
     23 C          -5.7787   -0.8963    0.3647 C.ar    1  UNL1        0.0669
     24 C          -5.8394   -1.1071   -1.0829 C.3     1  UNL1        0.4181
     25 F          -5.3802    0.0255   -1.7375 F       1  UNL1       -0.1659
     26 F          -7.1609   -1.3691   -1.4645 F       1  UNL1       -0.1659
     27 F          -5.1036   -2.1703   -1.5336 F       1  UNL1       -0.1659
     28 C          -0.2451    0.8800   -0.2717 C.ar    1  UNL1       -0.0192
     29 C           5.2389   -0.7155    0.6142 C.ar    1  UNL1       -0.0467
     30 H           8.3275   -1.2310    2.0520 H       1  UNL1        0.0278
     31 H           7.5471   -2.3650    0.8776 H       1  UNL1        0.0278
     32 H           6.8150   -2.0298    2.5468 H       1  UNL1        0.0278
     33 H           8.1616    0.9204    1.3086 H       1  UNL1        0.0620
     34 H           6.8490    2.7483    0.3800 H       1  UNL1        0.0618
     35 H           4.5449    2.3607   -0.3979 H       1  UNL1        0.0625
     36 H           2.5628    2.0822   -0.4454 H       1  UNL1        0.1551
     37 H           1.5026    1.0259   -3.0901 H       1  UNL1        0.0636
     38 H          -0.7845    0.9075   -4.0828 H       1  UNL1        0.0619
     39 H          -2.7379    0.7798   -2.5490 H       1  UNL1        0.0636
     40 H          -3.0729    1.6013    0.4873 H       1  UNL1        0.1551
     41 H          -3.6165   -0.2146    2.9010 H       1  UNL1        0.0625
     42 H          -5.7225   -0.3934    4.1756 H       1  UNL1        0.0618
     43 H          -7.8434   -0.8980    3.0129 H       1  UNL1        0.0618
     44 H          -7.8847   -1.2146    0.6196 H       1  UNL1        0.0623
     45 H          -0.1399    0.8747    0.8276 H       1  UNL1        0.0655
     46 H           4.8117   -1.7183    0.6915 H       1  UNL1        0.0628
@<TRIPOS>BOND
     1     1     2    1
     2     2     3   ar
     3     3     4   ar
     4     4     5   ar
     5     5     6   ar
     6     6     7    1
     7     7     8    2
     8     7     9   am
     9     9    10    1
    10    10    11   ar
    11    11    12   ar
    12    12    13   ar
    13    13    14   ar
    14    14    15    1
    15    15    16   am
    16    16    17    2
    17    16    18    1
    18    18    19   ar
    19    19    20   ar
    20    20    21   ar
    21    21    22   ar
    22    22    23   ar
    23    23    24    1
    24    24    25    1
    25    24    26    1
    26    24    27    1
    27    14    28   ar
    28     6    29   ar
    29    29     2   ar
    30    28    10   ar
    31    23    18   ar
    32     1    30    1
    33     1    31    1
    34     1    32    1
    35     3    33    1
    36     4    34    1
    37     5    35    1
    38     9    36    1
    39    11    37    1
    40    12    38    1
    41    13    39    1
    42    15    40    1
    43    19    41    1
    44    20    42    1
    45    21    43    1
    46    22    44    1
    47    28    45    1
    48    29    46    1
