@<TRIPOS>MOLECULE
*****
 35 38 0 0 0
SMALL
GASTEIGER

@<TRIPOS>ATOM
      1 C          -4.1056    0.9610    0.6459 C.3     1  UNL1       -0.0041
      2 C          -3.3154   -0.1968    1.1209 C.ar    1  UNL1        0.1349
      3 N          -3.6608   -0.9499    2.2124 N.ar    1  UNL1       -0.1342
      4 N          -2.7596   -1.8842    2.4495 N.ar    1  UNL1       -0.1321
      5 C          -1.7766   -1.8036    1.5371 C.ar    1  UNL1        0.1595
      6 C          -0.5070   -2.6053    1.3865 C.3     1  UNL1        0.1004
      7 N           0.6569   -1.7674    1.2125 N.2     1  UNL1       -0.2748
      8 C           0.9395   -0.7429    0.4441 C.2     1  UNL1        0.0766
      9 C           2.2022    0.0173    0.3863 C.ar    1  UNL1        0.0189
     10 C           2.3724    1.2916    0.8557 C.ar    1  UNL1       -0.0512
     11 C           3.5993    1.9181    0.7539 C.ar    1  UNL1       -0.0611
     12 C           4.6952    1.3023    0.1842 C.ar    1  UNL1       -0.0603
     13 C           4.5241    0.0073   -0.2934 C.ar    1  UNL1       -0.0427
     14 C           3.2980   -0.6224   -0.1931 C.ar    1  UNL1        0.0501
     15 CL          3.1187   -2.2644   -0.8097 Cl      1  UNL1       -0.0829
     16 C          -0.0617   -0.2151   -0.5207 C.ar    1  UNL1        0.0258
     17 C          -1.4556   -0.2702   -0.3890 C.ar    1  UNL1        0.0587
     18 C          -2.3572    0.1838   -1.3270 C.ar    1  UNL1       -0.0357
     19 C          -1.7673    0.7358   -2.4737 C.ar    1  UNL1       -0.0414
     20 C          -0.3789    0.8042   -2.6259 C.ar    1  UNL1        0.0417
     21 CL          0.3571    1.4916   -4.0514 Cl      1  UNL1       -0.0835
     22 C           0.4799    0.3318   -1.6571 C.ar    1  UNL1       -0.0322
     23 N          -2.1631   -0.7693    0.7567 N.ar    1  UNL1       -0.2811
     24 H          -5.0670    0.7462    0.1946 H       1  UNL1        0.0308
     25 H          -3.5131    1.7929    0.2080 H       1  UNL1        0.0308
     26 H          -4.4236    1.4721    1.6212 H       1  UNL1        0.0308
     27 H          -0.3765   -3.1831    2.3129 H       1  UNL1        0.0590
     28 H          -0.5641   -3.2835    0.5315 H       1  UNL1        0.0590
     29 H           1.5168    1.7700    1.2996 H       1  UNL1        0.0625
     30 H           3.7242    2.9337    1.1312 H       1  UNL1        0.0618
     31 H           5.6787    1.7429    0.0774 H       1  UNL1        0.0618
     32 H           5.3655   -0.5143   -0.7507 H       1  UNL1        0.0632
     33 H          -3.4182    0.1219   -1.3100 H       1  UNL1        0.0639
     34 H          -2.4083    1.1131   -3.2493 H       1  UNL1        0.0633
     35 H           1.5512    0.3347   -1.6709 H       1  UNL1        0.0639
@<TRIPOS>BOND
     1     1     2    1
     2     2     3   ar
     3     3     4   ar
     4     4     5   ar
     5     5     6    1
     6     6     7    1
     7     7     8    2
     8     8     9    1
     9     9    10   ar
    10    10    11   ar
    11    11    12   ar
    12    12    13   ar
    13    13    14   ar
    14    14    15    1
    15     8    16    1
    16    16    17   ar
    17    17    18   ar
    18    18    19   ar
    19    19    20   ar
    20    20    21    1
    21    20    22   ar
    22    17    23    1
    23    23     2   ar
    24    23     5   ar
    25    14     9   ar
    26    22    16   ar
    27     1    24    1
    28     1    25    1
    29     1    26    1
    30     6    27    1
    31     6    28    1
    32    10    29    1
    33    11    30    1
    34    12    31    1
    35    13    32    1
    36    18    33    1
    37    19    34    1
    38    22    35    1
