@<TRIPOS>MOLECULE
*****
 47 49 0 0 0
SMALL
GASTEIGER

@<TRIPOS>ATOM
      1 C          -6.0877    0.9364   -0.7871 C.3     1  UNL1        0.0803
      2 C          -6.3303    2.3275   -0.2240 C.3     1  UNL1       -0.0412
      3 N          -7.2133    0.0675   -0.4197 N.3     1  UNL1       -0.3200
      4 C          -4.8622    0.3217   -0.1702 C.2     1  UNL1        0.2257
      5 O          -4.4323   -0.9581   -0.5284 O.2     1  UNL1       -0.4934
      6 N          -4.2204    0.9989    0.6922 N.2     1  UNL1       -0.0729
      7 S          -2.8107    0.5259    1.5282 S.O2    1  UNL1        0.1967
      8 O          -3.0660   -0.6091    2.4892 O.2     1  UNL1       -0.1226
      9 O          -2.3730    1.7051    2.3733 O.2     1  UNL1       -0.1226
     10 O          -1.6375    0.0956    0.4173 O.3     1  UNL1       -0.2166
     11 C          -0.9019   -1.0172    0.8123 C.3     1  UNL1        0.1072
     12 C           0.1483   -1.3773   -0.2153 C.3     1  UNL1        0.1152
     13 O           1.0482   -0.3388   -0.4195 O.3     1  UNL1       -0.3456
     14 C           2.2585   -0.8516   -0.8045 C.3     1  UNL1        0.1667
     15 N           3.3495   -0.2775   -0.0271 N.ar    1  UNL1       -0.2855
     16 C           3.8842   -0.7791    1.0972 C.ar    1  UNL1        0.1004
     17 N           4.8830   -0.0006    1.5689 N.ar    1  UNL1       -0.2306
     18 C           5.0069    1.0368    0.7342 C.ar    1  UNL1        0.1473
     19 C           5.8574    2.1428    0.7151 C.ar    1  UNL1        0.1472
     20 N           6.8101    2.2386    1.7790 N.pl3   1  UNL1       -0.3413
     21 N           5.7283    3.0411   -0.2942 N.ar    1  UNL1       -0.2188
     22 C           4.7981    2.8532   -1.2433 C.ar    1  UNL1        0.1205
     23 N           3.9649    1.7752   -1.2298 N.ar    1  UNL1       -0.2159
     24 C           4.0575    0.8488   -0.2382 C.ar    1  UNL1        0.1674
     25 C           2.2212   -2.3369   -0.6530 C.3     1  UNL1        0.1285
     26 O           1.8601   -2.8960   -1.8831 O.3     1  UNL1       -0.3847
     27 C           1.0364   -2.5004    0.2775 C.3     1  UNL1        0.1136
     28 O           0.4318   -3.7441    0.1289 O.3     1  UNL1       -0.3864
     29 H          -5.9655    0.9808   -1.8969 H       1  UNL1        0.0553
     30 H          -7.4258    2.5114   -0.2302 H       1  UNL1        0.0249
     31 H          -5.7927    3.0819   -0.8586 H       1  UNL1        0.0249
     32 H          -5.9681    2.3647    0.8095 H       1  UNL1        0.0249
     33 H          -7.6765   -0.2307   -1.3139 H       1  UNL1        0.1189
     34 H          -6.9004   -0.8013    0.0654 H       1  UNL1        0.1189
     35 H          -3.4470   -1.1196   -0.6143 H       1  UNL1        0.2935
     36 H          -0.4451   -0.8019    1.7902 H       1  UNL1        0.0611
     37 H          -1.6072   -1.8727    0.8792 H       1  UNL1        0.0611
     38 H          -0.3535   -1.7159   -1.1449 H       1  UNL1        0.0647
     39 H           2.5136   -0.6231   -1.8677 H       1  UNL1        0.0866
     40 H           3.6161   -1.6826    1.6300 H       1  UNL1        0.1030
     41 H           6.6277    2.6114    2.7543 H       1  UNL1        0.1438
     42 H           7.8196    2.0129    1.9200 H       1  UNL1        0.1438
     43 H           4.7991    3.6344   -1.9837 H       1  UNL1        0.1048
     44 H           3.1453   -2.7844   -0.2399 H       1  UNL1        0.0665
     45 H           2.4729   -2.5673   -2.6031 H       1  UNL1        0.2101
     46 H           1.3148   -2.2996    1.3365 H       1  UNL1        0.0647
     47 H          -0.1365   -3.9267    0.9150 H       1  UNL1        0.2100
@<TRIPOS>BOND
     1     1     2    1
     2     1     3    1
     3     1     4    1
     4     4     5    1
     5     4     6    2
     6     6     7    1
     7     7     8    2
     8     7     9    2
     9     7    10    1
    10    10    11    1
    11    11    12    1
    12    12    13    1
    13    13    14    1
    14    14    15    1
    15    15    16   ar
    16    16    17   ar
    17    17    18   ar
    18    18    19   ar
    19    19    20    1
    20    19    21   ar
    21    21    22   ar
    22    22    23   ar
    23    23    24   ar
    24    14    25    1
    25    25    26    1
    26    25    27    1
    27    27    28    1
    28    27    12    1
    29    24    15   ar
    30    24    18   ar
    31     1    29    1
    32     2    30    1
    33     2    31    1
    34     2    32    1
    35     3    33    1
    36     3    34    1
    37     5    35    1
    38    11    36    1
    39    11    37    1
    40    12    38    1
    41    14    39    1
    42    16    40    1
    43    20    41    1
    44    20    42    1
    45    22    43    1
    46    25    44    1
    47    26    45    1
    48    27    46    1
    49    28    47    1
