
     RDKit          3D

 47 49  0  0  0  0  0  0  0  0999 V2000
   -6.0877    0.9364   -0.7871 C   0  0  2  0  0  0  0  0  0  0  0  0
   -6.3303    2.3275   -0.2240 C   0  0  0  0  0  0  0  0  0  0  0  0
   -7.2133    0.0675   -0.4197 N   0  0  0  0  0  0  0  0  0  0  0  0
   -4.8622    0.3217   -0.1702 C   0  0  0  0  0  0  0  0  0  0  0  0
   -4.4323   -0.9581   -0.5284 O   0  0  0  0  0  0  0  0  0  0  0  0
   -4.2204    0.9989    0.6922 N   0  0  0  0  0  0  0  0  0  0  0  0
   -2.8107    0.5259    1.5282 S   0  0  0  0  0  0  0  0  0  0  0  0
   -3.0660   -0.6091    2.4892 O   0  0  0  0  0  0  0  0  0  0  0  0
   -2.3730    1.7051    2.3733 O   0  0  0  0  0  0  0  0  0  0  0  0
   -1.6375    0.0956    0.4173 O   0  0  0  0  0  0  0  0  0  0  0  0
   -0.9019   -1.0172    0.8123 C   0  0  0  0  0  0  0  0  0  0  0  0
    0.1483   -1.3773   -0.2153 C   0  0  1  0  0  0  0  0  0  0  0  0
    1.0482   -0.3388   -0.4195 O   0  0  0  0  0  0  0  0  0  0  0  0
    2.2585   -0.8516   -0.8045 C   0  0  1  0  0  0  0  0  0  0  0  0
    3.3495   -0.2775   -0.0271 N   0  0  0  0  0  0  0  0  0  0  0  0
    3.8842   -0.7791    1.0972 C   0  0  0  0  0  0  0  0  0  0  0  0
    4.8830   -0.0006    1.5689 N   0  0  0  0  0  0  0  0  0  0  0  0
    5.0069    1.0368    0.7342 C   0  0  0  0  0  0  0  0  0  0  0  0
    5.8574    2.1428    0.7151 C   0  0  0  0  0  0  0  0  0  0  0  0
    6.8101    2.2386    1.7790 N   0  0  0  0  0  0  0  0  0  0  0  0
    5.7283    3.0411   -0.2942 N   0  0  0  0  0  0  0  0  0  0  0  0
    4.7981    2.8532   -1.2433 C   0  0  0  0  0  0  0  0  0  0  0  0
    3.9649    1.7752   -1.2298 N   0  0  0  0  0  0  0  0  0  0  0  0
    4.0575    0.8488   -0.2382 C   0  0  0  0  0  0  0  0  0  0  0  0
    2.2212   -2.3369   -0.6530 C   0  0  2  0  0  0  0  0  0  0  0  0
    1.8601   -2.8960   -1.8831 O   0  0  0  0  0  0  0  0  0  0  0  0
    1.0364   -2.5004    0.2775 C   0  0  2  0  0  0  0  0  0  0  0  0
    0.4318   -3.7441    0.1289 O   0  0  0  0  0  0  0  0  0  0  0  0
   -5.9655    0.9808   -1.8969 H   0  0  0  0  0  0  0  0  0  0  0  0
   -7.4258    2.5114   -0.2302 H   0  0  0  0  0  0  0  0  0  0  0  0
   -5.7927    3.0819   -0.8586 H   0  0  0  0  0  0  0  0  0  0  0  0
   -5.9681    2.3647    0.8095 H   0  0  0  0  0  0  0  0  0  0  0  0
   -7.6765   -0.2307   -1.3139 H   0  0  0  0  0  0  0  0  0  0  0  0
   -6.9004   -0.8013    0.0654 H   0  0  0  0  0  0  0  0  0  0  0  0
   -3.4470   -1.1196   -0.6143 H   0  0  0  0  0  0  0  0  0  0  0  0
   -0.4451   -0.8019    1.7902 H   0  0  0  0  0  0  0  0  0  0  0  0
   -1.6072   -1.8727    0.8792 H   0  0  0  0  0  0  0  0  0  0  0  0
   -0.3535   -1.7159   -1.1449 H   0  0  0  0  0  0  0  0  0  0  0  0
    2.5136   -0.6231   -1.8677 H   0  0  0  0  0  0  0  0  0  0  0  0
    3.6161   -1.6826    1.6300 H   0  0  0  0  0  0  0  0  0  0  0  0
    6.6277    2.6114    2.7543 H   0  0  0  0  0  0  0  0  0  0  0  0
    7.8196    2.0129    1.9200 H   0  0  0  0  0  0  0  0  0  0  0  0
    4.7991    3.6344   -1.9837 H   0  0  0  0  0  0  0  0  0  0  0  0
    3.1453   -2.7844   -0.2399 H   0  0  0  0  0  0  0  0  0  0  0  0
    2.4729   -2.5673   -2.6031 H   0  0  0  0  0  0  0  0  0  0  0  0
    1.3148   -2.2996    1.3365 H   0  0  0  0  0  0  0  0  0  0  0  0
   -0.1365   -3.9267    0.9150 H   0  0  0  0  0  0  0  0  0  0  0  0
  1  2  1  0
  1  3  1  0
  1  4  1  0
  4  5  1  0
  4  6  2  3
  6  7  1  0
  7  8  2  0
  7  9  2  0
  7 10  1  0
 10 11  1  0
 11 12  1  0
 12 13  1  0
 13 14  1  0
 14 15  1  0
 15 16  1  0
 16 17  2  0
 17 18  1  0
 18 19  2  0
 19 20  1  0
 19 21  1  0
 21 22  2  0
 22 23  1  0
 23 24  2  0
 14 25  1  0
 25 26  1  0
 25 27  1  0
 27 28  1  0
 27 12  1  0
 24 15  1  0
 24 18  1  0
  1 29  1  6
  2 30  1  0
  2 31  1  0
  2 32  1  0
  3 33  1  0
  3 34  1  0
  5 35  1  0
 11 36  1  0
 11 37  1  0
 12 38  1  6
 14 39  1  6
 16 40  1  0
 20 41  1  0
 20 42  1  0
 22 43  1  0
 25 44  1  1
 26 45  1  0
 27 46  1  1
 28 47  1  0
M  END
$$$$
