@<TRIPOS>MOLECULE
*****
 45 46 0 0 0
SMALL
GASTEIGER

@<TRIPOS>ATOM
      1 O          -4.0981   -0.9667    2.4545 O.3     1  UNL1       -0.3924
      2 C          -2.8246   -0.5571    2.0694 C.3     1  UNL1        0.0730
      3 C          -2.8770    0.4163    0.9128 C.3     1  UNL1        0.1130
      4 O          -1.6182    0.8205    0.5329 O.3     1  UNL1       -0.3405
      5 C          -0.9730   -0.1024   -0.2870 C.3     1  UNL1        0.1884
      6 O           0.3180    0.3874   -0.4729 O.3     1  UNL1       -0.3401
      7 C           1.3097   -0.5010   -0.1221 C.3     1  UNL1        0.1184
      8 C           2.1812   -0.7659   -1.3113 C.3     1  UNL1        0.1144
      9 O           2.6030   -2.1093   -1.3666 O.3     1  UNL1       -0.3864
     10 C           3.4458    0.0649   -1.2983 C.3     1  UNL1        0.1339
     11 O           3.2328    1.3923   -1.5847 O.3     1  UNL1       -0.3841
     12 C           4.1947   -0.1529   -0.0051 C.3     1  UNL1        0.1854
     13 O           4.7885    1.0135    0.4678 O.3     1  UNL1       -0.3649
     14 O           3.3359   -0.5874    1.0148 O.3     1  UNL1       -0.3407
     15 C           2.1675    0.1545    0.9315 C.3     1  UNL1        0.1134
     16 C           1.4557    0.2449    2.2636 C.3     1  UNL1        0.0730
     17 O           2.3259    0.8593    3.1640 O.3     1  UNL1       -0.3924
     18 C          -1.6196   -0.1850   -1.6569 C.3     1  UNL1        0.1341
     19 O          -0.9157    0.4732   -2.6394 O.3     1  UNL1       -0.3841
     20 C          -2.9882    0.4905   -1.5168 C.3     1  UNL1        0.1141
     21 O          -3.7776    0.3330   -2.6381 O.3     1  UNL1       -0.3864
     22 C          -3.6259   -0.1259   -0.2798 C.3     1  UNL1        0.1119
     23 O          -4.9759    0.2058   -0.2487 O.3     1  UNL1       -0.3865
     24 H          -4.3530   -0.6386    3.3534 H       1  UNL1        0.2095
     25 H          -2.3724    0.0035    2.9170 H       1  UNL1        0.0584
     26 H          -2.1606   -1.4231    1.8492 H       1  UNL1        0.0584
     27 H          -3.4235    1.3161    1.2727 H       1  UNL1        0.0647
     28 H          -0.9675   -1.1324    0.1150 H       1  UNL1        0.0938
     29 H           0.9130   -1.4678    0.2537 H       1  UNL1        0.0651
     30 H           1.6851   -0.5794   -2.2831 H       1  UNL1        0.0648
     31 H           3.4015   -2.1179   -1.9825 H       1  UNL1        0.2100
     32 H           4.1044   -0.3461   -2.1108 H       1  UNL1        0.0671
     33 H           2.3782    1.6023   -2.0008 H       1  UNL1        0.2101
     34 H           4.9750   -0.9343   -0.1128 H       1  UNL1        0.0935
     35 H           4.9595    0.9151    1.4449 H       1  UNL1        0.2126
     36 H           2.3706    1.1931    0.5985 H       1  UNL1        0.0647
     37 H           0.6113    0.9584    2.1380 H       1  UNL1        0.0584
     38 H           1.0485   -0.7082    2.6043 H       1  UNL1        0.0584
     39 H           3.2417    0.4468    3.0748 H       1  UNL1        0.2095
     40 H          -1.8630   -1.2329   -1.9517 H       1  UNL1        0.0671
     41 H          -0.6158   -0.1727   -3.3295 H       1  UNL1        0.2101
     42 H          -2.8098    1.5708   -1.2808 H       1  UNL1        0.0648
     43 H          -3.4232    0.9838   -3.3111 H       1  UNL1        0.2100
     44 H          -3.4733   -1.2249   -0.2969 H       1  UNL1        0.0647
     45 H          -5.2916    0.4454    0.6547 H       1  UNL1        0.2100
@<TRIPOS>BOND
     1     1     2    1
     2     2     3    1
     3     3     4    1
     4     4     5    1
     5     5     6    1
     6     6     7    1
     7     7     8    1
     8     8     9    1
     9     8    10    1
    10    10    11    1
    11    10    12    1
    12    12    13    1
    13    12    14    1
    14    14    15    1
    15    15    16    1
    16    16    17    1
    17     5    18    1
    18    18    19    1
    19    18    20    1
    20    20    21    1
    21    20    22    1
    22    22    23    1
    23    22     3    1
    24    15     7    1
    25     1    24    1
    26     2    25    1
    27     2    26    1
    28     3    27    1
    29     5    28    1
    30     7    29    1
    31     8    30    1
    32     9    31    1
    33    10    32    1
    34    11    33    1
    35    12    34    1
    36    13    35    1
    37    15    36    1
    38    16    37    1
    39    16    38    1
    40    17    39    1
    41    18    40    1
    42    19    41    1
    43    20    42    1
    44    21    43    1
    45    22    44    1
    46    23    45    1
