@<TRIPOS>MOLECULE
*****
 66 70 0 0 0
SMALL
GASTEIGER

@<TRIPOS>ATOM
      1 N           1.5092    0.1725   -1.3373 N.3     1  UNL1       -0.3173
      2 C           1.6986   -0.0032    0.0634 C.3     1  UNL1        0.0965
      3 C           0.3802    0.1990    0.7732 C.2     1  UNL1        0.2336
      4 O           0.3407    0.1472    2.0506 O.2     1  UNL1       -0.2738
      5 N          -0.7574    0.4367   -0.0103 N.am    1  UNL1       -0.3069
      6 C          -2.0657    0.6403    0.5938 C.3     1  UNL1        0.0496
      7 C          -2.6486    1.9645    0.2714 C.3     1  UNL1       -0.0175
      8 C          -3.9911    2.1235    0.9212 C.3     1  UNL1        0.0009
      9 N          -4.8999    1.1530    0.4205 N.3     1  UNL1       -0.3022
     10 C          -5.2276    1.4514   -0.9620 C.3     1  UNL1       -0.0011
     11 C          -6.4117    0.5245   -1.1559 C.3     1  UNL1       -0.0390
     12 C          -7.2446    0.8623    0.0865 C.3     1  UNL1       -0.0390
     13 C          -6.1630    1.0804    1.1217 C.3     1  UNL1       -0.0011
     14 C          -2.8761   -0.5363    0.2355 C.ar    1  UNL1       -0.0271
     15 C          -2.9345   -1.0908   -1.0335 C.ar    1  UNL1       -0.0554
     16 C          -3.7039   -2.2025   -1.2831 C.ar    1  UNL1       -0.0431
     17 C          -4.4350   -2.7957   -0.2875 C.ar    1  UNL1        0.0410
     18 CL         -5.4159   -4.2106   -0.5931 Cl      1  UNL1       -0.0835
     19 C          -4.3981   -2.2718    0.9768 C.ar    1  UNL1       -0.0431
     20 C          -3.6208   -1.1545    1.2129 C.ar    1  UNL1       -0.0554
     21 C           2.6324    1.0023    0.6976 C.3     1  UNL1       -0.0104
     22 C           4.0217    0.8853    0.0963 C.3     1  UNL1        0.0156
     23 N           4.4860   -0.4672    0.0816 N.pl3   1  UNL1       -0.3144
     24 C           5.8081   -0.8112    0.4416 C.ar    1  UNL1        0.1337
     25 N           6.0184   -1.6577    1.4835 N.ar    1  UNL1       -0.2200
     26 C           7.2783   -1.9920    1.8323 C.ar    1  UNL1        0.1204
     27 N           8.3140   -1.4952    1.1586 N.ar    1  UNL1       -0.2178
     28 C           8.1353   -0.6582    0.1266 C.ar    1  UNL1        0.1432
     29 N           9.0029   -0.0311   -0.7004 N.ar    1  UNL1       -0.3457
     30 C           8.3044    0.7149   -1.5911 C.ar    1  UNL1        0.0042
     31 C           6.9591    0.5666   -1.3339 C.ar    1  UNL1       -0.0318
     32 C           6.8570   -0.2967   -0.2546 C.ar    1  UNL1        0.0585
     33 C           3.5778   -1.5373   -0.3111 C.3     1  UNL1        0.0156
     34 C           2.2282   -1.3806    0.3329 C.3     1  UNL1       -0.0104
     35 H           2.2139   -0.2093   -1.9671 H       1  UNL1        0.1192
     36 H           1.1707    1.1267   -1.6028 H       1  UNL1        0.1192
     37 H          -0.6719    0.4682   -1.0444 H       1  UNL1        0.1493
     38 H          -1.9064    0.6005    1.7063 H       1  UNL1        0.0549
     39 H          -2.7535    2.1527   -0.8247 H       1  UNL1        0.0299
     40 H          -1.9453    2.7558    0.6171 H       1  UNL1        0.0299
     41 H          -4.3454    3.1707    0.6750 H       1  UNL1        0.0427
     42 H          -3.8546    2.0784    2.0265 H       1  UNL1        0.0427
     43 H          -5.6200    2.5070   -1.0450 H       1  UNL1        0.0426
     44 H          -4.3968    1.2849   -1.6414 H       1  UNL1        0.0426
     45 H          -6.0418   -0.5060   -1.0994 H       1  UNL1        0.0278
     46 H          -6.9679    0.7205   -2.0817 H       1  UNL1        0.0278
     47 H          -7.7978    1.7850   -0.1378 H       1  UNL1        0.0278
     48 H          -7.9116    0.0132    0.3511 H       1  UNL1        0.0278
     49 H          -6.3504    1.9639    1.7551 H       1  UNL1        0.0426
     50 H          -6.2019    0.1918    1.8082 H       1  UNL1        0.0426
     51 H          -2.3629   -0.6354   -1.8305 H       1  UNL1        0.0621
     52 H          -3.7164   -2.6013   -2.2963 H       1  UNL1        0.0632
     53 H          -4.9657   -2.7221    1.7844 H       1  UNL1        0.0632
     54 H          -3.6330   -0.7834    2.2486 H       1  UNL1        0.0621
     55 H           2.6888    0.7542    1.7721 H       1  UNL1        0.0303
     56 H           2.2900    2.0435    0.5543 H       1  UNL1        0.0303
     57 H           4.6930    1.5318    0.6919 H       1  UNL1        0.0465
     58 H           3.9490    1.3347   -0.9285 H       1  UNL1        0.0465
     59 H           7.4056   -2.6660    2.6656 H       1  UNL1        0.1048
     60 H          10.0520   -0.1196   -0.6457 H       1  UNL1        0.1668
     61 H           8.7245    1.3334   -2.3823 H       1  UNL1        0.0807
     62 H           6.1375    1.0165   -1.8508 H       1  UNL1        0.0640
     63 H           3.4928   -1.6355   -1.4030 H       1  UNL1        0.0465
     64 H           3.9757   -2.5196    0.0477 H       1  UNL1        0.0465
     65 H           1.5740   -2.1756   -0.1291 H       1  UNL1        0.0303
     66 H           2.3171   -1.5916    1.4204 H       1  UNL1        0.0303
@<TRIPOS>BOND
     1     1     2    1
     2     2     3    1
     3     3     4    2
     4     3     5   am
     5     5     6    1
     6     6     7    1
     7     7     8    1
     8     8     9    1
     9     9    10    1
    10    10    11    1
    11    11    12    1
    12    12    13    1
    13     6    14    1
    14    14    15   ar
    15    15    16   ar
    16    16    17   ar
    17    17    18    1
    18    17    19   ar
    19    19    20   ar
    20     2    21    1
    21    21    22    1
    22    22    23    1
    23    23    24    1
    24    24    25   ar
    25    25    26   ar
    26    26    27   ar
    27    27    28   ar
    28    28    29   ar
    29    29    30   ar
    30    30    31   ar
    31    31    32   ar
    32    23    33    1
    33    33    34    1
    34    34     2    1
    35    13     9    1
    36    20    14   ar
    37    32    24   ar
    38    32    28   ar
    39     1    35    1
    40     1    36    1
    41     5    37    1
    42     6    38    1
    43     7    39    1
    44     7    40    1
    45     8    41    1
    46     8    42    1
    47    10    43    1
    48    10    44    1
    49    11    45    1
    50    11    46    1
    51    12    47    1
    52    12    48    1
    53    13    49    1
    54    13    50    1
    55    15    51    1
    56    16    52    1
    57    19    53    1
    58    20    54    1
    59    21    55    1
    60    21    56    1
    61    22    57    1
    62    22    58    1
    63    26    59    1
    64    29    60    1
    65    30    61    1
    66    31    62    1
    67    33    63    1
    68    33    64    1
    69    34    65    1
    70    34    66    1
