
     RDKit          3D

 55 59  0  0  0  0  0  0  0  0999 V2000
    7.8659    1.1873   -3.8076 C   0  0  0  0  0  0  0  0  0  0  0  0
    7.8112    0.2141   -2.7361 N   0  0  0  0  0  0  0  0  0  0  0  0
    6.8775    0.4907   -1.6104 C   0  0  0  0  0  0  0  0  0  0  0  0
    5.8558    0.2828   -1.1973 N   0  0  0  0  0  0  0  0  0  0  0  0
    5.2417    0.7048   -0.1087 C   0  0  0  0  0  0  0  0  0  0  0  0
    3.8478    0.3266    0.2966 C   0  0  0  0  0  0  0  0  0  0  0  0
    3.3148    0.8436    1.4530 C   0  0  0  0  0  0  0  0  0  0  0  0
    2.0281    0.4980    1.8150 C   0  0  0  0  0  0  0  0  0  0  0  0
    1.2745   -0.3621    1.0253 C   0  0  0  0  0  0  0  0  0  0  0  0
    1.8271   -0.8669   -0.1225 C   0  0  0  0  0  0  0  0  0  0  0  0
    3.1060   -0.5147   -0.4716 C   0  0  0  0  0  0  0  0  0  0  0  0
    0.8106   -1.7725   -0.7447 C   0  0  0  0  0  0  0  0  0  0  0  0
   -0.4797   -1.2896   -0.1466 C   0  0  0  0  0  0  0  0  0  0  0  0
   -0.0819   -0.8457    1.1770 N   0  0  0  0  0  0  0  0  0  0  0  0
   -0.8506   -0.8557    2.3702 C   0  0  0  0  0  0  0  0  0  0  0  0
   -0.4077   -0.3928    3.4520 O   0  0  0  0  0  0  0  0  0  0  0  0
   -2.1974   -1.4346    2.2918 C   0  0  0  0  0  0  0  0  0  0  0  0
   -2.3472   -2.7611    2.5765 C   0  0  0  0  0  0  0  0  0  0  0  0
   -3.6067   -3.3222    2.5197 C   0  0  0  0  0  0  0  0  0  0  0  0
   -4.6984   -2.5533    2.1799 C   0  0  0  0  0  0  0  0  0  0  0  0
   -4.5597   -1.2168    1.8913 C   0  0  0  0  0  0  0  0  0  0  0  0
   -3.3080   -0.6460    1.9440 C   0  0  0  0  0  0  0  0  0  0  0  0
   -3.0981    0.6577    1.6734 O   0  0  0  0  0  0  0  0  0  0  0  0
   -3.7513    1.7726    1.3113 C   0  0  0  0  0  0  0  0  0  0  0  0
   -4.4540    1.7470   -0.0114 C   0  0  0  0  0  0  0  0  0  0  0  0
   -3.7104    1.9908   -1.1737 C   0  0  0  0  0  0  0  0  0  0  0  0
   -4.3057    2.0109   -2.3969 C   0  0  0  0  0  0  0  0  0  0  0  0
   -5.6619    1.7932   -2.5469 C   0  0  0  0  0  0  0  0  0  0  0  0
   -6.4126    1.8229   -4.1262 Cl  0  0  0  0  0  0  0  0  0  0  0  0
   -6.3926    1.5536   -1.4015 C   0  0  0  0  0  0  0  0  0  0  0  0
   -5.8043    1.5290   -0.1417 C   0  0  0  0  0  0  0  0  0  0  0  0
    5.9936    1.5500    0.6524 C   0  0  0  0  0  0  0  0  0  0  0  0
    7.5539    1.6755   -0.2739 S   0  0  0  0  0  0  0  0  0  0  0  0
    7.1671    0.9332   -4.6292 H   0  0  0  0  0  0  0  0  0  0  0  0
    7.7074    2.2010   -3.3840 H   0  0  0  0  0  0  0  0  0  0  0  0
    8.9089    1.1388   -4.2070 H   0  0  0  0  0  0  0  0  0  0  0  0
    8.3836   -0.6524   -2.7231 H   0  0  0  0  0  0  0  0  0  0  0  0
    3.9041    1.5203    2.0783 H   0  0  0  0  0  0  0  0  0  0  0  0
    1.5868    0.8966    2.7294 H   0  0  0  0  0  0  0  0  0  0  0  0
    3.5474   -0.9132   -1.3850 H   0  0  0  0  0  0  0  0  0  0  0  0
    0.8845   -1.6093   -1.8357 H   0  0  0  0  0  0  0  0  0  0  0  0
    1.0209   -2.8345   -0.4691 H   0  0  0  0  0  0  0  0  0  0  0  0
   -1.1612   -2.1849   -0.1051 H   0  0  0  0  0  0  0  0  0  0  0  0
   -0.9186   -0.4562   -0.7407 H   0  0  0  0  0  0  0  0  0  0  0  0
   -1.5064   -3.3890    2.8457 H   0  0  0  0  0  0  0  0  0  0  0  0
   -3.7061   -4.3887    2.7513 H   0  0  0  0  0  0  0  0  0  0  0  0
   -5.6891   -2.9944    2.1345 H   0  0  0  0  0  0  0  0  0  0  0  0
   -5.4398   -0.6090    1.6301 H   0  0  0  0  0  0  0  0  0  0  0  0
   -2.9932    2.6202    1.1800 H   0  0  0  0  0  0  0  0  0  0  0  0
   -4.5130    2.1525    2.0513 H   0  0  0  0  0  0  0  0  0  0  0  0
   -2.6508    2.1633   -1.0891 H   0  0  0  0  0  0  0  0  0  0  0  0
   -3.7518    2.2012   -3.3243 H   0  0  0  0  0  0  0  0  0  0  0  0
   -7.4552    1.3795   -1.4806 H   0  0  0  0  0  0  0  0  0  0  0  0
   -6.4081    1.3451    0.7507 H   0  0  0  0  0  0  0  0  0  0  0  0
    5.8023    2.0834    1.6103 H   0  0  0  0  0  0  0  0  0  0  0  0
  1  2  1  0
  2  3  1  0
  3  4  2  0
  4  5  1  0
  5  6  1  0
  6  7  2  0
  7  8  1  0
  8  9  2  0
  9 10  1  0
 10 11  2  0
 10 12  1  0
 12 13  1  0
 13 14  1  0
 14 15  1  0
 15 16  2  0
 15 17  1  0
 17 18  2  0
 18 19  1  0
 19 20  2  0
 20 21  1  0
 21 22  2  0
 22 23  1  0
 23 24  1  0
 24 25  1  0
 25 26  2  0
 26 27  1  0
 27 28  2  0
 28 29  1  0
 28 30  1  0
 30 31  2  0
  5 32  2  0
 32 33  1  0
 33  3  1  0
 11  6  1  0
 22 17  1  0
 31 25  1  0
 14  9  1  0
  1 34  1  0
  1 35  1  0
  1 36  1  0
  2 37  1  0
  7 38  1  0
  8 39  1  0
 11 40  1  0
 12 41  1  0
 12 42  1  0
 13 43  1  0
 13 44  1  0
 18 45  1  0
 19 46  1  0
 20 47  1  0
 21 48  1  0
 24 49  1  0
 24 50  1  0
 26 51  1  0
 27 52  1  0
 30 53  1  0
 31 54  1  0
 32 55  1  0
M  END
$$$$
