@<TRIPOS>MOLECULE
*****
 55 59 0 0 0
SMALL
GASTEIGER

@<TRIPOS>ATOM
      1 C           7.8659    1.1873   -3.8076 C.3     1  UNL1       -0.0006
      2 N           7.8112    0.2141   -2.7361 N.pl3   1  UNL1       -0.3265
      3 C           6.8775    0.4907   -1.6104 C.ar    1  UNL1        0.1584
      4 N           5.8558    0.2828   -1.1973 N.ar    1  UNL1       -0.2250
      5 C           5.2417    0.7048   -0.1087 C.ar    1  UNL1        0.0802
      6 C           3.8478    0.3266    0.2966 C.ar    1  UNL1        0.0013
      7 C           3.3148    0.8436    1.4530 C.ar    1  UNL1       -0.0508
      8 C           2.0281    0.4980    1.8150 C.ar    1  UNL1       -0.0394
      9 C           1.2745   -0.3621    1.0253 C.ar    1  UNL1        0.0398
     10 C           1.8271   -0.8669   -0.1225 C.ar    1  UNL1       -0.0238
     11 C           3.1060   -0.5147   -0.4716 C.ar    1  UNL1       -0.0476
     12 C           0.8106   -1.7725   -0.7447 C.3     1  UNL1       -0.0096
     13 C          -0.4797   -1.2896   -0.1466 C.3     1  UNL1        0.0241
     14 N          -0.0819   -0.8457    1.1770 N.am    1  UNL1       -0.2668
     15 C          -0.8506   -0.8557    2.3702 C.2     1  UNL1        0.2544
     16 O          -0.4077   -0.3928    3.4520 O.2     1  UNL1       -0.2695
     17 C          -2.1974   -1.4346    2.2918 C.ar    1  UNL1        0.0788
     18 C          -2.3472   -2.7611    2.5765 C.ar    1  UNL1       -0.0461
     19 C          -3.6067   -3.3222    2.5197 C.ar    1  UNL1       -0.0608
     20 C          -4.6984   -2.5533    2.1799 C.ar    1  UNL1       -0.0583
     21 C          -4.5597   -1.2168    1.8913 C.ar    1  UNL1       -0.0192
     22 C          -3.3080   -0.6460    1.9440 C.ar    1  UNL1        0.1331
     23 O          -3.0981    0.6577    1.6734 O.3     1  UNL1       -0.4866
     24 C          -3.7513    1.7726    1.3113 C.3     1  UNL1        0.1147
     25 C          -4.4540    1.7470   -0.0114 C.ar    1  UNL1       -0.0103
     26 C          -3.7104    1.9908   -1.1737 C.ar    1  UNL1       -0.0540
     27 C          -4.3057    2.0109   -2.3969 C.ar    1  UNL1       -0.0430
     28 C          -5.6619    1.7932   -2.5469 C.ar    1  UNL1        0.0410
     29 CL         -6.4126    1.8229   -4.1262 Cl      1  UNL1       -0.0835
     30 C          -6.3926    1.5536   -1.4015 C.ar    1  UNL1       -0.0430
     31 C          -5.8043    1.5290   -0.1417 C.ar    1  UNL1       -0.0540
     32 C           5.9936    1.5500    0.6524 C.ar    1  UNL1        0.0049
     33 S           7.5539    1.6755   -0.2739 S.2     1  UNL1       -0.0603
     34 H           7.1671    0.9332   -4.6292 H       1  UNL1        0.0426
     35 H           7.7074    2.2010   -3.3840 H       1  UNL1        0.0426
     36 H           8.9089    1.1388   -4.2070 H       1  UNL1        0.0426
     37 H           8.3836   -0.6524   -2.7231 H       1  UNL1        0.1476
     38 H           3.9041    1.5203    2.0783 H       1  UNL1        0.0625
     39 H           1.5868    0.8966    2.7294 H       1  UNL1        0.0636
     40 H           3.5474   -0.9132   -1.3850 H       1  UNL1        0.0627
     41 H           0.8845   -1.6093   -1.8357 H       1  UNL1        0.0329
     42 H           1.0209   -2.8345   -0.4691 H       1  UNL1        0.0329
     43 H          -1.1612   -2.1849   -0.1051 H       1  UNL1        0.0472
     44 H          -0.9186   -0.4562   -0.7407 H       1  UNL1        0.0472
     45 H          -1.5064   -3.3890    2.8457 H       1  UNL1        0.0626
     46 H          -3.7061   -4.3887    2.7513 H       1  UNL1        0.0618
     47 H          -5.6891   -2.9944    2.1345 H       1  UNL1        0.0619
     48 H          -5.4398   -0.6090    1.6301 H       1  UNL1        0.0654
     49 H          -2.9932    2.6202    1.1800 H       1  UNL1        0.0748
     50 H          -4.5130    2.1525    2.0513 H       1  UNL1        0.0748
     51 H          -2.6508    2.1633   -1.0891 H       1  UNL1        0.0622
     52 H          -3.7518    2.2012   -3.3243 H       1  UNL1        0.0632
     53 H          -7.4552    1.3795   -1.4806 H       1  UNL1        0.0632
     54 H          -6.4081    1.3451    0.7507 H       1  UNL1        0.0622
     55 H           5.8023    2.0834    1.6103 H       1  UNL1        0.0716
@<TRIPOS>BOND
     1     1     2    1
     2     2     3    1
     3     3     4   ar
     4     4     5   ar
     5     5     6    1
     6     6     7   ar
     7     7     8   ar
     8     8     9   ar
     9     9    10   ar
    10    10    11   ar
    11    10    12    1
    12    12    13    1
    13    13    14    1
    14    14    15   am
    15    15    16    2
    16    15    17    1
    17    17    18   ar
    18    18    19   ar
    19    19    20   ar
    20    20    21   ar
    21    21    22   ar
    22    22    23    1
    23    23    24    1
    24    24    25    1
    25    25    26   ar
    26    26    27   ar
    27    27    28   ar
    28    28    29    1
    29    28    30   ar
    30    30    31   ar
    31     5    32   ar
    32    32    33   ar
    33    33     3   ar
    34    11     6   ar
    35    22    17   ar
    36    31    25   ar
    37    14     9    1
    38     1    34    1
    39     1    35    1
    40     1    36    1
    41     2    37    1
    42     7    38    1
    43     8    39    1
    44    11    40    1
    45    12    41    1
    46    12    42    1
    47    13    43    1
    48    13    44    1
    49    18    45    1
    50    19    46    1
    51    20    47    1
    52    21    48    1
    53    24    49    1
    54    24    50    1
    55    26    51    1
    56    27    52    1
    57    30    53    1
    58    31    54    1
    59    32    55    1
