@<TRIPOS>MOLECULE
*****
 49 49 0 0 0
SMALL
GASTEIGER

@<TRIPOS>ATOM
      1 C          -5.4776    1.1014   -1.2254 C.3     1  UNL1       -0.0499
      2 C          -5.6113   -0.1698   -0.4155 C.3     1  UNL1        0.0021
      3 C          -6.0186   -1.3207   -1.2798 C.3     1  UNL1       -0.0499
      4 N          -4.3188   -0.5092    0.1930 N.3     1  UNL1       -0.3112
      5 C          -3.8709    0.5413    1.0578 C.3     1  UNL1        0.0254
      6 C          -2.5380    0.2287    1.7115 C.3     1  UNL1        0.1015
      7 O          -2.2544    1.3460    2.5141 O.3     1  UNL1       -0.3872
      8 C          -1.4375    0.0694    0.6603 C.3     1  UNL1        0.1166
      9 O          -0.2302   -0.1080    1.3574 O.3     1  UNL1       -0.4891
     10 C           1.0147   -0.2890    0.7713 C.ar    1  UNL1        0.1242
     11 C           2.1206   -0.4521    1.5805 C.ar    1  UNL1       -0.0024
     12 C           1.9939   -0.4357    3.0469 C.3     1  UNL1       -0.0359
     13 C           3.3911   -0.6369    1.0296 C.ar    1  UNL1       -0.0015
     14 C           4.5853   -0.8131    1.8951 C.3     1  UNL1       -0.0359
     15 C           3.4957   -0.6497   -0.3463 C.ar    1  UNL1        0.1379
     16 O           4.7586   -0.8332   -0.9350 O.3     1  UNL1       -0.4255
     17 C           5.6017    0.2263   -1.2201 C.2     1  UNL1        0.3092
     18 C           6.4149    1.4295   -1.4786 C.3     1  UNL1        0.0336
     19 O           4.5139    0.6374   -0.6893 O.2     1  UNL1       -0.2507
     20 C           2.4236   -0.4913   -1.2187 C.ar    1  UNL1       -0.0043
     21 C           2.5219   -0.5036   -2.6791 C.3     1  UNL1       -0.0361
     22 C           1.1895   -0.3121   -0.5978 C.ar    1  UNL1       -0.0133
     23 H          -6.1829    1.1064   -2.0639 H       1  UNL1        0.0245
     24 H          -4.4056    1.1976   -1.5330 H       1  UNL1        0.0245
     25 H          -5.7202    1.9680   -0.5640 H       1  UNL1        0.0245
     26 H          -6.3644   -0.0281    0.3855 H       1  UNL1        0.0455
     27 H          -5.5423   -1.2338   -2.2992 H       1  UNL1        0.0245
     28 H          -5.7414   -2.2739   -0.7714 H       1  UNL1        0.0245
     29 H          -7.1035   -1.3533   -1.4320 H       1  UNL1        0.0245
     30 H          -3.6296   -0.6783   -0.5706 H       1  UNL1        0.1223
     31 H          -4.6147    0.7061    1.8572 H       1  UNL1        0.0450
     32 H          -3.7295    1.5044    0.4893 H       1  UNL1        0.0450
     33 H          -2.6585   -0.6696    2.3256 H       1  UNL1        0.0640
     34 H          -1.7780    2.0434    2.0109 H       1  UNL1        0.2100
     35 H          -1.3867    1.0488    0.1412 H       1  UNL1        0.0723
     36 H          -1.6619   -0.7172   -0.0538 H       1  UNL1        0.0723
     37 H           0.9471   -0.2895    3.3320 H       1  UNL1        0.0279
     38 H           2.6972    0.3131    3.4507 H       1  UNL1        0.0279
     39 H           2.2910   -1.4566    3.4146 H       1  UNL1        0.0279
     40 H           5.2865    0.0292    1.8788 H       1  UNL1        0.0279
     41 H           5.1510   -1.7464    1.6185 H       1  UNL1        0.0279
     42 H           4.2153   -0.9502    2.9484 H       1  UNL1        0.0279
     43 H           5.8733    2.0807   -2.1842 H       1  UNL1        0.0342
     44 H           7.3836    1.1789   -1.9617 H       1  UNL1        0.0342
     45 H           6.6115    1.9806   -0.5413 H       1  UNL1        0.0342
     46 H           2.4174   -1.5638   -3.0535 H       1  UNL1        0.0279
     47 H           3.4225   -0.0684   -3.1109 H       1  UNL1        0.0279
     48 H           1.6147    0.0028   -3.0925 H       1  UNL1        0.0279
     49 H           0.3399   -0.1868   -1.2528 H       1  UNL1        0.0658
@<TRIPOS>BOND
     1     1     2    1
     2     2     3    1
     3     2     4    1
     4     4     5    1
     5     5     6    1
     6     6     7    1
     7     6     8    1
     8     8     9    1
     9     9    10    1
    10    10    11   ar
    11    11    12    1
    12    11    13   ar
    13    13    14    1
    14    13    15   ar
    15    15    16    1
    16    16    17    1
    17    17    18    1
    18    17    19    2
    19    15    20   ar
    20    20    21    1
    21    20    22   ar
    22    22    10   ar
    23     1    23    1
    24     1    24    1
    25     1    25    1
    26     2    26    1
    27     3    27    1
    28     3    28    1
    29     3    29    1
    30     4    30    1
    31     5    31    1
    32     5    32    1
    33     6    33    1
    34     7    34    1
    35     8    35    1
    36     8    36    1
    37    12    37    1
    38    12    38    1
    39    12    39    1
    40    14    40    1
    41    14    41    1
    42    14    42    1
    43    18    43    1
    44    18    44    1
    45    18    45    1
    46    21    46    1
    47    21    47    1
    48    21    48    1
    49    22    49    1
