
     RDKit          3D

 49 49  0  0  0  0  0  0  0  0999 V2000
   -5.4776    1.1014   -1.2254 C   0  0  0  0  0  0  0  0  0  0  0  0
   -5.6113   -0.1698   -0.4155 C   0  0  0  0  0  0  0  0  0  0  0  0
   -6.0186   -1.3207   -1.2798 C   0  0  0  0  0  0  0  0  0  0  0  0
   -4.3188   -0.5092    0.1930 N   0  0  0  0  0  0  0  0  0  0  0  0
   -3.8709    0.5413    1.0578 C   0  0  0  0  0  0  0  0  0  0  0  0
   -2.5380    0.2287    1.7115 C   0  0  0  0  0  0  0  0  0  0  0  0
   -2.2544    1.3460    2.5141 O   0  0  0  0  0  0  0  0  0  0  0  0
   -1.4375    0.0694    0.6603 C   0  0  0  0  0  0  0  0  0  0  0  0
   -0.2302   -0.1080    1.3574 O   0  0  0  0  0  0  0  0  0  0  0  0
    1.0147   -0.2890    0.7713 C   0  0  0  0  0  0  0  0  0  0  0  0
    2.1206   -0.4521    1.5805 C   0  0  0  0  0  0  0  0  0  0  0  0
    1.9939   -0.4357    3.0469 C   0  0  0  0  0  0  0  0  0  0  0  0
    3.3911   -0.6369    1.0296 C   0  0  0  0  0  0  0  0  0  0  0  0
    4.5853   -0.8131    1.8951 C   0  0  0  0  0  0  0  0  0  0  0  0
    3.4957   -0.6497   -0.3463 C   0  0  0  0  0  0  0  0  0  0  0  0
    4.7586   -0.8332   -0.9350 O   0  0  0  0  0  0  0  0  0  0  0  0
    5.6017    0.2263   -1.2201 C   0  0  0  0  0  0  0  0  0  0  0  0
    6.4149    1.4295   -1.4786 C   0  0  0  0  0  0  0  0  0  0  0  0
    4.5139    0.6374   -0.6893 O   0  0  0  0  0  0  0  0  0  0  0  0
    2.4236   -0.4913   -1.2187 C   0  0  0  0  0  0  0  0  0  0  0  0
    2.5219   -0.5036   -2.6791 C   0  0  0  0  0  0  0  0  0  0  0  0
    1.1895   -0.3121   -0.5978 C   0  0  0  0  0  0  0  0  0  0  0  0
   -6.1829    1.1064   -2.0639 H   0  0  0  0  0  0  0  0  0  0  0  0
   -4.4056    1.1976   -1.5330 H   0  0  0  0  0  0  0  0  0  0  0  0
   -5.7202    1.9680   -0.5640 H   0  0  0  0  0  0  0  0  0  0  0  0
   -6.3644   -0.0281    0.3855 H   0  0  0  0  0  0  0  0  0  0  0  0
   -5.5423   -1.2338   -2.2992 H   0  0  0  0  0  0  0  0  0  0  0  0
   -5.7414   -2.2739   -0.7714 H   0  0  0  0  0  0  0  0  0  0  0  0
   -7.1035   -1.3533   -1.4320 H   0  0  0  0  0  0  0  0  0  0  0  0
   -3.6296   -0.6783   -0.5706 H   0  0  0  0  0  0  0  0  0  0  0  0
   -4.6147    0.7061    1.8572 H   0  0  0  0  0  0  0  0  0  0  0  0
   -3.7295    1.5044    0.4893 H   0  0  0  0  0  0  0  0  0  0  0  0
   -2.6585   -0.6696    2.3256 H   0  0  0  0  0  0  0  0  0  0  0  0
   -1.7780    2.0434    2.0109 H   0  0  0  0  0  0  0  0  0  0  0  0
   -1.3867    1.0488    0.1412 H   0  0  0  0  0  0  0  0  0  0  0  0
   -1.6619   -0.7172   -0.0538 H   0  0  0  0  0  0  0  0  0  0  0  0
    0.9471   -0.2895    3.3320 H   0  0  0  0  0  0  0  0  0  0  0  0
    2.6972    0.3131    3.4507 H   0  0  0  0  0  0  0  0  0  0  0  0
    2.2910   -1.4566    3.4146 H   0  0  0  0  0  0  0  0  0  0  0  0
    5.2865    0.0292    1.8788 H   0  0  0  0  0  0  0  0  0  0  0  0
    5.1510   -1.7464    1.6185 H   0  0  0  0  0  0  0  0  0  0  0  0
    4.2153   -0.9502    2.9484 H   0  0  0  0  0  0  0  0  0  0  0  0
    5.8733    2.0807   -2.1842 H   0  0  0  0  0  0  0  0  0  0  0  0
    7.3836    1.1789   -1.9617 H   0  0  0  0  0  0  0  0  0  0  0  0
    6.6115    1.9806   -0.5413 H   0  0  0  0  0  0  0  0  0  0  0  0
    2.4174   -1.5638   -3.0535 H   0  0  0  0  0  0  0  0  0  0  0  0
    3.4225   -0.0684   -3.1109 H   0  0  0  0  0  0  0  0  0  0  0  0
    1.6147    0.0028   -3.0925 H   0  0  0  0  0  0  0  0  0  0  0  0
    0.3399   -0.1868   -1.2528 H   0  0  0  0  0  0  0  0  0  0  0  0
  1  2  1  0
  2  3  1  0
  2  4  1  0
  4  5  1  0
  5  6  1  0
  6  7  1  0
  6  8  1  0
  8  9  1  0
  9 10  1  0
 10 11  2  0
 11 12  1  0
 11 13  1  0
 13 14  1  0
 13 15  2  0
 15 16  1  0
 16 17  1  0
 17 18  1  0
 17 19  2  0
 15 20  1  0
 20 21  1  0
 20 22  2  0
 22 10  1  0
  1 23  1  0
  1 24  1  0
  1 25  1  0
  2 26  1  0
  3 27  1  0
  3 28  1  0
  3 29  1  0
  4 30  1  0
  5 31  1  0
  5 32  1  0
  6 33  1  0
  7 34  1  0
  8 35  1  0
  8 36  1  0
 12 37  1  0
 12 38  1  0
 12 39  1  0
 14 40  1  0
 14 41  1  0
 14 42  1  0
 18 43  1  0
 18 44  1  0
 18 45  1  0
 21 46  1  0
 21 47  1  0
 21 48  1  0
 22 49  1  0
M  END
$$$$
