
     RDKit          3D

 42 44  0  0  0  0  0  0  0  0999 V2000
   -4.1350    0.4307    0.3601 C   0  0  0  0  0  0  0  0  0  0  0  0
   -2.8047    0.1546   -0.0734 N   0  0  0  0  0  0  0  0  0  0  0  0
   -2.1380   -0.9390    0.5416 C   0  0  0  0  0  0  0  0  0  0  0  0
   -2.6358   -1.7774    1.5115 C   0  0  0  0  0  0  0  0  0  0  0  0
   -1.9561   -2.8414    2.0620 C   0  0  0  0  0  0  0  0  0  0  0  0
   -0.6787   -3.0793    1.6016 C   0  0  0  0  0  0  0  0  0  0  0  0
   -0.1532   -2.2542    0.6297 C   0  0  0  0  0  0  0  0  0  0  0  0
   -0.8630   -1.1760    0.0836 C   0  0  0  0  0  0  0  0  0  0  0  0
   -0.0177   -0.4675   -0.9159 C   0  0  0  0  0  0  0  0  0  0  0  0
    0.2596   -1.4224   -1.9859 C   0  0  0  0  0  0  0  0  0  0  0  0
    0.4736   -2.1803   -2.8303 N   0  0  0  0  0  0  0  0  0  0  0  0
    1.2275    0.0377   -0.2870 C   0  0  0  0  0  0  0  0  0  0  0  0
    0.8957   -0.2974    0.9069 O   0  0  0  0  0  0  0  0  0  0  0  0
    2.4465    0.6585   -0.5329 N   0  0  0  0  0  0  0  0  0  0  0  0
    3.3007    0.9069    0.5870 C   0  0  0  0  0  0  0  0  0  0  0  0
    3.7366   -0.2921    1.3528 C   0  0  0  0  0  0  0  0  0  0  0  0
    4.6159    0.2142    2.4674 C   0  0  0  0  0  0  0  0  0  0  0  0
    5.2660    1.2007    3.2016 O   0  0  0  0  0  0  0  0  0  0  0  0
    5.1199   -0.6243    3.2723 O   0  0  0  0  0  0  0  0  0  0  0  0
   -0.8595    0.6107   -1.4953 C   0  0  0  0  0  0  0  0  0  0  0  0
   -2.1505    0.9144   -1.0859 C   0  0  0  0  0  0  0  0  0  0  0  0
   -2.8182    1.9579   -1.6924 C   0  0  0  0  0  0  0  0  0  0  0  0
   -2.2949    2.7439   -2.6999 C   0  0  0  0  0  0  0  0  0  0  0  0
   -0.9931    2.4528   -3.1294 C   0  0  0  0  0  0  0  0  0  0  0  0
   -0.3292    1.3917   -2.5034 C   0  0  0  0  0  0  0  0  0  0  0  0
   -4.7298    0.8179   -0.5213 H   0  0  0  0  0  0  0  0  0  0  0  0
   -4.6419   -0.5581    0.5633 H   0  0  0  0  0  0  0  0  0  0  0  0
   -4.2361    1.1177    1.2016 H   0  0  0  0  0  0  0  0  0  0  0  0
   -3.6311   -1.5857    1.8747 H   0  0  0  0  0  0  0  0  0  0  0  0
   -2.4268   -3.4385    2.8128 H   0  0  0  0  0  0  0  0  0  0  0  0
   -0.1683   -3.9192    2.0488 H   0  0  0  0  0  0  0  0  0  0  0  0
    0.8701   -2.5700    0.3669 H   0  0  0  0  0  0  0  0  0  0  0  0
    2.4447    0.8005   -1.5584 H   0  0  0  0  0  0  0  0  0  0  0  0
    2.8850    1.6508    1.2992 H   0  0  0  0  0  0  0  0  0  0  0  0
    4.2180    1.3821    0.1824 H   0  0  0  0  0  0  0  0  0  0  0  0
    2.9483   -0.8642    1.8535 H   0  0  0  0  0  0  0  0  0  0  0  0
    4.4221   -0.9354    0.7439 H   0  0  0  0  0  0  0  0  0  0  0  0
    6.1065    1.5986    2.8006 H   0  0  0  0  0  0  0  0  0  0  0  0
   -3.8197    2.2667   -1.4306 H   0  0  0  0  0  0  0  0  0  0  0  0
   -2.8270    3.5626   -3.1715 H   0  0  0  0  0  0  0  0  0  0  0  0
   -0.5802    3.0666   -3.9193 H   0  0  0  0  0  0  0  0  0  0  0  0
    0.6518    1.2842   -2.9451 H   0  0  0  0  0  0  0  0  0  0  0  0
  1  2  1  0
  2  3  1  0
  3  4  2  0
  4  5  1  0
  5  6  2  0
  6  7  1  0
  7  8  2  0
  8  9  1  0
  9 10  1  0
 10 11  3  0
  9 12  1  0
 12 13  2  0
 12 14  1  0
 14 15  1  0
 15 16  1  0
 16 17  1  0
 17 18  1  0
 17 19  2  0
  9 20  1  0
 20 21  2  0
 21 22  1  0
 22 23  2  0
 23 24  1  0
 24 25  2  0
 21  2  1  0
  8  3  1  0
 25 20  1  0
  1 26  1  0
  1 27  1  0
  1 28  1  0
  4 29  1  0
  5 30  1  0
  6 31  1  0
  7 32  1  0
 14 33  1  0
 15 34  1  0
 15 35  1  0
 16 36  1  0
 16 37  1  0
 18 38  1  0
 22 39  1  0
 23 40  1  0
 24 41  1  0
 25 42  1  0
M  END
$$$$
