@<TRIPOS>MOLECULE
*****
 49 52 0 0 0
SMALL
GASTEIGER

@<TRIPOS>ATOM
      1 C          -7.2496   -1.9103    1.5557 C.3     1  UNL1       -0.0200
      2 C          -6.9994   -0.8491    0.5692 C.ar    1  UNL1        0.0674
      3 N          -7.9337   -0.1490   -0.0808 N.ar    1  UNL1       -0.1780
      4 N          -7.3591    0.7301   -0.8980 N.ar    1  UNL1       -0.2767
      5 C          -6.0113    0.6254   -0.8015 C.ar    1  UNL1        0.0660
      6 C          -4.9555    1.2772   -1.4078 C.ar    1  UNL1       -0.0357
      7 C          -3.6603    0.9291   -1.0851 C.ar    1  UNL1       -0.0520
      8 C          -3.3770   -0.0650   -0.1615 C.ar    1  UNL1       -0.0156
      9 C          -2.0037   -0.4290    0.1751 C.ar    1  UNL1        0.0037
     10 C          -1.6454   -1.7100    0.5441 C.ar    1  UNL1        0.0355
     11 N          -0.3834   -2.0562    0.8557 N.ar    1  UNL1       -0.2590
     12 C           0.5636   -1.1033    0.8019 C.ar    1  UNL1        0.0692
     13 C           0.3187    0.2059    0.4468 C.ar    1  UNL1        0.1392
     14 O           1.3144    1.1812    0.3964 O.3     1  UNL1       -0.4889
     15 C           2.6286    0.7608    0.7348 C.3     1  UNL1        0.1050
     16 C           3.6290    1.8646    0.6546 C.3     1  UNL1        0.0434
     17 N           3.3161    2.9692    1.5435 N.3     1  UNL1       -0.3242
     18 C           4.9926    1.3027    0.9883 C.3     1  UNL1       -0.0093
     19 C           5.3843    0.2388    0.0549 C.ar    1  UNL1       -0.0458
     20 C           6.0619    0.6163   -1.1076 C.ar    1  UNL1       -0.0585
     21 C           6.4580   -0.3483   -2.0161 C.ar    1  UNL1       -0.0615
     22 C           6.2155   -1.6858   -1.8324 C.ar    1  UNL1       -0.0617
     23 C           5.5450   -2.0680   -0.6838 C.ar    1  UNL1       -0.0615
     24 C           5.1521   -1.1014    0.2194 C.ar    1  UNL1       -0.0585
     25 C          -1.0061    0.5214    0.1311 C.ar    1  UNL1       -0.0093
     26 C          -4.4657   -0.6842    0.4145 C.ar    1  UNL1       -0.0430
     27 C          -5.7846   -0.3743    0.1273 C.ar    1  UNL1        0.0230
     28 H          -6.4083   -1.9564    2.3075 H       1  UNL1        0.0293
     29 H          -7.2416   -2.9297    1.0829 H       1  UNL1        0.0293
     30 H          -8.1629   -1.7390    2.1579 H       1  UNL1        0.0293
     31 H          -7.8740    1.3929   -1.5136 H       1  UNL1        0.1889
     32 H          -5.1945    2.0490   -2.1247 H       1  UNL1        0.0639
     33 H          -2.8494    1.4451   -1.5650 H       1  UNL1        0.0624
     34 H          -2.4655   -2.4323    0.5663 H       1  UNL1        0.0836
     35 H           1.5868   -1.3531    1.0473 H       1  UNL1        0.0867
     36 H           2.9339   -0.0778    0.0874 H       1  UNL1        0.0712
     37 H           2.5773    0.3751    1.7732 H       1  UNL1        0.0712
     38 H           3.6642    2.2381   -0.3907 H       1  UNL1        0.0495
     39 H           2.4451    2.7934    2.0544 H       1  UNL1        0.1186
     40 H           3.3913    3.8741    1.0613 H       1  UNL1        0.1186
     41 H           4.8843    0.8199    2.0023 H       1  UNL1        0.0329
     42 H           5.7522    2.1056    1.0811 H       1  UNL1        0.0329
     43 H           6.2647    1.6506   -1.2774 H       1  UNL1        0.0620
     44 H           6.9811   -0.0229   -2.9069 H       1  UNL1        0.0618
     45 H           6.5245   -2.4330   -2.5401 H       1  UNL1        0.0618
     46 H           5.3320   -3.1245   -0.4996 H       1  UNL1        0.0618
     47 H           4.6295   -1.4195    1.1135 H       1  UNL1        0.0620
     48 H          -1.2149    1.5259   -0.1451 H       1  UNL1        0.0661
     49 H          -4.3008   -1.4707    1.1453 H       1  UNL1        0.0631
@<TRIPOS>BOND
     1     1     2    1
     2     2     3   ar
     3     3     4   ar
     4     4     5   ar
     5     5     6   ar
     6     6     7   ar
     7     7     8   ar
     8     8     9    1
     9     9    10   ar
    10    10    11   ar
    11    11    12   ar
    12    12    13   ar
    13    13    14    1
    14    14    15    1
    15    15    16    1
    16    16    17    1
    17    16    18    1
    18    18    19    1
    19    19    20   ar
    20    20    21   ar
    21    21    22   ar
    22    22    23   ar
    23    23    24   ar
    24    13    25   ar
    25     8    26   ar
    26    26    27   ar
    27    27     2   ar
    28    27     5   ar
    29    25     9   ar
    30    24    19   ar
    31     1    28    1
    32     1    29    1
    33     1    30    1
    34     4    31    1
    35     6    32    1
    36     7    33    1
    37    10    34    1
    38    12    35    1
    39    15    36    1
    40    15    37    1
    41    16    38    1
    42    17    39    1
    43    17    40    1
    44    18    41    1
    45    18    42    1
    46    20    43    1
    47    21    44    1
    48    22    45    1
    49    23    46    1
    50    24    47    1
    51    25    48    1
    52    26    49    1
