
     RDKit          3D

 49 52  0  0  0  0  0  0  0  0999 V2000
   -7.2496   -1.9103    1.5557 C   0  0  0  0  0  0  0  0  0  0  0  0
   -6.9994   -0.8491    0.5692 C   0  0  0  0  0  0  0  0  0  0  0  0
   -7.9337   -0.1490   -0.0808 N   0  0  0  0  0  0  0  0  0  0  0  0
   -7.3591    0.7301   -0.8980 N   0  0  0  0  0  0  0  0  0  0  0  0
   -6.0113    0.6254   -0.8015 C   0  0  0  0  0  0  0  0  0  0  0  0
   -4.9555    1.2772   -1.4078 C   0  0  0  0  0  0  0  0  0  0  0  0
   -3.6603    0.9291   -1.0851 C   0  0  0  0  0  0  0  0  0  0  0  0
   -3.3770   -0.0650   -0.1615 C   0  0  0  0  0  0  0  0  0  0  0  0
   -2.0037   -0.4290    0.1751 C   0  0  0  0  0  0  0  0  0  0  0  0
   -1.6454   -1.7100    0.5441 C   0  0  0  0  0  0  0  0  0  0  0  0
   -0.3834   -2.0562    0.8557 N   0  0  0  0  0  0  0  0  0  0  0  0
    0.5636   -1.1033    0.8019 C   0  0  0  0  0  0  0  0  0  0  0  0
    0.3187    0.2059    0.4468 C   0  0  0  0  0  0  0  0  0  0  0  0
    1.3144    1.1812    0.3964 O   0  0  0  0  0  0  0  0  0  0  0  0
    2.6286    0.7608    0.7348 C   0  0  0  0  0  0  0  0  0  0  0  0
    3.6290    1.8646    0.6546 C   0  0  1  0  0  0  0  0  0  0  0  0
    3.3161    2.9692    1.5435 N   0  0  0  0  0  0  0  0  0  0  0  0
    4.9926    1.3027    0.9883 C   0  0  0  0  0  0  0  0  0  0  0  0
    5.3843    0.2388    0.0549 C   0  0  0  0  0  0  0  0  0  0  0  0
    6.0619    0.6163   -1.1076 C   0  0  0  0  0  0  0  0  0  0  0  0
    6.4580   -0.3483   -2.0161 C   0  0  0  0  0  0  0  0  0  0  0  0
    6.2155   -1.6858   -1.8324 C   0  0  0  0  0  0  0  0  0  0  0  0
    5.5450   -2.0680   -0.6838 C   0  0  0  0  0  0  0  0  0  0  0  0
    5.1521   -1.1014    0.2194 C   0  0  0  0  0  0  0  0  0  0  0  0
   -1.0061    0.5214    0.1311 C   0  0  0  0  0  0  0  0  0  0  0  0
   -4.4657   -0.6842    0.4145 C   0  0  0  0  0  0  0  0  0  0  0  0
   -5.7846   -0.3743    0.1273 C   0  0  0  0  0  0  0  0  0  0  0  0
   -6.4083   -1.9564    2.3075 H   0  0  0  0  0  0  0  0  0  0  0  0
   -7.2416   -2.9297    1.0829 H   0  0  0  0  0  0  0  0  0  0  0  0
   -8.1629   -1.7390    2.1579 H   0  0  0  0  0  0  0  0  0  0  0  0
   -7.8740    1.3929   -1.5136 H   0  0  0  0  0  0  0  0  0  0  0  0
   -5.1945    2.0490   -2.1247 H   0  0  0  0  0  0  0  0  0  0  0  0
   -2.8494    1.4451   -1.5650 H   0  0  0  0  0  0  0  0  0  0  0  0
   -2.4655   -2.4323    0.5663 H   0  0  0  0  0  0  0  0  0  0  0  0
    1.5868   -1.3531    1.0473 H   0  0  0  0  0  0  0  0  0  0  0  0
    2.9339   -0.0778    0.0874 H   0  0  0  0  0  0  0  0  0  0  0  0
    2.5773    0.3751    1.7732 H   0  0  0  0  0  0  0  0  0  0  0  0
    3.6642    2.2381   -0.3907 H   0  0  0  0  0  0  0  0  0  0  0  0
    2.4451    2.7934    2.0544 H   0  0  0  0  0  0  0  0  0  0  0  0
    3.3913    3.8741    1.0613 H   0  0  0  0  0  0  0  0  0  0  0  0
    4.8843    0.8199    2.0023 H   0  0  0  0  0  0  0  0  0  0  0  0
    5.7522    2.1056    1.0811 H   0  0  0  0  0  0  0  0  0  0  0  0
    6.2647    1.6506   -1.2774 H   0  0  0  0  0  0  0  0  0  0  0  0
    6.9811   -0.0229   -2.9069 H   0  0  0  0  0  0  0  0  0  0  0  0
    6.5245   -2.4330   -2.5401 H   0  0  0  0  0  0  0  0  0  0  0  0
    5.3320   -3.1245   -0.4996 H   0  0  0  0  0  0  0  0  0  0  0  0
    4.6295   -1.4195    1.1135 H   0  0  0  0  0  0  0  0  0  0  0  0
   -1.2149    1.5259   -0.1451 H   0  0  0  0  0  0  0  0  0  0  0  0
   -4.3008   -1.4707    1.1453 H   0  0  0  0  0  0  0  0  0  0  0  0
  1  2  1  0
  2  3  2  0
  3  4  1  0
  4  5  1  0
  5  6  2  0
  6  7  1  0
  7  8  2  0
  8  9  1  0
  9 10  2  0
 10 11  1  0
 11 12  2  0
 12 13  1  0
 13 14  1  0
 14 15  1  0
 15 16  1  0
 16 17  1  0
 16 18  1  0
 18 19  1  0
 19 20  2  0
 20 21  1  0
 21 22  2  0
 22 23  1  0
 23 24  2  0
 13 25  2  0
  8 26  1  0
 26 27  2  0
 27  2  1  0
 27  5  1  0
 25  9  1  0
 24 19  1  0
  1 28  1  0
  1 29  1  0
  1 30  1  0
  4 31  1  0
  6 32  1  0
  7 33  1  0
 10 34  1  0
 12 35  1  0
 15 36  1  0
 15 37  1  0
 16 38  1  6
 17 39  1  0
 17 40  1  0
 18 41  1  0
 18 42  1  0
 20 43  1  0
 21 44  1  0
 22 45  1  0
 23 46  1  0
 24 47  1  0
 25 48  1  0
 26 49  1  0
M  END
$$$$
