@<TRIPOS>MOLECULE
*****
 27 28 0 0 0
SMALL
GASTEIGER

@<TRIPOS>ATOM
      1 O          -0.7630   -1.8083    1.4234 O.2     1  UNL1       -0.2873
      2 C          -0.9516   -0.8344    0.6609 C.2     1  UNL1        0.1861
      3 C           0.2162   -0.2258    0.0077 C.2     1  UNL1       -0.0137
      4 C           1.4308   -0.6865    0.2138 C.2     1  UNL1       -0.0495
      5 C           2.6505   -0.1807   -0.3633 C.ar    1  UNL1       -0.0068
      6 C           3.8808   -0.7541   -0.0681 C.ar    1  UNL1       -0.0517
      7 C           5.0580   -0.2878   -0.6073 C.ar    1  UNL1       -0.0430
      8 C           5.0109    0.7802   -1.4655 C.ar    1  UNL1        0.0276
      9 N           3.8305    1.3383   -1.7552 N.ar    1  UNL1       -0.2627
     10 C           2.6713    0.8842   -1.2283 C.ar    1  UNL1        0.0347
     11 C          -2.3107   -0.3629    0.4659 C.ar    1  UNL1        0.0227
     12 C          -3.3631   -0.9963    1.1232 C.ar    1  UNL1       -0.0509
     13 C          -4.6390   -0.5297    0.9207 C.ar    1  UNL1       -0.0600
     14 C          -4.8994    0.5464    0.0854 C.ar    1  UNL1       -0.0477
     15 C          -3.8621    1.1736   -0.5648 C.ar    1  UNL1        0.0186
     16 BR         -4.1956    2.6514   -1.7152 Br      1  UNL1       -0.0503
     17 C          -2.5802    0.7130   -0.3680 C.ar    1  UNL1       -0.0369
     18 H           0.1158    0.6165   -0.6604 H       1  UNL1        0.0656
     19 H           1.5128   -1.5457    0.8980 H       1  UNL1        0.0625
     20 H           3.8982   -1.5960    0.6111 H       1  UNL1        0.0624
     21 H           6.0188   -0.7546   -0.3614 H       1  UNL1        0.0633
     22 H           5.8906    1.2076   -1.9324 H       1  UNL1        0.0829
     23 H           1.7470    1.3713   -1.4957 H       1  UNL1        0.0835
     24 H          -3.1718   -1.8429    1.7821 H       1  UNL1        0.0625
     25 H          -5.4834   -1.0021    1.4190 H       1  UNL1        0.0618
     26 H          -5.9223    0.9118   -0.0699 H       1  UNL1        0.0629
     27 H          -1.7898    1.2137   -0.8819 H       1  UNL1        0.0636
@<TRIPOS>BOND
     1     1     2    2
     2     2     3    1
     3     3     4    2
     4     4     5    1
     5     5     6   ar
     6     6     7   ar
     7     7     8   ar
     8     8     9   ar
     9     9    10   ar
    10     2    11    1
    11    11    12   ar
    12    12    13   ar
    13    13    14   ar
    14    14    15   ar
    15    15    16    1
    16    15    17   ar
    17    10     5   ar
    18    17    11   ar
    19     3    18    1
    20     4    19    1
    21     6    20    1
    22     7    21    1
    23     8    22    1
    24    10    23    1
    25    12    24    1
    26    13    25    1
    27    14    26    1
    28    17    27    1
