@<TRIPOS>MOLECULE
*****
 53 55 0 0 0
SMALL
GASTEIGER

@<TRIPOS>ATOM
      1 C           6.8794    1.4190   -0.8038 C.3     1  UNL1       -0.0652
      2 C           6.1780    0.9067    0.4212 C.3     1  UNL1       -0.0545
      3 C           5.1559    1.8510    0.9577 C.3     1  UNL1       -0.0370
      4 C           4.0386    2.1566    0.0242 C.3     1  UNL1        0.0202
      5 N           3.2425    1.0344   -0.3761 N.am    1  UNL1       -0.2641
      6 C           3.4276    0.1761   -1.5016 C.2     1  UNL1        0.2913
      7 O           4.3366    0.2437   -2.3828 O.2     1  UNL1       -0.2661
      8 C           2.3408   -0.7927   -1.4121 C.2     1  UNL1        0.2496
      9 O           2.1365   -1.7319   -2.2161 O.2     1  UNL1       -0.2817
     10 C           1.5189   -0.5079   -0.2416 C.ar    1  UNL1        0.0502
     11 C           0.3791   -1.1149    0.2961 C.ar    1  UNL1       -0.0226
     12 C          -0.2186   -0.6366    1.4417 C.ar    1  UNL1        0.1063
     13 S          -1.6303   -1.3354    2.1882 S.O2    1  UNL1        0.0612
     14 O          -1.6452   -2.8535    1.9550 O.2     1  UNL1       -0.1528
     15 O          -1.4683   -1.2787    3.7239 O.2     1  UNL1       -0.1528
     16 N          -3.1166   -0.7587    1.7295 N.3     1  UNL1       -0.1713
     17 C          -3.2315    0.6340    2.0469 C.3     1  UNL1        0.0209
     18 C          -3.0478    1.3801    0.7470 C.3     1  UNL1       -0.0370
     19 C          -2.9907    0.2981   -0.3115 C.3     1  UNL1       -0.0323
     20 C          -3.6135   -0.8524    0.4184 C.3     1  UNL1        0.0552
     21 C          -3.4554   -2.1688   -0.2481 C.3     1  UNL1        0.0652
     22 O          -3.8873   -2.3457   -1.4389 O.3     1  UNL1       -0.3693
     23 C          -4.9384   -2.3987   -2.1675 C.3     1  UNL1        0.1426
     24 C          -5.8719   -1.2522   -2.3498 C.3     1  UNL1        0.4128
     25 F          -6.9007   -1.6724   -3.2364 F       1  UNL1       -0.1682
     26 F          -5.2580   -0.2231   -3.0268 F       1  UNL1       -0.1682
     27 F          -6.4953   -0.8447   -1.1952 F       1  UNL1       -0.1682
     28 C           0.3680    0.4629    2.0188 C.ar    1  UNL1       -0.0335
     29 C           1.4899    1.0863    1.5180 C.ar    1  UNL1       -0.0377
     30 C           2.0779    0.5924    0.3654 C.ar    1  UNL1        0.0477
     31 H           7.1900    0.5290   -1.4142 H       1  UNL1        0.0230
     32 H           7.7907    2.0060   -0.5548 H       1  UNL1        0.0230
     33 H           6.1895    2.0106   -1.4106 H       1  UNL1        0.0230
     34 H           6.9549    0.7760    1.2241 H       1  UNL1        0.0263
     35 H           5.7380   -0.0944    0.1567 H       1  UNL1        0.0263
     36 H           5.6803    2.8231    1.1972 H       1  UNL1        0.0280
     37 H           4.7302    1.5280    1.9306 H       1  UNL1        0.0280
     38 H           3.3561    2.8755    0.5656 H       1  UNL1        0.0469
     39 H           4.3631    2.7098   -0.8874 H       1  UNL1        0.0469
     40 H          -0.0487   -1.9775   -0.1881 H       1  UNL1        0.0645
     41 H          -2.4281    0.9516    2.7612 H       1  UNL1        0.0444
     42 H          -4.2049    0.8765    2.5312 H       1  UNL1        0.0444
     43 H          -2.1626    2.0400    0.7452 H       1  UNL1        0.0279
     44 H          -3.9865    1.9648    0.5808 H       1  UNL1        0.0279
     45 H          -1.9856    0.1284   -0.6970 H       1  UNL1        0.0282
     46 H          -3.5909    0.6467   -1.1944 H       1  UNL1        0.0282
     47 H          -4.7001   -0.6338    0.4946 H       1  UNL1        0.0502
     48 H          -3.9336   -2.9095    0.4833 H       1  UNL1        0.0576
     49 H          -2.3685   -2.5224   -0.1958 H       1  UNL1        0.0576
     50 H          -4.6565   -2.6848   -3.2747 H       1  UNL1        0.0650
     51 H          -5.6002   -3.3420   -1.9533 H       1  UNL1        0.0650
     52 H          -0.0626    0.8706    2.9191 H       1  UNL1        0.0638
     53 H           1.9362    1.9543    1.9925 H       1  UNL1        0.0637
@<TRIPOS>BOND
     1     1     2    1
     2     2     3    1
     3     3     4    1
     4     4     5    1
     5     5     6   am
     6     6     7    2
     7     6     8    1
     8     8     9    2
     9     8    10    1
    10    10    11   ar
    11    11    12   ar
    12    12    13    1
    13    13    14    2
    14    13    15    2
    15    13    16    1
    16    16    17    1
    17    17    18    1
    18    18    19    1
    19    19    20    1
    20    20    21    1
    21    21    22    1
    22    22    23    1
    23    23    24    1
    24    24    25    1
    25    24    26    1
    26    24    27    1
    27    12    28   ar
    28    28    29   ar
    29    29    30   ar
    30    30     5    1
    31    30    10   ar
    32    20    16    1
    33     1    31    1
    34     1    32    1
    35     1    33    1
    36     2    34    1
    37     2    35    1
    38     3    36    1
    39     3    37    1
    40     4    38    1
    41     4    39    1
    42    11    40    1
    43    17    41    1
    44    17    42    1
    45    18    43    1
    46    18    44    1
    47    19    45    1
    48    19    46    1
    49    20    47    1
    50    21    48    1
    51    21    49    1
    52    23    50    1
    53    23    51    1
    54    28    52    1
    55    29    53    1
