
     RDKit          3D

 53 55  0  0  0  0  0  0  0  0999 V2000
    6.8794    1.4190   -0.8038 C   0  0  0  0  0  0  0  0  0  0  0  0
    6.1780    0.9067    0.4212 C   0  0  0  0  0  0  0  0  0  0  0  0
    5.1559    1.8510    0.9577 C   0  0  0  0  0  0  0  0  0  0  0  0
    4.0386    2.1566    0.0242 C   0  0  0  0  0  0  0  0  0  0  0  0
    3.2425    1.0344   -0.3761 N   0  0  0  0  0  0  0  0  0  0  0  0
    3.4276    0.1761   -1.5016 C   0  0  0  0  0  0  0  0  0  0  0  0
    4.3366    0.2437   -2.3828 O   0  0  0  0  0  0  0  0  0  0  0  0
    2.3408   -0.7927   -1.4121 C   0  0  0  0  0  0  0  0  0  0  0  0
    2.1365   -1.7319   -2.2161 O   0  0  0  0  0  0  0  0  0  0  0  0
    1.5189   -0.5079   -0.2416 C   0  0  0  0  0  0  0  0  0  0  0  0
    0.3791   -1.1149    0.2961 C   0  0  0  0  0  0  0  0  0  0  0  0
   -0.2186   -0.6366    1.4417 C   0  0  0  0  0  0  0  0  0  0  0  0
   -1.6303   -1.3354    2.1882 S   0  0  0  0  0  6  0  0  0  0  0  0
   -1.6452   -2.8535    1.9550 O   0  0  0  0  0  0  0  0  0  0  0  0
   -1.4683   -1.2787    3.7239 O   0  0  0  0  0  0  0  0  0  0  0  0
   -3.1166   -0.7587    1.7295 N   0  0  0  0  0  0  0  0  0  0  0  0
   -3.2315    0.6340    2.0469 C   0  0  0  0  0  0  0  0  0  0  0  0
   -3.0478    1.3801    0.7470 C   0  0  0  0  0  0  0  0  0  0  0  0
   -2.9907    0.2981   -0.3115 C   0  0  0  0  0  0  0  0  0  0  0  0
   -3.6135   -0.8524    0.4184 C   0  0  1  0  0  0  0  0  0  0  0  0
   -3.4554   -2.1688   -0.2481 C   0  0  0  0  0  0  0  0  0  0  0  0
   -3.8873   -2.3457   -1.4389 O   0  0  0  0  0  0  0  0  0  0  0  0
   -4.9384   -2.3987   -2.1675 C   0  0  0  0  0  0  0  0  0  0  0  0
   -5.8719   -1.2522   -2.3498 C   0  0  0  0  0  0  0  0  0  0  0  0
   -6.9007   -1.6724   -3.2364 F   0  0  0  0  0  0  0  0  0  0  0  0
   -5.2580   -0.2231   -3.0268 F   0  0  0  0  0  0  0  0  0  0  0  0
   -6.4953   -0.8447   -1.1952 F   0  0  0  0  0  0  0  0  0  0  0  0
    0.3680    0.4629    2.0188 C   0  0  0  0  0  0  0  0  0  0  0  0
    1.4899    1.0863    1.5180 C   0  0  0  0  0  0  0  0  0  0  0  0
    2.0779    0.5924    0.3654 C   0  0  0  0  0  0  0  0  0  0  0  0
    7.1900    0.5290   -1.4142 H   0  0  0  0  0  0  0  0  0  0  0  0
    7.7907    2.0060   -0.5548 H   0  0  0  0  0  0  0  0  0  0  0  0
    6.1895    2.0106   -1.4106 H   0  0  0  0  0  0  0  0  0  0  0  0
    6.9549    0.7760    1.2241 H   0  0  0  0  0  0  0  0  0  0  0  0
    5.7380   -0.0944    0.1567 H   0  0  0  0  0  0  0  0  0  0  0  0
    5.6803    2.8231    1.1972 H   0  0  0  0  0  0  0  0  0  0  0  0
    4.7302    1.5280    1.9306 H   0  0  0  0  0  0  0  0  0  0  0  0
    3.3561    2.8755    0.5656 H   0  0  0  0  0  0  0  0  0  0  0  0
    4.3631    2.7098   -0.8874 H   0  0  0  0  0  0  0  0  0  0  0  0
   -0.0487   -1.9775   -0.1881 H   0  0  0  0  0  0  0  0  0  0  0  0
   -2.4281    0.9516    2.7612 H   0  0  0  0  0  0  0  0  0  0  0  0
   -4.2049    0.8765    2.5312 H   0  0  0  0  0  0  0  0  0  0  0  0
   -2.1626    2.0400    0.7452 H   0  0  0  0  0  0  0  0  0  0  0  0
   -3.9865    1.9648    0.5808 H   0  0  0  0  0  0  0  0  0  0  0  0
   -1.9856    0.1284   -0.6970 H   0  0  0  0  0  0  0  0  0  0  0  0
   -3.5909    0.6467   -1.1944 H   0  0  0  0  0  0  0  0  0  0  0  0
   -4.7001   -0.6338    0.4946 H   0  0  0  0  0  0  0  0  0  0  0  0
   -3.9336   -2.9095    0.4833 H   0  0  0  0  0  0  0  0  0  0  0  0
   -2.3685   -2.5224   -0.1958 H   0  0  0  0  0  0  0  0  0  0  0  0
   -4.6565   -2.6848   -3.2747 H   0  0  0  0  0  0  0  0  0  0  0  0
   -5.6002   -3.3420   -1.9533 H   0  0  0  0  0  0  0  0  0  0  0  0
   -0.0626    0.8706    2.9191 H   0  0  0  0  0  0  0  0  0  0  0  0
    1.9362    1.9543    1.9925 H   0  0  0  0  0  0  0  0  0  0  0  0
  1  2  1  0
  2  3  1  0
  3  4  1  0
  4  5  1  0
  5  6  1  0
  6  7  2  0
  6  8  1  0
  8  9  2  0
  8 10  1  0
 10 11  2  0
 11 12  1  0
 12 13  1  0
 13 14  2  0
 13 15  2  0
 13 16  1  0
 16 17  1  0
 17 18  1  0
 18 19  1  0
 19 20  1  0
 20 21  1  0
 21 22  1  0
 22 23  1  0
 23 24  1  0
 24 25  1  0
 24 26  1  0
 24 27  1  0
 12 28  2  0
 28 29  1  0
 29 30  2  0
 30  5  1  0
 30 10  1  0
 20 16  1  0
  1 31  1  0
  1 32  1  0
  1 33  1  0
  2 34  1  0
  2 35  1  0
  3 36  1  0
  3 37  1  0
  4 38  1  0
  4 39  1  0
 11 40  1  0
 17 41  1  0
 17 42  1  0
 18 43  1  0
 18 44  1  0
 19 45  1  0
 19 46  1  0
 20 47  1  1
 21 48  1  0
 21 49  1  0
 23 50  1  0
 23 51  1  0
 28 52  1  0
 29 53  1  0
M  END
$$$$
