
     RDKit          3D

 45 49  0  0  0  0  0  0  0  0999 V2000
    1.5588   -1.3835   -1.8581 N   0  0  0  0  0  0  0  0  0  0  0  0
    1.8138   -0.1554   -1.0869 C   0  0  1  0  0  0  0  0  0  0  0  0
    0.5817    0.6574   -1.0914 C   0  0  0  0  0  0  0  0  0  0  0  0
    0.0334    1.0370    0.2288 C   0  0  1  0  0  0  0  0  0  0  0  0
   -1.3799    1.1156    0.3243 N   0  0  0  0  0  0  0  0  0  0  0  0
   -2.0109    2.0551   -0.5444 C   0  0  0  0  0  0  0  0  0  0  0  0
   -3.4452    1.6713   -0.4744 C   0  0  0  0  0  0  0  0  0  0  0  0
   -4.7222    2.0543   -0.6504 N   0  0  0  0  0  0  0  0  0  0  0  0
   -5.5571    1.0720   -0.3603 N   0  0  0  0  0  0  0  0  0  0  0  0
   -6.8764    0.9323   -0.3661 N   0  0  0  0  0  0  0  0  0  0  0  0
   -7.4645   -0.2230   -0.0094 C   0  0  0  0  0  0  0  0  0  0  0  0
   -6.7182   -1.3162    0.3793 C   0  0  0  0  0  0  0  0  0  0  0  0
   -5.3810   -1.1691    0.3834 N   0  0  0  0  0  0  0  0  0  0  0  0
   -4.8279    0.0067    0.0186 C   0  0  0  0  0  0  0  0  0  0  0  0
   -3.4890    0.3610   -0.0453 C   0  0  0  0  0  0  0  0  0  0  0  0
   -2.0770   -0.1197    0.1683 C   0  0  0  0  0  0  0  0  0  0  0  0
    0.5165    0.0939    1.3368 C   0  0  0  0  0  0  0  0  0  0  0  0
    1.9243    0.2260    1.2965 O   0  0  0  0  0  0  0  0  0  0  0  0
    2.3477   -0.5557    0.2309 C   0  0  2  0  0  0  0  0  0  0  0  0
    3.8265   -0.5636    0.2475 C   0  0  0  0  0  0  0  0  0  0  0  0
    4.5569   -1.6782   -0.0809 C   0  0  0  0  0  0  0  0  0  0  0  0
    5.9390   -1.6509   -0.0548 C   0  0  0  0  0  0  0  0  0  0  0  0
    6.6618   -2.7724   -0.3854 F   0  0  0  0  0  0  0  0  0  0  0  0
    6.6222   -0.5083    0.3003 C   0  0  0  0  0  0  0  0  0  0  0  0
    5.8820    0.5983    0.6262 C   0  0  0  0  0  0  0  0  0  0  0  0
    4.4908    0.5813    0.6031 C   0  0  0  0  0  0  0  0  0  0  0  0
    3.8440    1.7312    0.9432 F   0  0  0  0  0  0  0  0  0  0  0  0
    1.7832   -2.2350   -1.3086 H   0  0  0  0  0  0  0  0  0  0  0  0
    0.5613   -1.4181   -2.1873 H   0  0  0  0  0  0  0  0  0  0  0  0
    2.6484    0.3525   -1.6546 H   0  0  0  0  0  0  0  0  0  0  0  0
    0.7782    1.6107   -1.6655 H   0  0  0  0  0  0  0  0  0  0  0  0
   -0.2499    0.1686   -1.6789 H   0  0  0  0  0  0  0  0  0  0  0  0
    0.4454    2.0434    0.5218 H   0  0  0  0  0  0  0  0  0  0  0  0
   -1.8503    3.1021   -0.1767 H   0  0  0  0  0  0  0  0  0  0  0  0
   -1.6862    1.9920   -1.5968 H   0  0  0  0  0  0  0  0  0  0  0  0
   -8.5582   -0.3246   -0.0190 H   0  0  0  0  0  0  0  0  0  0  0  0
   -7.2136   -2.2424    0.6643 H   0  0  0  0  0  0  0  0  0  0  0  0
   -1.8195   -0.7050   -0.7133 H   0  0  0  0  0  0  0  0  0  0  0  0
   -2.0082   -0.7392    1.0824 H   0  0  0  0  0  0  0  0  0  0  0  0
    0.2150   -0.9250    1.0237 H   0  0  0  0  0  0  0  0  0  0  0  0
    0.1021    0.4082    2.2935 H   0  0  0  0  0  0  0  0  0  0  0  0
    2.0205   -1.6082    0.4787 H   0  0  0  0  0  0  0  0  0  0  0  0
    4.0702   -2.6223   -0.3733 H   0  0  0  0  0  0  0  0  0  0  0  0
    7.7141   -0.4544    0.3307 H   0  0  0  0  0  0  0  0  0  0  0  0
    6.3977    1.4990    0.9058 H   0  0  0  0  0  0  0  0  0  0  0  0
  1  2  1  0
  2  3  1  0
  3  4  1  0
  4  5  1  0
  5  6  1  0
  6  7  1  0
  7  8  2  0
  8  9  1  0
  9 10  1  0
 10 11  2  0
 11 12  1  0
 12 13  2  0
 13 14  1  0
 14 15  2  0
 15 16  1  0
  4 17  1  0
 17 18  1  0
 18 19  1  0
 19 20  1  0
 20 21  2  0
 21 22  1  0
 22 23  1  0
 22 24  2  0
 24 25  1  0
 25 26  2  0
 26 27  1  0
 19  2  1  0
 26 20  1  0
 16  5  1  0
 15  7  1  0
 14  9  1  0
  1 28  1  0
  1 29  1  0
  2 30  1  6
  3 31  1  0
  3 32  1  0
  4 33  1  1
  6 34  1  0
  6 35  1  0
 11 36  1  0
 12 37  1  0
 16 38  1  0
 16 39  1  0
 17 40  1  0
 17 41  1  0
 19 42  1  1
 21 43  1  0
 24 44  1  0
 25 45  1  0
M  END
$$$$
