@<TRIPOS>MOLECULE
*****
 45 49 0 0 0
SMALL
GASTEIGER

@<TRIPOS>ATOM
      1 N           1.5588   -1.3835   -1.8581 N.3     1  UNL1       -0.3248
      2 C           1.8138   -0.1554   -1.0869 C.3     1  UNL1        0.0371
      3 C           0.5817    0.6574   -1.0914 C.3     1  UNL1       -0.0172
      4 C           0.0334    1.0370    0.2288 C.3     1  UNL1        0.0360
      5 N          -1.3799    1.1156    0.3243 N.3     1  UNL1       -0.2871
      6 C          -2.0109    2.0551   -0.5444 C.3     1  UNL1        0.0441
      7 C          -3.4452    1.6713   -0.4744 C.ar    1  UNL1        0.0855
      8 N          -4.7222    2.0543   -0.6504 N.ar    1  UNL1       -0.1505
      9 N          -5.5571    1.0720   -0.3603 N.ar    1  UNL1       -0.1310
     10 N          -6.8764    0.9323   -0.3661 N.ar    1  UNL1       -0.1542
     11 C          -7.4645   -0.2230   -0.0094 C.ar    1  UNL1        0.0681
     12 C          -6.7182   -1.3162    0.3793 C.ar    1  UNL1        0.0498
     13 N          -5.3810   -1.1691    0.3834 N.ar    1  UNL1       -0.2329
     14 C          -4.8279    0.0067    0.0186 C.ar    1  UNL1        0.1808
     15 C          -3.4890    0.3610   -0.0453 C.ar    1  UNL1        0.0367
     16 C          -2.0770   -0.1197    0.1683 C.3     1  UNL1        0.0302
     17 C           0.5165    0.0939    1.3368 C.3     1  UNL1        0.0641
     18 O           1.9243    0.2260    1.2965 O.3     1  UNL1       -0.3688
     19 C           2.3477   -0.5557    0.2309 C.3     1  UNL1        0.1015
     20 C           3.8265   -0.5636    0.2475 C.ar    1  UNL1        0.0205
     21 C           4.5569   -1.6782   -0.0809 C.ar    1  UNL1       -0.0180
     22 C           5.9390   -1.6509   -0.0548 C.ar    1  UNL1        0.1239
     23 F           6.6618   -2.7724   -0.3854 F       1  UNL1       -0.2055
     24 C           6.6222   -0.5083    0.3003 C.ar    1  UNL1       -0.0237
     25 C           5.8820    0.5983    0.6262 C.ar    1  UNL1       -0.0234
     26 C           4.4908    0.5813    0.6031 C.ar    1  UNL1        0.1292
     27 F           3.8440    1.7312    0.9432 F       1  UNL1       -0.2051
     28 H           1.7832   -2.2350   -1.3086 H       1  UNL1        0.1186
     29 H           0.5613   -1.4181   -2.1873 H       1  UNL1        0.1186
     30 H           2.6484    0.3525   -1.6546 H       1  UNL1        0.0488
     31 H           0.7782    1.6107   -1.6655 H       1  UNL1        0.0297
     32 H          -0.2499    0.1686   -1.6789 H       1  UNL1        0.0297
     33 H           0.4454    2.0434    0.5218 H       1  UNL1        0.0486
     34 H          -1.8503    3.1021   -0.1767 H       1  UNL1        0.0492
     35 H          -1.6862    1.9920   -1.5968 H       1  UNL1        0.0492
     36 H          -8.5582   -0.3246   -0.0190 H       1  UNL1        0.0863
     37 H          -7.2136   -2.2424    0.6643 H       1  UNL1        0.0846
     38 H          -1.8195   -0.7050   -0.7133 H       1  UNL1        0.0478
     39 H          -2.0082   -0.7392    1.0824 H       1  UNL1        0.0478
     40 H           0.2150   -0.9250    1.0237 H       1  UNL1        0.0576
     41 H           0.1021    0.4082    2.2935 H       1  UNL1        0.0576
     42 H           2.0205   -1.6082    0.4787 H       1  UNL1        0.0663
     43 H           4.0702   -2.6223   -0.3733 H       1  UNL1        0.0651
     44 H           7.7141   -0.4544    0.3307 H       1  UNL1        0.0647
     45 H           6.3977    1.4990    0.9058 H       1  UNL1        0.0647
@<TRIPOS>BOND
     1     1     2    1
     2     2     3    1
     3     3     4    1
     4     4     5    1
     5     5     6    1
     6     6     7    1
     7     7     8   ar
     8     8     9   ar
     9     9    10   ar
    10    10    11   ar
    11    11    12   ar
    12    12    13   ar
    13    13    14   ar
    14    14    15   ar
    15    15    16    1
    16     4    17    1
    17    17    18    1
    18    18    19    1
    19    19    20    1
    20    20    21   ar
    21    21    22   ar
    22    22    23    1
    23    22    24   ar
    24    24    25   ar
    25    25    26   ar
    26    26    27    1
    27    19     2    1
    28    26    20   ar
    29    16     5    1
    30    15     7   ar
    31    14     9   ar
    32     1    28    1
    33     1    29    1
    34     2    30    1
    35     3    31    1
    36     3    32    1
    37     4    33    1
    38     6    34    1
    39     6    35    1
    40    11    36    1
    41    12    37    1
    42    16    38    1
    43    16    39    1
    44    17    40    1
    45    17    41    1
    46    19    42    1
    47    21    43    1
    48    24    44    1
    49    25    45    1
