@<TRIPOS>MOLECULE
*****
 62 64 0 0 0
SMALL
GASTEIGER

@<TRIPOS>ATOM
      1 C           7.3137    2.5481   -0.6311 C.3     1  UNL1       -0.0613
      2 C           6.4781    1.9480    0.4784 C.3     1  UNL1       -0.0305
      3 C           5.3002    1.3042   -0.1574 C.ar    1  UNL1       -0.0476
      4 C           4.1247    1.9976   -0.3691 C.ar    1  UNL1       -0.0583
      5 C           3.0364    1.3932   -0.9601 C.ar    1  UNL1       -0.0580
      6 C           3.0632    0.0565   -1.3739 C.ar    1  UNL1       -0.0429
      7 C           1.8616   -0.5528   -2.0184 C.3     1  UNL1        0.0011
      8 C           0.8790   -1.0218   -1.0087 C.ar    1  UNL1       -0.0009
      9 C          -0.2750   -0.2778   -0.7339 C.ar    1  UNL1       -0.0478
     10 C          -1.2090   -0.6482    0.1802 C.ar    1  UNL1        0.0004
     11 C          -2.4313    0.1152    0.4905 C.3     1  UNL1        0.0165
     12 C          -3.6172   -0.3071   -0.3473 C.3     1  UNL1       -0.0363
     13 C          -4.8481    0.4075    0.1581 C.3     1  UNL1        0.0113
     14 C          -6.0753   -0.0522   -0.5686 C.3     1  UNL1        0.0495
     15 O          -6.0276    0.1682   -1.9324 O.3     1  UNL1       -0.3946
     16 C          -4.6367    1.9010    0.0365 C.3     1  UNL1        0.0884
     17 O          -5.7638    2.6306    0.3258 O.3     1  UNL1       -0.3888
     18 C          -3.4747    2.2404    0.9780 C.3     1  UNL1        0.1077
     19 O          -3.3379    3.6078    1.1368 O.3     1  UNL1       -0.3866
     20 C          -2.2413    1.6092    0.3598 C.3     1  UNL1        0.0904
     21 O          -1.0809    2.0227    0.9691 O.3     1  UNL1       -0.3885
     22 C          -1.0105   -1.8282    0.8812 C.ar    1  UNL1        0.1271
     23 O          -1.9549   -2.2272    1.8227 O.3     1  UNL1       -0.4947
     24 C          -1.7493   -3.4212    2.5286 C.3     1  UNL1        0.0788
     25 C           0.1021   -2.5978    0.6531 C.ar    1  UNL1        0.0223
     26 C           1.0404   -2.1861   -0.2934 C.ar    1  UNL1        0.1270
     27 O           2.1622   -2.9858   -0.5076 O.3     1  UNL1       -0.4947
     28 C           2.3364   -4.1850    0.2232 C.3     1  UNL1        0.0788
     29 C           4.2395   -0.6250   -1.1585 C.ar    1  UNL1       -0.0580
     30 C           5.3362   -0.0113   -0.5613 C.ar    1  UNL1       -0.0583
     31 H           6.7731    3.4237   -1.0243 H       1  UNL1        0.0233
     32 H           8.3153    2.8611   -0.2761 H       1  UNL1        0.0233
     33 H           7.3904    1.7803   -1.4384 H       1  UNL1        0.0233
     34 H           6.1248    2.7965    1.1001 H       1  UNL1        0.0311
     35 H           7.0469    1.2157    1.0818 H       1  UNL1        0.0311
     36 H           4.0782    3.0436   -0.0545 H       1  UNL1        0.0620
     37 H           2.1013    1.9408   -1.1294 H       1  UNL1        0.0620
     38 H           2.2424   -1.4092   -2.6144 H       1  UNL1        0.0363
     39 H           1.4255    0.1732   -2.7052 H       1  UNL1        0.0363
     40 H          -0.4305    0.6410   -1.2788 H       1  UNL1        0.0625
     41 H          -2.6964   -0.0768    1.5491 H       1  UNL1        0.0376
     42 H          -3.7844   -1.3988   -0.1229 H       1  UNL1        0.0276
     43 H          -3.4569   -0.2117   -1.4208 H       1  UNL1        0.0276
     44 H          -4.9677    0.1235    1.2247 H       1  UNL1        0.0349
     45 H          -6.2661   -1.1206   -0.3477 H       1  UNL1        0.0561
     46 H          -6.9397    0.5047   -0.1436 H       1  UNL1        0.0561
     47 H          -6.0003   -0.7133   -2.4019 H       1  UNL1        0.2094
     48 H          -4.2726    2.0812   -1.0032 H       1  UNL1        0.0623
     49 H          -5.9286    3.2442   -0.4335 H       1  UNL1        0.2099
     50 H          -3.6815    1.7098    1.9238 H       1  UNL1        0.0645
     51 H          -4.2226    3.9699    1.3861 H       1  UNL1        0.2100
     52 H          -2.2854    1.8869   -0.7340 H       1  UNL1        0.0626
     53 H          -0.8867    2.9406    0.6693 H       1  UNL1        0.2099
     54 H          -1.8640   -4.2566    1.8048 H       1  UNL1        0.0660
     55 H          -0.7292   -3.5036    2.9519 H       1  UNL1        0.0660
     56 H          -2.4570   -3.5210    3.3844 H       1  UNL1        0.0660
     57 H           0.2875   -3.5228    1.1820 H       1  UNL1        0.0691
     58 H           1.4135   -4.8029    0.0325 H       1  UNL1        0.0660
     59 H           3.2538   -4.7056   -0.0449 H       1  UNL1        0.0660
     60 H           2.2856   -3.9088    1.2975 H       1  UNL1        0.0660
     61 H           4.3234   -1.6581   -1.4617 H       1  UNL1        0.0620
     62 H           6.2674   -0.5496   -0.3899 H       1  UNL1        0.0620
@<TRIPOS>BOND
     1     1     2    1
     2     2     3    1
     3     3     4   ar
     4     4     5   ar
     5     5     6   ar
     6     6     7    1
     7     7     8    1
     8     8     9   ar
     9     9    10   ar
    10    10    11    1
    11    11    12    1
    12    12    13    1
    13    13    14    1
    14    14    15    1
    15    13    16    1
    16    16    17    1
    17    16    18    1
    18    18    19    1
    19    18    20    1
    20    20    21    1
    21    10    22   ar
    22    22    23    1
    23    23    24    1
    24    22    25   ar
    25    25    26   ar
    26    26    27    1
    27    27    28    1
    28     6    29   ar
    29    29    30   ar
    30    30     3   ar
    31    26     8   ar
    32    20    11    1
    33     1    31    1
    34     1    32    1
    35     1    33    1
    36     2    34    1
    37     2    35    1
    38     4    36    1
    39     5    37    1
    40     7    38    1
    41     7    39    1
    42     9    40    1
    43    11    41    1
    44    12    42    1
    45    12    43    1
    46    13    44    1
    47    14    45    1
    48    14    46    1
    49    15    47    1
    50    16    48    1
    51    17    49    1
    52    18    50    1
    53    19    51    1
    54    20    52    1
    55    21    53    1
    56    24    54    1
    57    24    55    1
    58    24    56    1
    59    25    57    1
    60    28    58    1
    61    28    59    1
    62    28    60    1
    63    29    61    1
    64    30    62    1
