
     RDKit          3D

 62 64  0  0  0  0  0  0  0  0999 V2000
    7.3137    2.5481   -0.6311 C   0  0  0  0  0  0  0  0  0  0  0  0
    6.4781    1.9480    0.4784 C   0  0  0  0  0  0  0  0  0  0  0  0
    5.3002    1.3042   -0.1574 C   0  0  0  0  0  0  0  0  0  0  0  0
    4.1247    1.9976   -0.3691 C   0  0  0  0  0  0  0  0  0  0  0  0
    3.0364    1.3932   -0.9601 C   0  0  0  0  0  0  0  0  0  0  0  0
    3.0632    0.0565   -1.3739 C   0  0  0  0  0  0  0  0  0  0  0  0
    1.8616   -0.5528   -2.0184 C   0  0  0  0  0  0  0  0  0  0  0  0
    0.8790   -1.0218   -1.0087 C   0  0  0  0  0  0  0  0  0  0  0  0
   -0.2750   -0.2778   -0.7339 C   0  0  0  0  0  0  0  0  0  0  0  0
   -1.2090   -0.6482    0.1802 C   0  0  0  0  0  0  0  0  0  0  0  0
   -2.4313    0.1152    0.4905 C   0  0  2  0  0  0  0  0  0  0  0  0
   -3.6172   -0.3071   -0.3473 C   0  0  0  0  0  0  0  0  0  0  0  0
   -4.8481    0.4075    0.1581 C   0  0  2  0  0  0  0  0  0  0  0  0
   -6.0753   -0.0522   -0.5686 C   0  0  0  0  0  0  0  0  0  0  0  0
   -6.0276    0.1682   -1.9324 O   0  0  0  0  0  0  0  0  0  0  0  0
   -4.6367    1.9010    0.0365 C   0  0  1  0  0  0  0  0  0  0  0  0
   -5.7638    2.6306    0.3258 O   0  0  0  0  0  0  0  0  0  0  0  0
   -3.4747    2.2404    0.9780 C   0  0  2  0  0  0  0  0  0  0  0  0
   -3.3379    3.6078    1.1368 O   0  0  0  0  0  0  0  0  0  0  0  0
   -2.2413    1.6092    0.3598 C   0  0  1  0  0  0  0  0  0  0  0  0
   -1.0809    2.0227    0.9691 O   0  0  0  0  0  0  0  0  0  0  0  0
   -1.0105   -1.8282    0.8812 C   0  0  0  0  0  0  0  0  0  0  0  0
   -1.9549   -2.2272    1.8227 O   0  0  0  0  0  0  0  0  0  0  0  0
   -1.7493   -3.4212    2.5286 C   0  0  0  0  0  0  0  0  0  0  0  0
    0.1021   -2.5978    0.6531 C   0  0  0  0  0  0  0  0  0  0  0  0
    1.0404   -2.1861   -0.2934 C   0  0  0  0  0  0  0  0  0  0  0  0
    2.1622   -2.9858   -0.5076 O   0  0  0  0  0  0  0  0  0  0  0  0
    2.3364   -4.1850    0.2232 C   0  0  0  0  0  0  0  0  0  0  0  0
    4.2395   -0.6250   -1.1585 C   0  0  0  0  0  0  0  0  0  0  0  0
    5.3362   -0.0113   -0.5613 C   0  0  0  0  0  0  0  0  0  0  0  0
    6.7731    3.4237   -1.0243 H   0  0  0  0  0  0  0  0  0  0  0  0
    8.3153    2.8611   -0.2761 H   0  0  0  0  0  0  0  0  0  0  0  0
    7.3904    1.7803   -1.4384 H   0  0  0  0  0  0  0  0  0  0  0  0
    6.1248    2.7965    1.1001 H   0  0  0  0  0  0  0  0  0  0  0  0
    7.0469    1.2157    1.0818 H   0  0  0  0  0  0  0  0  0  0  0  0
    4.0782    3.0436   -0.0545 H   0  0  0  0  0  0  0  0  0  0  0  0
    2.1013    1.9408   -1.1294 H   0  0  0  0  0  0  0  0  0  0  0  0
    2.2424   -1.4092   -2.6144 H   0  0  0  0  0  0  0  0  0  0  0  0
    1.4255    0.1732   -2.7052 H   0  0  0  0  0  0  0  0  0  0  0  0
   -0.4305    0.6410   -1.2788 H   0  0  0  0  0  0  0  0  0  0  0  0
   -2.6964   -0.0768    1.5491 H   0  0  0  0  0  0  0  0  0  0  0  0
   -3.7844   -1.3988   -0.1229 H   0  0  0  0  0  0  0  0  0  0  0  0
   -3.4569   -0.2117   -1.4208 H   0  0  0  0  0  0  0  0  0  0  0  0
   -4.9677    0.1235    1.2247 H   0  0  0  0  0  0  0  0  0  0  0  0
   -6.2661   -1.1206   -0.3477 H   0  0  0  0  0  0  0  0  0  0  0  0
   -6.9397    0.5047   -0.1436 H   0  0  0  0  0  0  0  0  0  0  0  0
   -6.0003   -0.7133   -2.4019 H   0  0  0  0  0  0  0  0  0  0  0  0
   -4.2726    2.0812   -1.0032 H   0  0  0  0  0  0  0  0  0  0  0  0
   -5.9286    3.2442   -0.4335 H   0  0  0  0  0  0  0  0  0  0  0  0
   -3.6815    1.7098    1.9238 H   0  0  0  0  0  0  0  0  0  0  0  0
   -4.2226    3.9699    1.3861 H   0  0  0  0  0  0  0  0  0  0  0  0
   -2.2854    1.8869   -0.7340 H   0  0  0  0  0  0  0  0  0  0  0  0
   -0.8867    2.9406    0.6693 H   0  0  0  0  0  0  0  0  0  0  0  0
   -1.8640   -4.2566    1.8048 H   0  0  0  0  0  0  0  0  0  0  0  0
   -0.7292   -3.5036    2.9519 H   0  0  0  0  0  0  0  0  0  0  0  0
   -2.4570   -3.5210    3.3844 H   0  0  0  0  0  0  0  0  0  0  0  0
    0.2875   -3.5228    1.1820 H   0  0  0  0  0  0  0  0  0  0  0  0
    1.4135   -4.8029    0.0325 H   0  0  0  0  0  0  0  0  0  0  0  0
    3.2538   -4.7056   -0.0449 H   0  0  0  0  0  0  0  0  0  0  0  0
    2.2856   -3.9088    1.2975 H   0  0  0  0  0  0  0  0  0  0  0  0
    4.3234   -1.6581   -1.4617 H   0  0  0  0  0  0  0  0  0  0  0  0
    6.2674   -0.5496   -0.3899 H   0  0  0  0  0  0  0  0  0  0  0  0
  1  2  1  0
  2  3  1  0
  3  4  2  0
  4  5  1  0
  5  6  2  0
  6  7  1  0
  7  8  1  0
  8  9  2  0
  9 10  1  0
 10 11  1  0
 11 12  1  0
 12 13  1  0
 13 14  1  0
 14 15  1  0
 13 16  1  0
 16 17  1  0
 16 18  1  0
 18 19  1  0
 18 20  1  0
 20 21  1  0
 10 22  2  0
 22 23  1  0
 23 24  1  0
 22 25  1  0
 25 26  2  0
 26 27  1  0
 27 28  1  0
  6 29  1  0
 29 30  2  0
 30  3  1  0
 26  8  1  0
 20 11  1  0
  1 31  1  0
  1 32  1  0
  1 33  1  0
  2 34  1  0
  2 35  1  0
  4 36  1  0
  5 37  1  0
  7 38  1  0
  7 39  1  0
  9 40  1  0
 11 41  1  1
 12 42  1  0
 12 43  1  0
 13 44  1  1
 14 45  1  0
 14 46  1  0
 15 47  1  0
 16 48  1  6
 17 49  1  0
 18 50  1  1
 19 51  1  0
 20 52  1  6
 21 53  1  0
 24 54  1  0
 24 55  1  0
 24 56  1  0
 25 57  1  0
 28 58  1  0
 28 59  1  0
 28 60  1  0
 29 61  1  0
 30 62  1  0
M  END
$$$$
