
     RDKit          3D

 52 54  0  0  0  0  0  0  0  0999 V2000
    5.2612   -1.9018    1.1339 C   0  0  0  0  0  0  0  0  0  0  0  0
    5.1536   -2.1930   -0.3233 C   0  0  0  0  0  0  0  0  0  0  0  0
    3.5064   -2.3765   -0.9267 S   0  0  0  0  0  6  0  0  0  0  0  0
    2.8643   -3.5156   -0.1487 O   0  0  0  0  0  0  0  0  0  0  0  0
    3.6141   -2.7812   -2.3819 O   0  0  0  0  0  0  0  0  0  0  0  0
    2.6052   -0.9860   -0.6888 N   0  0  0  0  0  0  0  0  0  0  0  0
    2.3843   -0.5226    0.6197 C   0  0  0  0  0  0  0  0  0  0  0  0
    1.0495    0.1796    0.7772 C   0  0  0  0  0  0  0  0  0  0  0  0
    0.6349    0.9501   -0.4258 C   0  0  0  0  0  0  0  0  0  0  0  0
   -0.4368    0.1685   -1.2006 C   0  0  0  0  0  0  0  0  0  0  0  0
   -1.5991   -0.0619   -0.3687 N   0  0  0  0  0  0  0  0  0  0  0  0
   -2.6740   -0.7826   -0.9569 C   0  0  0  0  0  0  0  0  0  0  0  0
   -2.5909   -1.1941   -2.1608 O   0  0  0  0  0  0  0  0  0  0  0  0
   -3.9097   -1.0972   -0.2577 C   0  0  0  0  0  0  0  0  0  0  0  0
   -4.7567   -0.1168    0.1830 C   0  0  0  0  0  0  0  0  0  0  0  0
   -5.9290   -0.4869    0.8482 C   0  0  0  0  0  0  0  0  0  0  0  0
   -6.2587   -1.8077    1.0743 C   0  0  0  0  0  0  0  0  0  0  0  0
   -7.7372   -2.2694    1.9133 Cl  0  0  0  0  0  0  0  0  0  0  0  0
   -5.3958   -2.7858    0.6246 C   0  0  0  0  0  0  0  0  0  0  0  0
   -4.2459   -2.4243   -0.0278 C   0  0  0  0  0  0  0  0  0  0  0  0
   -3.1627   -3.6965   -0.5896 Cl  0  0  0  0  0  0  0  0  0  0  0  0
    0.0131    2.2354   -0.0285 C   0  0  0  0  0  0  0  0  0  0  0  0
   -0.4428    3.1145   -1.0090 C   0  0  0  0  0  0  0  0  0  0  0  0
   -1.0189    4.3034   -0.6979 C   0  0  0  0  0  0  0  0  0  0  0  0
   -1.1602    4.6584    0.6445 C   0  0  0  0  0  0  0  0  0  0  0  0
   -0.6994    3.7686    1.6061 C   0  0  0  0  0  0  0  0  0  0  0  0
   -0.1325    2.5961    1.2488 N   0  0  0  0  0  0  0  0  0  0  0  0
    1.7471    1.2001   -1.4046 C   0  0  0  0  0  0  0  0  0  0  0  0
    2.5865   -0.0041   -1.6938 C   0  0  0  0  0  0  0  0  0  0  0  0
    4.5170   -2.4316    1.7683 H   0  0  0  0  0  0  0  0  0  0  0  0
    5.2354   -0.8206    1.3246 H   0  0  0  0  0  0  0  0  0  0  0  0
    6.2583   -2.2799    1.5149 H   0  0  0  0  0  0  0  0  0  0  0  0
    5.6521   -1.3628   -0.8685 H   0  0  0  0  0  0  0  0  0  0  0  0
    5.7613   -3.1231   -0.5162 H   0  0  0  0  0  0  0  0  0  0  0  0
    3.1616    0.2684    0.8452 H   0  0  0  0  0  0  0  0  0  0  0  0
    2.4593   -1.2742    1.3981 H   0  0  0  0  0  0  0  0  0  0  0  0
    1.1552    0.8735    1.6356 H   0  0  0  0  0  0  0  0  0  0  0  0
    0.3149   -0.5949    1.0804 H   0  0  0  0  0  0  0  0  0  0  0  0
    0.0280   -0.7670   -1.5211 H   0  0  0  0  0  0  0  0  0  0  0  0
   -0.7638    0.8175   -2.0402 H   0  0  0  0  0  0  0  0  0  0  0  0
   -1.6960    0.2615    0.6172 H   0  0  0  0  0  0  0  0  0  0  0  0
   -4.4862    0.9104   -0.0001 H   0  0  0  0  0  0  0  0  0  0  0  0
   -6.5925    0.2861    1.1938 H   0  0  0  0  0  0  0  0  0  0  0  0
   -5.6693   -3.8275    0.8107 H   0  0  0  0  0  0  0  0  0  0  0  0
   -0.3452    2.8625   -2.0676 H   0  0  0  0  0  0  0  0  0  0  0  0
   -1.3895    5.0223   -1.4217 H   0  0  0  0  0  0  0  0  0  0  0  0
   -1.6059    5.5823    0.9597 H   0  0  0  0  0  0  0  0  0  0  0  0
   -0.7843    3.9949    2.6689 H   0  0  0  0  0  0  0  0  0  0  0  0
    1.3382    1.6203   -2.3454 H   0  0  0  0  0  0  0  0  0  0  0  0
    2.4096    1.9729   -0.9647 H   0  0  0  0  0  0  0  0  0  0  0  0
    2.1577   -0.4581   -2.6368 H   0  0  0  0  0  0  0  0  0  0  0  0
    3.6145    0.2963   -1.9795 H   0  0  0  0  0  0  0  0  0  0  0  0
  1  2  1  0
  2  3  1  0
  3  4  2  0
  3  5  2  0
  3  6  1  0
  6  7  1  0
  7  8  1  0
  8  9  1  0
  9 10  1  0
 10 11  1  0
 11 12  1  0
 12 13  2  0
 12 14  1  0
 14 15  2  0
 15 16  1  0
 16 17  2  0
 17 18  1  0
 17 19  1  0
 19 20  2  0
 20 21  1  0
  9 22  1  0
 22 23  2  0
 23 24  1  0
 24 25  2  0
 25 26  1  0
 26 27  2  0
  9 28  1  0
 28 29  1  0
 29  6  1  0
 20 14  1  0
 27 22  1  0
  1 30  1  0
  1 31  1  0
  1 32  1  0
  2 33  1  0
  2 34  1  0
  7 35  1  0
  7 36  1  0
  8 37  1  0
  8 38  1  0
 10 39  1  0
 10 40  1  0
 11 41  1  0
 15 42  1  0
 16 43  1  0
 19 44  1  0
 23 45  1  0
 24 46  1  0
 25 47  1  0
 26 48  1  0
 28 49  1  0
 28 50  1  0
 29 51  1  0
 29 52  1  0
M  END
$$$$
