@<TRIPOS>MOLECULE
*****
 52 54 0 0 0
SMALL
GASTEIGER

@<TRIPOS>ATOM
      1 C           5.2612   -1.9018    1.1339 C.3     1  UNL1       -0.0442
      2 C           5.1536   -2.1930   -0.3233 C.3     1  UNL1        0.0791
      3 S           3.5064   -2.3765   -0.9267 S.O2    1  UNL1        0.0316
      4 O           2.8643   -3.5156   -0.1487 O.2     1  UNL1       -0.1580
      5 O           3.6141   -2.7812   -2.3819 O.2     1  UNL1       -0.1580
      6 N           2.6052   -0.9860   -0.6888 N.3     1  UNL1       -0.1811
      7 C           2.3843   -0.5226    0.6197 C.3     1  UNL1        0.0210
      8 C           1.0495    0.1796    0.7772 C.3     1  UNL1       -0.0260
      9 C           0.6349    0.9501   -0.4258 C.3     1  UNL1        0.0308
     10 C          -0.4368    0.1685   -1.2006 C.3     1  UNL1        0.0230
     11 N          -1.5991   -0.0619   -0.3687 N.am    1  UNL1       -0.3104
     12 C          -2.6740   -0.7826   -0.9569 C.2     1  UNL1        0.2455
     13 O          -2.5909   -1.1941   -2.1608 O.2     1  UNL1       -0.2702
     14 C          -3.9097   -1.0972   -0.2577 C.ar    1  UNL1        0.0550
     15 C          -4.7567   -0.1168    0.1830 C.ar    1  UNL1       -0.0468
     16 C          -5.9290   -0.4869    0.8482 C.ar    1  UNL1       -0.0426
     17 C          -6.2587   -1.8077    1.0743 C.ar    1  UNL1        0.0424
     18 CL         -7.7372   -2.2694    1.9133 Cl      1  UNL1       -0.0835
     19 C          -5.3958   -2.7858    0.6246 C.ar    1  UNL1       -0.0243
     20 C          -4.2459   -2.4243   -0.0278 C.ar    1  UNL1        0.0544
     21 CL         -3.1627   -3.6965   -0.5896 Cl      1  UNL1       -0.0827
     22 C           0.0131    2.2354   -0.0285 C.ar    1  UNL1        0.0490
     23 C          -0.4428    3.1145   -1.0090 C.ar    1  UNL1       -0.0398
     24 C          -1.0189    4.3034   -0.6979 C.ar    1  UNL1       -0.0586
     25 C          -1.1602    4.6584    0.6445 C.ar    1  UNL1       -0.0436
     26 C          -0.6994    3.7686    1.6061 C.ar    1  UNL1        0.0279
     27 N          -0.1325    2.5961    1.2488 N.ar    1  UNL1       -0.2593
     28 C           1.7471    1.2001   -1.4046 C.3     1  UNL1       -0.0260
     29 C           2.5865   -0.0041   -1.6938 C.3     1  UNL1        0.0210
     30 H           4.5170   -2.4316    1.7683 H       1  UNL1        0.0246
     31 H           5.2354   -0.8206    1.3246 H       1  UNL1        0.0246
     32 H           6.2583   -2.2799    1.5149 H       1  UNL1        0.0246
     33 H           5.6521   -1.3628   -0.8685 H       1  UNL1        0.0513
     34 H           5.7613   -3.1231   -0.5162 H       1  UNL1        0.0513
     35 H           3.1616    0.2684    0.8452 H       1  UNL1        0.0444
     36 H           2.4593   -1.2742    1.3981 H       1  UNL1        0.0444
     37 H           1.1552    0.8735    1.6356 H       1  UNL1        0.0288
     38 H           0.3149   -0.5949    1.0804 H       1  UNL1        0.0288
     39 H           0.0280   -0.7670   -1.5211 H       1  UNL1        0.0471
     40 H          -0.7638    0.8175   -2.0402 H       1  UNL1        0.0471
     41 H          -1.6960    0.2615    0.6172 H       1  UNL1        0.1490
     42 H          -4.4862    0.9104   -0.0001 H       1  UNL1        0.0626
     43 H          -6.5925    0.2861    1.1938 H       1  UNL1        0.0632
     44 H          -5.6693   -3.8275    0.8107 H       1  UNL1        0.0647
     45 H          -0.3452    2.8625   -2.0676 H       1  UNL1        0.0636
     46 H          -1.3895    5.0223   -1.4217 H       1  UNL1        0.0619
     47 H          -1.6059    5.5823    0.9597 H       1  UNL1        0.0633
     48 H          -0.7843    3.9949    2.6689 H       1  UNL1        0.0829
     49 H           1.3382    1.6203   -2.3454 H       1  UNL1        0.0288
     50 H           2.4096    1.9729   -0.9647 H       1  UNL1        0.0288
     51 H           2.1577   -0.4581   -2.6368 H       1  UNL1        0.0444
     52 H           3.6145    0.2963   -1.9795 H       1  UNL1        0.0444
@<TRIPOS>BOND
     1     1     2    1
     2     2     3    1
     3     3     4    2
     4     3     5    2
     5     3     6    1
     6     6     7    1
     7     7     8    1
     8     8     9    1
     9     9    10    1
    10    10    11    1
    11    11    12   am
    12    12    13    2
    13    12    14    1
    14    14    15   ar
    15    15    16   ar
    16    16    17   ar
    17    17    18    1
    18    17    19   ar
    19    19    20   ar
    20    20    21    1
    21     9    22    1
    22    22    23   ar
    23    23    24   ar
    24    24    25   ar
    25    25    26   ar
    26    26    27   ar
    27     9    28    1
    28    28    29    1
    29    29     6    1
    30    20    14   ar
    31    27    22   ar
    32     1    30    1
    33     1    31    1
    34     1    32    1
    35     2    33    1
    36     2    34    1
    37     7    35    1
    38     7    36    1
    39     8    37    1
    40     8    38    1
    41    10    39    1
    42    10    40    1
    43    11    41    1
    44    15    42    1
    45    16    43    1
    46    19    44    1
    47    23    45    1
    48    24    46    1
    49    25    47    1
    50    26    48    1
    51    28    49    1
    52    28    50    1
    53    29    51    1
    54    29    52    1
