@<TRIPOS>MOLECULE
*****
 18 17 0 0 0
SMALL
GASTEIGER

@<TRIPOS>ATOM
      1 O           0.9364   -1.7544    0.5642 O.3     1  UNL1       -0.3907
      2 C           0.0468   -0.6896    0.4781 C.3     1  UNL1        0.0753
      3 C          -1.2331   -1.1414   -0.2266 C.3     1  UNL1        0.0712
      4 C          -2.1390    0.0181   -0.2923 C.2     1  UNL1        0.3072
      5 O          -2.9950    1.1073   -0.3210 O.3     1  UNL1       -0.4806
      6 O          -2.5064    0.2564    0.9081 O.2     1  UNL1       -0.2509
      7 C           0.6945    0.3391   -0.4197 C.3     1  UNL1        0.0712
      8 C           1.9825    0.8105    0.1168 C.2     1  UNL1        0.3072
      9 O           2.7664    1.7519   -0.5227 O.3     1  UNL1       -0.4806
     10 O           2.4682    0.3885    1.2046 O.2     1  UNL1       -0.2509
     11 H           1.0227   -2.0038    1.5173 H       1  UNL1        0.2098
     12 H          -0.1536   -0.2966    1.4742 H       1  UNL1        0.0604
     13 H          -1.7048   -2.0143    0.2862 H       1  UNL1        0.0403
     14 H          -1.0047   -1.4610   -1.2572 H       1  UNL1        0.0403
     15 H          -2.7564    1.9342   -0.8917 H       1  UNL1        0.2951
     16 H           0.7835   -0.1027   -1.4476 H       1  UNL1        0.0403
     17 H           0.0237    1.2126   -0.5237 H       1  UNL1        0.0403
     18 H           3.7684    1.6451   -0.6470 H       1  UNL1        0.2951
@<TRIPOS>BOND
     1     1     2    1
     2     2     3    1
     3     3     4    1
     4     4     5    1
     5     4     6    2
     6     2     7    1
     7     7     8    1
     8     8     9    1
     9     8    10    2
    10     1    11    1
    11     2    12    1
    12     3    13    1
    13     3    14    1
    14     5    15    1
    15     7    16    1
    16     7    17    1
    17     9    18    1
