
     RDKit          3D

 60 63  0  0  0  0  0  0  0  0999 V2000
   -2.8052    1.8915    1.7567 C   0  0  1  0  0  0  0  0  0  0  0  0
   -3.8971    2.5750    1.0402 C   0  0  0  0  0  0  0  0  0  0  0  0
   -5.2350    2.0156    0.9338 C   0  0  0  0  0  0  0  0  0  0  0  0
   -5.5175    0.7701    0.3118 N   0  0  0  0  0  0  0  0  0  0  0  0
   -5.7363   -0.6359    0.5589 C   0  0  0  0  0  0  0  0  0  0  0  0
   -5.7093   -0.9492    1.7836 O   0  0  0  0  0  0  0  0  0  0  0  0
   -5.9393   -1.3540   -0.6886 C   0  0  0  0  0  0  0  0  0  0  0  0
   -6.1726   -2.7064   -0.8072 C   0  0  0  0  0  0  0  0  0  0  0  0
   -6.3399   -3.1931   -2.0965 C   0  0  0  0  0  0  0  0  0  0  0  0
   -6.2730   -2.3468   -3.2053 C   0  0  0  0  0  0  0  0  0  0  0  0
   -6.0347   -1.0134   -2.9670 C   0  0  0  0  0  0  0  0  0  0  0  0
   -5.8576   -0.4489   -1.7237 C   0  0  0  0  0  0  0  0  0  0  0  0
   -5.6002    0.8585   -1.1358 C   0  0  0  0  0  0  0  0  0  0  0  0
   -5.4977    1.8094   -1.9661 O   0  0  0  0  0  0  0  0  0  0  0  0
   -2.4158    0.5905    1.1839 C   0  0  0  0  0  0  0  0  0  0  0  0
   -1.2788   -0.0470    1.9405 C   0  0  0  0  0  0  0  0  0  0  0  0
   -1.5789   -0.5860    3.0408 O   0  0  0  0  0  0  0  0  0  0  0  0
    0.0748   -0.0464    1.4442 C   0  0  0  0  0  0  0  0  0  0  0  0
    0.5226    0.5215    0.2554 C   0  0  0  0  0  0  0  0  0  0  0  0
    1.8387    0.4744   -0.1492 C   0  0  0  0  0  0  0  0  0  0  0  0
    2.7760   -0.1561    0.6378 C   0  0  0  0  0  0  0  0  0  0  0  0
    2.3826   -0.7281    1.8137 C   0  0  0  0  0  0  0  0  0  0  0  0
    1.0557   -0.6645    2.1925 C   0  0  0  0  0  0  0  0  0  0  0  0
    4.1745   -0.2240    0.2405 C   0  0  0  0  0  0  0  0  0  0  0  0
    4.5443   -0.2831   -1.0933 C   0  0  0  0  0  0  0  0  0  0  0  0
    5.8457   -0.3496   -1.4981 C   0  0  0  0  0  0  0  0  0  0  0  0
    6.8661   -0.3610   -0.5686 C   0  0  0  0  0  0  0  0  0  0  0  0
    8.2391   -0.4219   -0.6931 O   0  0  0  0  0  0  0  0  0  0  0  0
    8.8321   -0.4952   -1.9684 C   0  0  0  0  0  0  0  0  0  0  0  0
    8.3576   -1.7522   -2.6632 C   0  0  0  0  0  0  0  0  0  0  0  0
    6.5174   -0.3023    0.7776 C   0  0  0  0  0  0  0  0  0  0  0  0
    5.1920   -0.2344    1.1873 C   0  0  0  0  0  0  0  0  0  0  0  0
   -1.6210    2.7991    1.9533 C   0  0  0  0  0  0  0  0  0  0  0  0
   -0.9484    3.3597    0.8785 O   0  0  0  0  0  0  0  0  0  0  0  0
   -1.1777    3.0992    3.1124 O   0  0  0  0  0  0  0  0  0  0  0  0
   -3.1791    1.6545    2.8154 H   0  0  0  0  0  0  0  0  0  0  0  0
   -3.9414    3.6562    1.4556 H   0  0  0  0  0  0  0  0  0  0  0  0
   -3.5325    2.8437   -0.0372 H   0  0  0  0  0  0  0  0  0  0  0  0
   -5.6700    1.9833    2.0192 H   0  0  0  0  0  0  0  0  0  0  0  0
   -5.9395    2.8340    0.5172 H   0  0  0  0  0  0  0  0  0  0  0  0
   -6.2286   -3.3768    0.0189 H   0  0  0  0  0  0  0  0  0  0  0  0
   -6.5295   -4.2597   -2.2863 H   0  0  0  0  0  0  0  0  0  0  0  0
   -6.4058   -2.7406   -4.2038 H   0  0  0  0  0  0  0  0  0  0  0  0
   -5.9815   -0.3501   -3.8175 H   0  0  0  0  0  0  0  0  0  0  0  0
   -3.2083   -0.1614    1.2266 H   0  0  0  0  0  0  0  0  0  0  0  0
   -2.1768    0.7189    0.1036 H   0  0  0  0  0  0  0  0  0  0  0  0
   -0.2212    1.0129   -0.3543 H   0  0  0  0  0  0  0  0  0  0  0  0
    2.1348    0.9336   -1.0865 H   0  0  0  0  0  0  0  0  0  0  0  0
    3.1145   -1.2271    2.4420 H   0  0  0  0  0  0  0  0  0  0  0  0
    0.7919   -1.1292    3.1254 H   0  0  0  0  0  0  0  0  0  0  0  0
    3.8056   -0.2797   -1.8823 H   0  0  0  0  0  0  0  0  0  0  0  0
    6.2043   -0.3928   -2.4973 H   0  0  0  0  0  0  0  0  0  0  0  0
    9.9377   -0.5507   -1.8093 H   0  0  0  0  0  0  0  0  0  0  0  0
    8.5608    0.4247   -2.5327 H   0  0  0  0  0  0  0  0  0  0  0  0
    9.2267   -2.4334   -2.8453 H   0  0  0  0  0  0  0  0  0  0  0  0
    7.9883   -1.4425   -3.6763 H   0  0  0  0  0  0  0  0  0  0  0  0
    7.5896   -2.2784   -2.0712 H   0  0  0  0  0  0  0  0  0  0  0  0
    7.1804   -0.3013    1.6407 H   0  0  0  0  0  0  0  0  0  0  0  0
    4.8540   -0.1878    2.2109 H   0  0  0  0  0  0  0  0  0  0  0  0
    0.0425    3.5847    1.0057 H   0  0  0  0  0  0  0  0  0  0  0  0
  1  2  1  0
  2  3  1  0
  3  4  1  0
  4  5  1  0
  5  6  2  0
  5  7  1  0
  7  8  2  0
  8  9  1  0
  9 10  2  0
 10 11  1  0
 11 12  2  0
 12 13  1  0
 13 14  2  0
  1 15  1  0
 15 16  1  0
 16 17  2  0
 16 18  1  0
 18 19  2  0
 19 20  1  0
 20 21  2  0
 21 22  1  0
 22 23  2  0
 21 24  1  0
 24 25  2  0
 25 26  1  0
 26 27  2  0
 27 28  1  0
 28 29  1  0
 29 30  1  0
 27 31  1  0
 31 32  2  0
  1 33  1  0
 33 34  1  0
 33 35  2  0
 13  4  1  0
 23 18  1  0
 32 24  1  0
 12  7  1  0
  1 36  1  1
  2 37  1  0
  2 38  1  0
  3 39  1  0
  3 40  1  0
  8 41  1  0
  9 42  1  0
 10 43  1  0
 11 44  1  0
 15 45  1  0
 15 46  1  0
 19 47  1  0
 20 48  1  0
 22 49  1  0
 23 50  1  0
 25 51  1  0
 26 52  1  0
 29 53  1  0
 29 54  1  0
 30 55  1  0
 30 56  1  0
 30 57  1  0
 31 58  1  0
 32 59  1  0
 34 60  1  0
M  END
$$$$
