@<TRIPOS>MOLECULE
*****
 60 63 0 0 0
SMALL
GASTEIGER

@<TRIPOS>ATOM
      1 C          -2.8052    1.8915    1.7567 C.3     1  UNL1        0.0647
      2 C          -3.8971    2.5750    1.0402 C.3     1  UNL1       -0.0233
      3 C          -5.2350    2.0156    0.9338 C.3     1  UNL1        0.0237
      4 N          -5.5175    0.7701    0.3118 N.am    1  UNL1       -0.2341
      5 C          -5.7363   -0.6359    0.5589 C.2     1  UNL1        0.2538
      6 O          -5.7093   -0.9492    1.7836 O.2     1  UNL1       -0.2695
      7 C          -5.9393   -1.3540   -0.6886 C.ar    1  UNL1        0.0494
      8 C          -6.1726   -2.7064   -0.8072 C.ar    1  UNL1       -0.0489
      9 C          -6.3399   -3.1931   -2.0965 C.ar    1  UNL1       -0.0610
     10 C          -6.2730   -2.3468   -3.2053 C.ar    1  UNL1       -0.0610
     11 C          -6.0347   -1.0134   -2.9670 C.ar    1  UNL1       -0.0489
     12 C          -5.8576   -0.4489   -1.7237 C.ar    1  UNL1        0.0494
     13 C          -5.6002    0.8585   -1.1358 C.2     1  UNL1        0.2538
     14 O          -5.4977    1.8094   -1.9661 O.2     1  UNL1       -0.2695
     15 C          -2.4158    0.5905    1.1839 C.3     1  UNL1        0.0234
     16 C          -1.2788   -0.0470    1.9405 C.2     1  UNL1        0.1639
     17 O          -1.5789   -0.5860    3.0408 O.2     1  UNL1       -0.2920
     18 C           0.0748   -0.0464    1.4442 C.ar    1  UNL1        0.0175
     19 C           0.5226    0.5215    0.2554 C.ar    1  UNL1       -0.0507
     20 C           1.8387    0.4744   -0.1492 C.ar    1  UNL1       -0.0534
     21 C           2.7760   -0.1561    0.6378 C.ar    1  UNL1       -0.0178
     22 C           2.3826   -0.7281    1.8137 C.ar    1  UNL1       -0.0534
     23 C           1.0557   -0.6645    2.1925 C.ar    1  UNL1       -0.0507
     24 C           4.1745   -0.2240    0.2405 C.ar    1  UNL1       -0.0177
     25 C           4.5443   -0.2831   -1.0933 C.ar    1  UNL1       -0.0506
     26 C           5.8457   -0.3496   -1.4981 C.ar    1  UNL1       -0.0194
     27 C           6.8661   -0.3610   -0.5686 C.ar    1  UNL1        0.1205
     28 O           8.2391   -0.4219   -0.6931 O.3     1  UNL1       -0.4922
     29 C           8.8321   -0.4952   -1.9684 C.3     1  UNL1        0.0868
     30 C           8.3576   -1.7522   -2.6632 C.3     1  UNL1       -0.0307
     31 C           6.5174   -0.3023    0.7776 C.ar    1  UNL1       -0.0194
     32 C           5.1920   -0.2344    1.1873 C.ar    1  UNL1       -0.0506
     33 C          -1.6210    2.7991    1.9533 C.2     1  UNL1        0.3083
     34 O          -0.9484    3.3597    0.8785 O.3     1  UNL1       -0.4804
     35 O          -1.1777    3.0992    3.1124 O.2     1  UNL1       -0.2507
     36 H          -3.1791    1.6545    2.8154 H       1  UNL1        0.0418
     37 H          -3.9414    3.6562    1.4556 H       1  UNL1        0.0288
     38 H          -3.5325    2.8437   -0.0372 H       1  UNL1        0.0288
     39 H          -5.6700    1.9833    2.0192 H       1  UNL1        0.0470
     40 H          -5.9395    2.8340    0.5172 H       1  UNL1        0.0470
     41 H          -6.2286   -3.3768    0.0189 H       1  UNL1        0.0625
     42 H          -6.5295   -4.2597   -2.2863 H       1  UNL1        0.0618
     43 H          -6.4058   -2.7406   -4.2038 H       1  UNL1        0.0618
     44 H          -5.9815   -0.3501   -3.8175 H       1  UNL1        0.0625
     45 H          -3.2083   -0.1614    1.2266 H       1  UNL1        0.0353
     46 H          -2.1768    0.7189    0.1036 H       1  UNL1        0.0353
     47 H          -0.2212    1.0129   -0.3543 H       1  UNL1        0.0625
     48 H           2.1348    0.9336   -1.0865 H       1  UNL1        0.0624
     49 H           3.1145   -1.2271    2.4420 H       1  UNL1        0.0624
     50 H           0.7919   -1.1292    3.1254 H       1  UNL1        0.0625
     51 H           3.8056   -0.2797   -1.8823 H       1  UNL1        0.0625
     52 H           6.2043   -0.3928   -2.4973 H       1  UNL1        0.0654
     53 H           9.9377   -0.5507   -1.8093 H       1  UNL1        0.0694
     54 H           8.5608    0.4247   -2.5327 H       1  UNL1        0.0694
     55 H           9.2267   -2.4334   -2.8453 H       1  UNL1        0.0262
     56 H           7.9883   -1.4425   -3.6763 H       1  UNL1        0.0262
     57 H           7.5896   -2.2784   -2.0712 H       1  UNL1        0.0262
     58 H           7.1804   -0.3013    1.6407 H       1  UNL1        0.0654
     59 H           4.8540   -0.1878    2.2109 H       1  UNL1        0.0625
     60 H           0.0425    3.5847    1.0057 H       1  UNL1        0.2951
@<TRIPOS>BOND
     1     1     2    1
     2     2     3    1
     3     3     4    1
     4     4     5   am
     5     5     6    2
     6     5     7    1
     7     7     8   ar
     8     8     9   ar
     9     9    10   ar
    10    10    11   ar
    11    11    12   ar
    12    12    13    1
    13    13    14    2
    14     1    15    1
    15    15    16    1
    16    16    17    2
    17    16    18    1
    18    18    19   ar
    19    19    20   ar
    20    20    21   ar
    21    21    22   ar
    22    22    23   ar
    23    21    24    1
    24    24    25   ar
    25    25    26   ar
    26    26    27   ar
    27    27    28    1
    28    28    29    1
    29    29    30    1
    30    27    31   ar
    31    31    32   ar
    32     1    33    1
    33    33    34    1
    34    33    35    2
    35    13     4   am
    36    23    18   ar
    37    32    24   ar
    38    12     7   ar
    39     1    36    1
    40     2    37    1
    41     2    38    1
    42     3    39    1
    43     3    40    1
    44     8    41    1
    45     9    42    1
    46    10    43    1
    47    11    44    1
    48    15    45    1
    49    15    46    1
    50    19    47    1
    51    20    48    1
    52    22    49    1
    53    23    50    1
    54    25    51    1
    55    26    52    1
    56    29    53    1
    57    29    54    1
    58    30    55    1
    59    30    56    1
    60    30    57    1
    61    31    58    1
    62    32    59    1
    63    34    60    1
