@<TRIPOS>MOLECULE
*****
 58 63 0 0 0
SMALL
GASTEIGER

@<TRIPOS>ATOM
      1 C           5.9006   -1.0178   -2.5940 C.3     1  UNL1        0.0804
      2 O           4.9702   -0.5984   -1.5938 O.3     1  UNL1       -0.4792
      3 C           4.8947   -1.2382   -0.3731 C.ar    1  UNL1        0.2239
      4 N           5.7047   -2.2735   -0.1132 N.ar    1  UNL1       -0.2208
      5 C           5.6928   -2.9463    1.0461 C.ar    1  UNL1        0.0314
      6 C           4.8011   -2.5508    2.0175 C.ar    1  UNL1       -0.0427
      7 C           3.9528   -1.4887    1.7825 C.ar    1  UNL1       -0.0459
      8 C           4.0025   -0.8175    0.5566 C.ar    1  UNL1        0.0643
      9 C           3.1033    0.2989    0.3204 C.ar    1  UNL1        0.1103
     10 N           3.3565    1.5519   -0.0782 N.ar    1  UNL1       -0.1702
     11 N           2.2934    2.2772   -0.1803 N.ar    1  UNL1       -0.2679
     12 C           2.1525    3.6691   -0.5785 C.3     1  UNL1        0.0306
     13 C           1.2234    1.5072    0.1617 C.ar    1  UNL1        0.0768
     14 C           1.7121    0.2723    0.4762 C.ar    1  UNL1        0.0880
     15 C           0.6213   -0.6023    0.8567 C.2     1  UNL1        0.2556
     16 O           0.7729   -1.8098    1.1991 O.2     1  UNL1       -0.2695
     17 N          -0.5559    0.1616    0.7593 N.am    1  UNL1       -0.2529
     18 C          -1.8269   -0.3824    1.0833 C.ar    1  UNL1        0.0545
     19 C          -2.2716   -0.2423    2.3774 C.ar    1  UNL1       -0.0324
     20 C          -3.5025   -0.7571    2.7510 C.ar    1  UNL1       -0.0041
     21 C          -3.9725   -0.5986    4.1588 C.3     1  UNL1       -0.0361
     22 C          -4.2595   -1.4050    1.8037 C.ar    1  UNL1        0.1641
     23 N          -5.4724   -1.9855    1.9093 N.ar    1  UNL1       -0.1292
     24 N          -5.7769   -2.4682    0.7379 N.ar    1  UNL1       -0.1340
     25 C          -4.7997   -2.2239   -0.1414 C.ar    1  UNL1        0.1347
     26 C          -4.7179   -2.5884   -1.5851 C.3     1  UNL1       -0.0041
     27 N          -3.8413   -1.5522    0.5320 N.ar    1  UNL1       -0.2846
     28 C          -2.6316   -1.0396    0.1882 C.ar    1  UNL1        0.0344
     29 C          -0.2432    1.4764    0.3225 C.3     1  UNL1        0.0988
     30 C          -0.9424    1.8801   -0.9205 C.ar    1  UNL1       -0.0207
     31 C          -1.0480    1.1051   -2.0374 C.ar    1  UNL1       -0.0550
     32 C          -1.7245    1.5713   -3.1587 C.ar    1  UNL1       -0.0431
     33 C          -2.3104    2.8403   -3.1682 C.ar    1  UNL1        0.0410
     34 CL         -3.1677    3.4500   -4.5661 Cl      1  UNL1       -0.0835
     35 C          -2.2019    3.6115   -2.0484 C.ar    1  UNL1       -0.0431
     36 C          -1.5299    3.1266   -0.9588 C.ar    1  UNL1       -0.0550
     37 H           6.9071   -0.9237   -2.1003 H       1  UNL1        0.0660
     38 H           5.7865   -2.0830   -2.8502 H       1  UNL1        0.0660
     39 H           5.9027   -0.3492   -3.4581 H       1  UNL1        0.0660
     40 H           6.3457   -3.7673    1.2327 H       1  UNL1        0.0831
     41 H           4.7563   -3.0662    2.9716 H       1  UNL1        0.0633
     42 H           3.2518   -1.1762    2.5430 H       1  UNL1        0.0626
     43 H           1.5695    3.6992   -1.5391 H       1  UNL1        0.0473
     44 H           1.6144    4.2662    0.1831 H       1  UNL1        0.0473
     45 H           3.1288    4.1385   -0.7776 H       1  UNL1        0.0473
     46 H          -1.6806    0.2705    3.1413 H       1  UNL1        0.0640
     47 H          -4.6778    0.2601    4.2085 H       1  UNL1        0.0279
     48 H          -3.0955   -0.3314    4.7882 H       1  UNL1        0.0279
     49 H          -4.4895   -1.5096    4.5053 H       1  UNL1        0.0279
     50 H          -4.1495   -3.5488   -1.7260 H       1  UNL1        0.0308
     51 H          -5.7499   -2.8214   -1.9340 H       1  UNL1        0.0308
     52 H          -4.3107   -1.7771   -2.2064 H       1  UNL1        0.0308
     53 H          -2.3222   -1.1736   -0.8307 H       1  UNL1        0.0833
     54 H          -0.5792    2.1653    1.1420 H       1  UNL1        0.0620
     55 H          -0.6063    0.1320   -2.0475 H       1  UNL1        0.0621
     56 H          -1.8307    0.9935   -4.0570 H       1  UNL1        0.0632
     57 H          -2.6468    4.5868   -2.0428 H       1  UNL1        0.0632
     58 H          -1.4821    3.8026   -0.0906 H       1  UNL1        0.0621
@<TRIPOS>BOND
     1     1     2    1
     2     2     3    1
     3     3     4   ar
     4     4     5   ar
     5     5     6   ar
     6     6     7   ar
     7     7     8   ar
     8     8     9    1
     9     9    10   ar
    10    10    11   ar
    11    11    12    1
    12    11    13   ar
    13    13    14   ar
    14    14    15    1
    15    15    16    2
    16    15    17   am
    17    17    18    1
    18    18    19   ar
    19    19    20   ar
    20    20    21    1
    21    20    22   ar
    22    22    23   ar
    23    23    24   ar
    24    24    25   ar
    25    25    26    1
    26    25    27   ar
    27    27    28   ar
    28    17    29    1
    29    29    30    1
    30    30    31   ar
    31    31    32   ar
    32    32    33   ar
    33    33    34    1
    34    33    35   ar
    35    35    36   ar
    36     8     3   ar
    37    14     9   ar
    38    28    18   ar
    39    36    30   ar
    40    29    13    1
    41    27    22   ar
    42     1    37    1
    43     1    38    1
    44     1    39    1
    45     5    40    1
    46     6    41    1
    47     7    42    1
    48    12    43    1
    49    12    44    1
    50    12    45    1
    51    19    46    1
    52    21    47    1
    53    21    48    1
    54    21    49    1
    55    26    50    1
    56    26    51    1
    57    26    52    1
    58    28    53    1
    59    29    54    1
    60    31    55    1
    61    32    56    1
    62    35    57    1
    63    36    58    1
