@<TRIPOS>MOLECULE
*****
 56 58 0 0 0
SMALL
GASTEIGER

@<TRIPOS>ATOM
      1 C          -8.4351    2.6802   -2.0613 C.3     1  UNL1        0.0003
      2 N          -7.8972    1.3807   -1.6595 N.pl3   1  UNL1       -0.3165
      3 C          -6.5801    1.2613   -1.1429 C.ar    1  UNL1        0.2180
      4 N          -5.7417    2.2777   -0.9808 N.ar    1  UNL1       -0.2220
      5 C          -4.4960    2.1044   -0.4830 C.ar    1  UNL1        0.0485
      6 C          -4.0521    0.8472   -0.1232 C.ar    1  UNL1        0.1165
      7 C          -2.7285    0.6772    0.4036 C.2     1  UNL1        0.2549
      8 O          -1.9848    1.7298    0.5244 O.2     1  UNL1       -0.2696
      9 N          -2.0889   -0.4982    0.8249 N.am    1  UNL1       -0.2811
     10 C          -0.7434   -0.5008    1.3345 C.ar    1  UNL1        0.0373
     11 C           0.3550   -0.6633    0.5434 C.ar    1  UNL1       -0.0281
     12 C           1.6600   -0.6630    1.0585 C.ar    1  UNL1        0.0388
     13 C           2.7979   -0.8401    0.1721 C.2     1  UNL1        0.2483
     14 O           2.6202   -0.9985   -1.0895 O.2     1  UNL1       -0.2699
     15 N           4.1325   -0.8479    0.6373 N.am    1  UNL1       -0.2813
     16 C           5.2445   -1.0240   -0.2506 C.ar    1  UNL1        0.0371
     17 C           5.7535   -2.2589   -0.5526 C.ar    1  UNL1       -0.0402
     18 C           6.8339   -2.4271   -1.4155 C.ar    1  UNL1       -0.0595
     19 C           7.4101   -1.3370   -1.9825 C.ar    1  UNL1       -0.0497
     20 C           6.9002   -0.0831   -1.6815 C.ar    1  UNL1        0.0595
     21 C           7.5194    1.1172   -2.2929 C.3     1  UNL1        0.4177
     22 F           8.5722    0.7283   -3.1148 F       1  UNL1       -0.1659
     23 F           6.6523    1.8310   -3.0832 F       1  UNL1       -0.1659
     24 F           8.0748    1.8824   -1.2793 F       1  UNL1       -0.1659
     25 C           5.8190    0.0832   -0.8177 C.ar    1  UNL1       -0.0176
     26 C           5.3369    1.4697   -0.5517 C.3     1  UNL1       -0.0374
     27 C           1.7636   -0.4885    2.4121 C.ar    1  UNL1       -0.0493
     28 C           0.6763   -0.3195    3.2573 C.ar    1  UNL1       -0.0564
     29 C          -0.5939   -0.3283    2.6919 C.ar    1  UNL1       -0.0292
     30 C          -1.7914   -0.1516    3.5512 C.3     1  UNL1       -0.0380
     31 C          -4.9150   -0.1963   -0.2904 C.ar    1  UNL1        0.2313
     32 O          -4.6042   -1.5032    0.0266 O.3     1  UNL1       -0.4790
     33 C          -5.5355   -2.5280   -0.1694 C.3     1  UNL1        0.0804
     34 N          -6.1451    0.0437   -0.7925 N.ar    1  UNL1       -0.1788
     35 H          -7.6118    3.3401   -2.3510 H       1  UNL1        0.0426
     36 H          -9.0732    2.5559   -2.9775 H       1  UNL1        0.0426
     37 H          -9.0630    3.0716   -1.2435 H       1  UNL1        0.0426
     38 H          -8.5264    0.5698   -1.7738 H       1  UNL1        0.1486
     39 H          -3.8822    2.9812   -0.3845 H       1  UNL1        0.0840
     40 H          -2.5797   -1.4027    0.7773 H       1  UNL1        0.1551
     41 H           0.2299   -0.7962   -0.5067 H       1  UNL1        0.0644
     42 H           4.2964   -0.7211    1.6560 H       1  UNL1        0.1551
     43 H           5.3448   -3.1689   -0.1381 H       1  UNL1        0.0636
     44 H           7.2257   -3.4019   -1.6458 H       1  UNL1        0.0618
     45 H           8.2542   -1.4642   -2.6570 H       1  UNL1        0.0623
     46 H           4.5096    1.4566    0.2128 H       1  UNL1        0.0278
     47 H           4.9906    1.9006   -1.5078 H       1  UNL1        0.0278
     48 H           6.1306    2.0901   -0.0881 H       1  UNL1        0.0278
     49 H           2.7475   -0.4807    2.8581 H       1  UNL1        0.0625
     50 H           0.7597   -0.1832    4.3162 H       1  UNL1        0.0621
     51 H          -2.1072    0.9049    3.6198 H       1  UNL1        0.0278
     52 H          -2.5914   -0.8218    3.1658 H       1  UNL1        0.0278
     53 H          -1.5699   -0.5021    4.5829 H       1  UNL1        0.0278
     54 H          -5.1337   -3.4395    0.3321 H       1  UNL1        0.0660
     55 H          -5.6264   -2.6845   -1.2818 H       1  UNL1        0.0660
     56 H          -6.5135   -2.2604    0.2826 H       1  UNL1        0.0660
@<TRIPOS>BOND
     1     1     2    1
     2     2     3    1
     3     3     4   ar
     4     4     5   ar
     5     5     6   ar
     6     6     7    1
     7     7     8    2
     8     7     9   am
     9     9    10    1
    10    10    11   ar
    11    11    12   ar
    12    12    13    1
    13    13    14    2
    14    13    15   am
    15    15    16    1
    16    16    17   ar
    17    17    18   ar
    18    18    19   ar
    19    19    20   ar
    20    20    21    1
    21    21    22    1
    22    21    23    1
    23    21    24    1
    24    20    25   ar
    25    25    26    1
    26    12    27   ar
    27    27    28   ar
    28    28    29   ar
    29    29    30    1
    30     6    31   ar
    31    31    32    1
    32    32    33    1
    33    31    34   ar
    34    34     3   ar
    35    29    10   ar
    36    25    16   ar
    37     1    35    1
    38     1    36    1
    39     1    37    1
    40     2    38    1
    41     5    39    1
    42     9    40    1
    43    11    41    1
    44    15    42    1
    45    17    43    1
    46    18    44    1
    47    19    45    1
    48    26    46    1
    49    26    47    1
    50    26    48    1
    51    27    49    1
    52    28    50    1
    53    30    51    1
    54    30    52    1
    55    30    53    1
    56    33    54    1
    57    33    55    1
    58    33    56    1
