@<TRIPOS>MOLECULE
*****
 55 59 0 0 0
SMALL
GASTEIGER

@<TRIPOS>ATOM
      1 C          -1.5001   -2.2046   -2.6691 C.3     1  UNL1        0.0790
      2 O          -0.4924   -1.6808   -1.8308 O.3     1  UNL1       -0.4914
      3 C          -0.8063   -1.1646   -0.5838 C.ar    1  UNL1        0.1623
      4 C          -2.0952   -1.1235   -0.1130 C.ar    1  UNL1       -0.0038
      5 C          -2.4380   -0.6142    1.1320 C.ar    1  UNL1        0.0441
      6 C          -3.7225   -0.5766    1.6185 C.ar    1  UNL1        0.1340
      7 N          -4.7632   -1.0901    0.7752 N.pl3   1  UNL1       -0.2988
      8 C          -5.6547   -0.1580    0.2109 C.ar    1  UNL1        0.0339
      9 C          -6.8159   -0.6097   -0.3698 C.ar    1  UNL1       -0.0390
     10 C          -7.7341    0.2766   -0.9314 C.ar    1  UNL1       -0.0402
     11 C          -7.4905    1.6151   -0.9121 C.ar    1  UNL1        0.0594
     12 CL         -8.6672    2.7154   -1.6271 Cl      1  UNL1       -0.0820
     13 C          -6.3221    2.0960   -0.3300 C.ar    1  UNL1        0.0610
     14 CL         -6.0364    3.8089   -0.3235 Cl      1  UNL1       -0.0820
     15 C          -5.4141    1.1891    0.2276 C.ar    1  UNL1       -0.0207
     16 N          -4.0076   -0.0785    2.8414 N.ar    1  UNL1       -0.2200
     17 C          -3.0523    0.4057    3.6451 C.ar    1  UNL1        0.1187
     18 N          -1.7877    0.3701    3.1686 N.ar    1  UNL1       -0.2352
     19 C          -1.4555   -0.1141    1.9638 C.ar    1  UNL1        0.0797
     20 C          -0.1542   -0.1508    1.4978 C.ar    1  UNL1        0.0099
     21 C           0.1899   -0.6570    0.2622 C.ar    1  UNL1        0.1643
     22 O           1.4692   -0.7158   -0.2364 O.3     1  UNL1       -0.4851
     23 C           2.6140   -0.3345    0.4401 C.3     1  UNL1        0.1010
     24 C           3.6904   -1.3696    0.4673 C.3     1  UNL1       -0.0115
     25 C           4.8836   -0.8029   -0.2802 C.3     1  UNL1       -0.0208
     26 C           5.8092   -0.0106    0.6089 C.3     1  UNL1        0.0018
     27 N           5.9641    1.2974    0.0515 N.3     1  UNL1       -0.3048
     28 C           7.3252    1.7596   -0.0175 C.3     1  UNL1       -0.0127
     29 C           5.4076    1.2527   -1.2888 C.3     1  UNL1        0.0018
     30 C           4.2660    0.2572   -1.1552 C.3     1  UNL1       -0.0208
     31 C           3.2221    0.8662   -0.2740 C.3     1  UNL1       -0.0115
     32 H          -2.2966   -1.4967   -2.9294 H       1  UNL1        0.0660
     33 H          -2.0089   -3.0708   -2.1462 H       1  UNL1        0.0660
     34 H          -1.0472   -2.7023   -3.5726 H       1  UNL1        0.0660
     35 H          -2.9205   -1.5070   -0.7369 H       1  UNL1        0.0663
     36 H          -4.8418   -2.1306    0.5926 H       1  UNL1        0.1536
     37 H          -7.0656   -1.6619   -0.4148 H       1  UNL1        0.0636
     38 H          -8.6426   -0.1278   -1.3831 H       1  UNL1        0.0633
     39 H          -4.5229    1.6305    0.6629 H       1  UNL1        0.0651
     40 H          -3.2741    0.8106    4.6331 H       1  UNL1        0.1048
     41 H           0.5880    0.2456    2.1625 H       1  UNL1        0.0677
     42 H           2.4023   -0.0615    1.5035 H       1  UNL1        0.0733
     43 H           4.0102   -1.6182    1.5235 H       1  UNL1        0.0304
     44 H           3.3703   -2.3473   -0.0061 H       1  UNL1        0.0304
     45 H           5.4234   -1.5670   -0.8675 H       1  UNL1        0.0317
     46 H           5.4570    0.0536    1.6427 H       1  UNL1        0.0429
     47 H           6.7980   -0.5524    0.6010 H       1  UNL1        0.0429
     48 H           7.3283    2.7555   -0.5101 H       1  UNL1        0.0391
     49 H           7.7423    1.8249    1.0142 H       1  UNL1        0.0391
     50 H           7.9211    1.0723   -0.6343 H       1  UNL1        0.0391
     51 H           6.1350    0.9039   -2.0398 H       1  UNL1        0.0429
     52 H           4.9553    2.2379   -1.5224 H       1  UNL1        0.0429
     53 H           3.8857   -0.1175   -2.1089 H       1  UNL1        0.0317
     54 H           3.7130    1.5490    0.4665 H       1  UNL1        0.0304
     55 H           2.4587    1.4228   -0.8706 H       1  UNL1        0.0304
@<TRIPOS>BOND
     1     1     2    1
     2     2     3    1
     3     3     4   ar
     4     4     5   ar
     5     5     6   ar
     6     6     7    1
     7     7     8    1
     8     8     9   ar
     9     9    10   ar
    10    10    11   ar
    11    11    12    1
    12    11    13   ar
    13    13    14    1
    14    13    15   ar
    15     6    16   ar
    16    16    17   ar
    17    17    18   ar
    18    18    19   ar
    19    19    20   ar
    20    20    21   ar
    21    21    22    1
    22    22    23    1
    23    23    24    1
    24    24    25    1
    25    25    26    1
    26    26    27    1
    27    27    28    1
    28    27    29    1
    29    29    30    1
    30    30    31    1
    31    21     3   ar
    32    31    23    1
    33    19     5   ar
    34    30    25    1
    35    15     8   ar
    36     1    32    1
    37     1    33    1
    38     1    34    1
    39     4    35    1
    40     7    36    1
    41     9    37    1
    42    10    38    1
    43    15    39    1
    44    17    40    1
    45    20    41    1
    46    23    42    1
    47    24    43    1
    48    24    44    1
    49    25    45    1
    50    26    46    1
    51    26    47    1
    52    28    48    1
    53    28    49    1
    54    28    50    1
    55    29    51    1
    56    29    52    1
    57    30    53    1
    58    31    54    1
    59    31    55    1
