@<TRIPOS>MOLECULE
*****
 35 35 0 0 0
SMALL
GASTEIGER

@<TRIPOS>ATOM
      1 O          -0.6419    0.6487   -0.9384 O.2     1  UNL1       -0.2755
      2 C          -0.5467   -0.3793   -0.2400 C.2     1  UNL1        0.2172
      3 N          -1.5383   -0.6301    0.7740 N.am    1  UNL1       -0.3135
      4 C          -2.6256    0.2611    1.0040 C.3     1  UNL1        0.0300
      5 C          -3.5206    0.4518   -0.1995 C.3     1  UNL1        0.0702
      6 S          -4.8131    1.5956    0.2906 S.3     1  UNL1       -0.0791
      7 O          -5.7314    1.8569   -0.8720 O.2     1  UNL1       -0.1853
      8 O          -4.1493    2.8486    0.7716 O.2     1  UNL1       -0.1853
      9 O          -5.6230    0.8772    1.5741 O.co2   1  UNL1       -0.7245
     10 C           0.5299   -1.3745   -0.3822 C.3     1  UNL1        0.0482
     11 C          -0.1325   -2.6777   -0.7813 C.3     1  UNL1        0.0021
     12 S           1.0809   -4.0037   -0.9934 S.3     1  UNL1       -0.1775
     13 C           1.6803   -1.0171   -1.2385 C.3     1  UNL1       -0.0158
     14 C           2.4364    0.1755   -0.8108 C.ar    1  UNL1       -0.0466
     15 C           2.2319    1.4316   -1.3287 C.ar    1  UNL1       -0.0586
     16 C           2.9554    2.5448   -0.8846 C.ar    1  UNL1       -0.0615
     17 C           3.9046    2.4078    0.0961 C.ar    1  UNL1       -0.0617
     18 C           4.1274    1.1637    0.6283 C.ar    1  UNL1       -0.0615
     19 C           3.4140    0.0765    0.1883 C.ar    1  UNL1       -0.0586
     20 H          -1.4304   -1.4927    1.3367 H       1  UNL1        0.1487
     21 H          -3.2616   -0.1227    1.8246 H       1  UNL1        0.0477
     22 H          -2.2909    1.2803    1.3409 H       1  UNL1        0.0477
     23 H          -4.0207   -0.4693   -0.5028 H       1  UNL1        0.0505
     24 H          -3.0132    0.8947   -1.0605 H       1  UNL1        0.0505
     25 H           0.9605   -1.5668    0.6575 H       1  UNL1        0.0405
     26 H          -0.6997   -2.5074   -1.7223 H       1  UNL1        0.0381
     27 H          -0.8686   -2.9320    0.0049 H       1  UNL1        0.0381
     28 H           0.5354   -5.1721   -0.4366 H       1  UNL1        0.1017
     29 H           2.4078   -1.8833   -1.1655 H       1  UNL1        0.0321
     30 H           1.4246   -0.9372   -2.3229 H       1  UNL1        0.0321
     31 H           1.5252    1.6349   -2.1073 H       1  UNL1        0.0620
     32 H           2.7585    3.5236   -1.3249 H       1  UNL1        0.0618
     33 H           4.4325    3.2916    0.4023 H       1  UNL1        0.0618
     34 H           4.8856    1.0918    1.4019 H       1  UNL1        0.0618
     35 H           3.6165   -0.8909    0.6313 H       1  UNL1        0.0620
@<TRIPOS>UNITY_ATOM_ATTR
9 1
charge -1
@<TRIPOS>BOND
     1     1     2    2
     2     2     3   am
     3     3     4    1
     4     4     5    1
     5     5     6    1
     6     6     7    2
     7     6     8    2
     8     6     9    1
     9     2    10    1
    10    10    11    1
    11    11    12    1
    12    10    13    1
    13    13    14    1
    14    14    15   ar
    15    15    16   ar
    16    16    17   ar
    17    17    18   ar
    18    18    19   ar
    19    19    14   ar
    20     3    20    1
    21     4    21    1
    22     4    22    1
    23     5    23    1
    24     5    24    1
    25    10    25    1
    26    11    26    1
    27    11    27    1
    28    12    28    1
    29    13    29    1
    30    13    30    1
    31    15    31    1
    32    16    32    1
    33    17    33    1
    34    18    34    1
    35    19    35    1
