
     RDKit          3D

 59 62  0  0  0  0  0  0  0  0999 V2000
    0.1610   -1.1218    0.1671 C   0  0  2  0  0  0  0  0  0  0  0  0
    1.0337   -1.8998    1.0895 C   0  0  0  0  0  0  0  0  0  0  0  0
    2.3204   -1.9626    0.2867 C   0  0  0  0  0  0  0  0  0  0  0  0
    2.3187   -0.6934   -0.5775 C   0  0  2  0  0  0  0  0  0  0  0  0
    2.2546   -0.9985   -1.9173 O   0  0  0  0  0  0  0  0  0  0  0  0
    3.5424    0.0585   -0.1867 C   0  0  0  0  0  0  0  0  0  0  0  0
    3.8600    0.4605    0.9411 O   0  0  0  0  0  0  0  0  0  0  0  0
    4.4986    0.3625   -1.2883 C   0  0  0  0  0  0  0  0  0  0  0  0
    5.6351    1.0768   -0.8461 O   0  0  0  0  0  0  0  0  0  0  0  0
    6.4884    0.5275    0.1237 C   0  0  0  0  0  0  0  0  0  0  0  0
    7.6696    1.3026    0.5642 C   0  0  0  0  0  0  0  0  0  0  0  0
    6.2733   -0.5916    0.6179 O   0  0  0  0  0  0  0  0  0  0  0  0
    1.0391    0.0342   -0.2262 C   0  0  2  0  0  0  0  0  0  0  0  0
    1.2054    1.0576    0.8566 C   0  0  0  0  0  0  0  0  0  0  0  0
    0.3990    0.6973   -1.4049 C   0  0  0  0  0  0  0  0  0  0  0  0
   -1.0662    0.7794   -1.3322 C   0  0  0  0  0  0  0  0  0  0  0  0
   -1.6058    1.6628   -2.0061 O   0  0  0  0  0  0  0  0  0  0  0  0
   -1.8820   -0.1263   -0.5104 C   0  0  1  0  0  0  0  0  0  0  0  0
   -1.1162   -0.5960    0.7251 C   0  0  1  0  0  0  0  0  0  0  0  0
   -1.9679   -1.6770    1.3688 C   0  0  0  0  0  0  0  0  0  0  0  0
   -3.1052   -0.9078    2.0469 C   0  0  0  0  0  0  0  0  0  0  0  0
   -3.8626   -0.2166    0.9785 C   0  0  0  0  0  0  0  0  0  0  0  0
   -5.1742   -0.1360    1.1437 C   0  0  0  0  0  0  0  0  0  0  0  0
   -5.9101    0.5476    0.0839 C   0  0  0  0  0  0  0  0  0  0  0  0
   -6.9650    1.2034    0.2794 O   0  0  0  0  0  0  0  0  0  0  0  0
   -5.5093    0.5550   -1.3481 C   0  0  0  0  0  0  0  0  0  0  0  0
   -4.0970    0.0946   -1.4731 C   0  0  0  0  0  0  0  0  0  0  0  0
   -3.2566    0.3663   -0.2175 C   0  0  2  0  0  0  0  0  0  0  0  0
   -3.2033    1.8739   -0.0537 C   0  0  0  0  0  0  0  0  0  0  0  0
   -0.0526   -1.6925   -0.7483 H   0  0  0  0  0  0  0  0  0  0  0  0
    1.2533   -1.3663    2.0137 H   0  0  0  0  0  0  0  0  0  0  0  0
    0.6520   -2.9045    1.3488 H   0  0  0  0  0  0  0  0  0  0  0  0
    3.2053   -2.0573    0.9129 H   0  0  0  0  0  0  0  0  0  0  0  0
    2.2372   -2.8381   -0.4158 H   0  0  0  0  0  0  0  0  0  0  0  0
    2.7456   -1.8162   -2.1665 H   0  0  0  0  0  0  0  0  0  0  0  0
    4.0420    0.9322   -2.1223 H   0  0  0  0  0  0  0  0  0  0  0  0
    4.8624   -0.6043   -1.7385 H   0  0  0  0  0  0  0  0  0  0  0  0
    7.8361    1.2388    1.6426 H   0  0  0  0  0  0  0  0  0  0  0  0
    7.6380    2.3514    0.1900 H   0  0  0  0  0  0  0  0  0  0  0  0
    8.5658    0.8191    0.0856 H   0  0  0  0  0  0  0  0  0  0  0  0
    1.4015    0.6737    1.8545 H   0  0  0  0  0  0  0  0  0  0  0  0
    1.9822    1.7766    0.4864 H   0  0  0  0  0  0  0  0  0  0  0  0
    0.2699    1.6583    0.8692 H   0  0  0  0  0  0  0  0  0  0  0  0
    0.7919    1.7527   -1.4242 H   0  0  0  0  0  0  0  0  0  0  0  0
    0.7672    0.2575   -2.3553 H   0  0  0  0  0  0  0  0  0  0  0  0
   -2.0011   -1.0676   -1.1238 H   0  0  0  0  0  0  0  0  0  0  0  0
   -0.9966    0.1821    1.4841 H   0  0  0  0  0  0  0  0  0  0  0  0
   -1.4038   -2.2969    2.0667 H   0  0  0  0  0  0  0  0  0  0  0  0
   -2.4633   -2.2478    0.5493 H   0  0  0  0  0  0  0  0  0  0  0  0
   -3.7127   -1.6669    2.5769 H   0  0  0  0  0  0  0  0  0  0  0  0
   -2.7121   -0.1388    2.7435 H   0  0  0  0  0  0  0  0  0  0  0  0
   -5.7580   -0.5139    1.9644 H   0  0  0  0  0  0  0  0  0  0  0  0
   -5.5997    1.5592   -1.8070 H   0  0  0  0  0  0  0  0  0  0  0  0
   -6.2268   -0.1206   -1.8768 H   0  0  0  0  0  0  0  0  0  0  0  0
   -4.1192   -1.0087   -1.6900 H   0  0  0  0  0  0  0  0  0  0  0  0
   -3.6306    0.5501   -2.3604 H   0  0  0  0  0  0  0  0  0  0  0  0
   -2.1740    2.2086    0.1947 H   0  0  0  0  0  0  0  0  0  0  0  0
   -3.5412    2.4291   -0.9427 H   0  0  0  0  0  0  0  0  0  0  0  0
   -3.8361    2.2174    0.7901 H   0  0  0  0  0  0  0  0  0  0  0  0
  1  2  1  0
  2  3  1  0
  3  4  1  0
  4  5  1  6
  4  6  1  0
  6  7  2  0
  6  8  1  0
  8  9  1  0
  9 10  1  0
 10 11  1  0
 10 12  2  0
  4 13  1  0
 13 14  1  1
 13 15  1  0
 15 16  1  0
 16 17  2  0
 16 18  1  0
 18 19  1  0
 19 20  1  0
 20 21  1  0
 21 22  1  0
 22 23  2  0
 23 24  1  0
 24 25  2  0
 24 26  1  0
 26 27  1  0
 27 28  1  0
 28 29  1  1
 13  1  1  0
 28 18  1  0
 19  1  1  0
 28 22  1  0
  1 30  1  6
  2 31  1  0
  2 32  1  0
  3 33  1  0
  3 34  1  0
  5 35  1  0
  8 36  1  0
  8 37  1  0
 11 38  1  0
 11 39  1  0
 11 40  1  0
 14 41  1  0
 14 42  1  0
 14 43  1  0
 15 44  1  0
 15 45  1  0
 18 46  1  6
 19 47  1  1
 20 48  1  0
 20 49  1  0
 21 50  1  0
 21 51  1  0
 23 52  1  0
 26 53  1  0
 26 54  1  0
 27 55  1  0
 27 56  1  0
 29 57  1  0
 29 58  1  0
 29 59  1  0
M  END
$$$$
