@<TRIPOS>MOLECULE
*****
 59 62 0 0 0
SMALL
GASTEIGER

@<TRIPOS>ATOM
      1 C           0.1610   -1.1218    0.1671 C.3     1  UNL1       -0.0286
      2 C           1.0337   -1.8998    1.0895 C.3     1  UNL1       -0.0463
      3 C           2.3204   -1.9626    0.2867 C.3     1  UNL1       -0.0161
      4 C           2.3187   -0.6934   -0.5775 C.3     1  UNL1        0.1329
      5 O           2.2546   -0.9985   -1.9173 O.3     1  UNL1       -0.3804
      6 C           3.5424    0.0585   -0.1867 C.2     1  UNL1        0.2022
      7 O           3.8600    0.4605    0.9411 O.2     1  UNL1       -0.2907
      8 C           4.4986    0.3625   -1.2883 C.3     1  UNL1        0.1530
      9 O           5.6351    1.0768   -0.8461 O.3     1  UNL1       -0.4570
     10 C           6.4884    0.5275    0.1237 C.2     1  UNL1        0.3043
     11 C           7.6696    1.3026    0.5642 C.3     1  UNL1        0.0332
     12 O           6.2733   -0.5916    0.6179 O.2     1  UNL1       -0.2512
     13 C           1.0391    0.0342   -0.2262 C.3     1  UNL1        0.0135
     14 C           1.2054    1.0576    0.8566 C.3     1  UNL1       -0.0559
     15 C           0.3990    0.6973   -1.4049 C.3     1  UNL1        0.0148
     16 C          -1.0662    0.7794   -1.3322 C.2     1  UNL1        0.1381
     17 O          -1.6058    1.6628   -2.0061 O.2     1  UNL1       -0.2971
     18 C          -1.8820   -0.1263   -0.5104 C.3     1  UNL1        0.0297
     19 C          -1.1162   -0.5960    0.7251 C.3     1  UNL1       -0.0270
     20 C          -1.9679   -1.6770    1.3688 C.3     1  UNL1       -0.0456
     21 C          -3.1052   -0.9078    2.0469 C.3     1  UNL1       -0.0305
     22 C          -3.8626   -0.2166    0.9785 C.2     1  UNL1       -0.0597
     23 C          -5.1742   -0.1360    1.1437 C.2     1  UNL1       -0.0194
     24 C          -5.9101    0.5476    0.0839 C.2     1  UNL1        0.1561
     25 O          -6.9650    1.2034    0.2794 O.2     1  UNL1       -0.2927
     26 C          -5.5093    0.5550   -1.3481 C.3     1  UNL1        0.0107
     27 C          -4.0970    0.0946   -1.4731 C.3     1  UNL1       -0.0363
     28 C          -3.2566    0.3663   -0.2175 C.3     1  UNL1       -0.0005
     29 C          -3.2033    1.8739   -0.0537 C.3     1  UNL1       -0.0552
     30 H          -0.0526   -1.6925   -0.7483 H       1  UNL1        0.0310
     31 H           1.2533   -1.3663    2.0137 H       1  UNL1        0.0269
     32 H           0.6520   -2.9045    1.3488 H       1  UNL1        0.0269
     33 H           3.2053   -2.0573    0.9129 H       1  UNL1        0.0297
     34 H           2.2372   -2.8381   -0.4158 H       1  UNL1        0.0297
     35 H           2.7456   -1.8162   -2.1665 H       1  UNL1        0.2108
     36 H           4.0420    0.9322   -2.1223 H       1  UNL1        0.0779
     37 H           4.8624   -0.6043   -1.7385 H       1  UNL1        0.0779
     38 H           7.8361    1.2388    1.6426 H       1  UNL1        0.0342
     39 H           7.6380    2.3514    0.1900 H       1  UNL1        0.0342
     40 H           8.5658    0.8191    0.0856 H       1  UNL1        0.0342
     41 H           1.4015    0.6737    1.8545 H       1  UNL1        0.0236
     42 H           1.9822    1.7766    0.4864 H       1  UNL1        0.0236
     43 H           0.2699    1.6583    0.8692 H       1  UNL1        0.0236
     44 H           0.7919    1.7527   -1.4242 H       1  UNL1        0.0348
     45 H           0.7672    0.2575   -2.3553 H       1  UNL1        0.0348
     46 H          -2.0011   -1.0676   -1.1238 H       1  UNL1        0.0389
     47 H          -0.9966    0.1821    1.4841 H       1  UNL1        0.0311
     48 H          -1.4038   -2.2969    2.0667 H       1  UNL1        0.0271
     49 H          -2.4633   -2.2478    0.5493 H       1  UNL1        0.0271
     50 H          -3.7127   -1.6669    2.5769 H       1  UNL1        0.0310
     51 H          -2.7121   -0.1388    2.7435 H       1  UNL1        0.0310
     52 H          -5.7580   -0.5139    1.9644 H       1  UNL1        0.0652
     53 H          -5.5997    1.5592   -1.8070 H       1  UNL1        0.0345
     54 H          -6.2268   -0.1206   -1.8768 H       1  UNL1        0.0345
     55 H          -4.1192   -1.0087   -1.6900 H       1  UNL1        0.0278
     56 H          -3.6306    0.5501   -2.3604 H       1  UNL1        0.0278
     57 H          -2.1740    2.2086    0.1947 H       1  UNL1        0.0238
     58 H          -3.5412    2.4291   -0.9427 H       1  UNL1        0.0238
     59 H          -3.8361    2.2174    0.7901 H       1  UNL1        0.0238
@<TRIPOS>BOND
     1     1     2    1
     2     2     3    1
     3     3     4    1
     4     4     5    1
     5     4     6    1
     6     6     7    2
     7     6     8    1
     8     8     9    1
     9     9    10    1
    10    10    11    1
    11    10    12    2
    12     4    13    1
    13    13    14    1
    14    13    15    1
    15    15    16    1
    16    16    17    2
    17    16    18    1
    18    18    19    1
    19    19    20    1
    20    20    21    1
    21    21    22    1
    22    22    23    2
    23    23    24    1
    24    24    25    2
    25    24    26    1
    26    26    27    1
    27    27    28    1
    28    28    29    1
    29    13     1    1
    30    28    18    1
    31    19     1    1
    32    28    22    1
    33     1    30    1
    34     2    31    1
    35     2    32    1
    36     3    33    1
    37     3    34    1
    38     5    35    1
    39     8    36    1
    40     8    37    1
    41    11    38    1
    42    11    39    1
    43    11    40    1
    44    14    41    1
    45    14    42    1
    46    14    43    1
    47    15    44    1
    48    15    45    1
    49    18    46    1
    50    19    47    1
    51    20    48    1
    52    20    49    1
    53    21    50    1
    54    21    51    1
    55    23    52    1
    56    26    53    1
    57    26    54    1
    58    27    55    1
    59    27    56    1
    60    29    57    1
    61    29    58    1
    62    29    59    1
