@<TRIPOS>MOLECULE
*****
 85 91 0 0 0
SMALL
GASTEIGER

@<TRIPOS>ATOM
      1 C           4.5683   -3.5383   -0.7220 C.3     1  UNL1        0.0789
      2 O           4.9332   -2.2797   -0.2165 O.3     1  UNL1       -0.4932
      3 C           4.0114   -1.3968    0.3485 C.ar    1  UNL1        0.1418
      4 C           2.6801   -1.7848    0.4103 C.ar    1  UNL1       -0.0089
      5 C           1.7476   -0.9488    0.9570 C.ar    1  UNL1        0.0064
      6 C           0.3419   -1.3161    1.0753 C.ar    1  UNL1        0.1054
      7 N          -0.7195   -0.5818    0.6328 N.ar    1  UNL1       -0.1683
      8 N          -1.8561   -1.1900    0.9151 N.ar    1  UNL1       -0.2426
      9 C          -3.2071   -0.7574    0.6250 C.3     1  UNL1        0.0550
     10 C          -3.2506    0.7603    0.4039 C.3     1  UNL1       -0.0290
     11 C          -4.7111    1.1431    0.5369 C.3     1  UNL1       -0.0354
     12 C          -5.4692    0.4796   -0.5629 C.3     1  UNL1        0.0107
     13 N          -6.7056   -0.0826   -0.0196 N.3     1  UNL1       -0.2964
     14 C          -7.4951   -0.7365   -1.0148 C.3     1  UNL1        0.0150
     15 C          -8.9970   -0.6070   -0.7391 C.3     1  UNL1        0.0275
     16 N          -9.3328    0.8039   -0.8124 N.am    1  UNL1       -0.2993
     17 C         -10.5583    1.2880   -1.2981 C.2     1  UNL1        0.2125
     18 C         -10.8142    2.7415   -1.3362 C.3     1  UNL1        0.0124
     19 O         -11.4307    0.4871   -1.6977 O.2     1  UNL1       -0.2759
     20 C          -8.2993    1.7327   -0.3401 C.3     1  UNL1        0.0275
     21 C          -7.4519    0.9460    0.6467 C.3     1  UNL1        0.0150
     22 C          -4.7026   -0.5059   -1.3706 C.3     1  UNL1       -0.0354
     23 C          -3.8266   -1.4210   -0.5603 C.3     1  UNL1       -0.0290
     24 C          -1.5330   -2.3402    1.5532 C.ar    1  UNL1        0.1641
     25 N          -2.2788   -3.3135    2.0586 N.ar    1  UNL1       -0.2161
     26 C          -1.7356   -4.3816    2.6719 C.ar    1  UNL1        0.1204
     27 N          -0.3885   -4.4734    2.7808 N.ar    1  UNL1       -0.2204
     28 C           0.4369   -3.5287    2.2943 C.ar    1  UNL1        0.1308
     29 N           1.8426   -3.6585    2.4549 N.pl3   1  UNL1       -0.3425
     30 C          -0.1405   -2.4429    1.6680 C.ar    1  UNL1        0.0859
     31 C           2.1489    0.2779    1.4410 C.ar    1  UNL1       -0.0505
     32 C           3.4993    0.6633    1.3742 C.ar    1  UNL1       -0.0363
     33 C           4.4285   -0.1837    0.8243 C.ar    1  UNL1        0.0759
     34 N           5.7989    0.2543    0.7805 N.am    1  UNL1       -0.2773
     35 C           6.2407    0.9617   -0.3555 C.2     1  UNL1        0.2648
     36 O           5.3551    1.1429   -1.2620 O.2     1  UNL1       -0.2682
     37 C           7.5829    1.4576   -0.5216 C.ar    1  UNL1        0.1055
     38 C           8.0423    1.9848   -1.7504 C.ar    1  UNL1       -0.0239
     39 C           9.3449    2.3951   -1.6114 C.ar    1  UNL1        0.0006
     40 C          10.2698    2.9662   -2.4518 C.ar    1  UNL1       -0.0526
     41 C          11.5380    3.2735   -2.0117 C.ar    1  UNL1       -0.0611
     42 C          11.8909    3.0079   -0.7137 C.ar    1  UNL1       -0.0598
     43 C          10.9429    2.4281    0.1288 C.ar    1  UNL1       -0.0376
     44 C           9.6774    2.1199   -0.3053 C.ar    1  UNL1        0.0494
     45 N           8.6007    1.5602    0.3187 N.ar    1  UNL1       -0.3393
     46 C           8.6616    1.1858    1.7113 C.3     1  UNL1        0.0126
     47 H           4.2570   -4.1952    0.1252 H       1  UNL1        0.0660
     48 H           3.7342   -3.4121   -1.4293 H       1  UNL1        0.0660
     49 H           5.4026   -4.0098   -1.2489 H       1  UNL1        0.0660
     50 H           2.4205   -2.7650   -0.0124 H       1  UNL1        0.0661
     51 H          -3.8941   -0.9380    1.5015 H       1  UNL1        0.0545
     52 H          -2.6076    1.2811    1.1282 H       1  UNL1        0.0286
     53 H          -2.9699    0.9864   -0.6547 H       1  UNL1        0.0286
     54 H          -5.0231    0.7562    1.5516 H       1  UNL1        0.0281
     55 H          -4.7577    2.2550    0.5145 H       1  UNL1        0.0281
     56 H          -5.8139    1.2934   -1.2657 H       1  UNL1        0.0462
     57 H          -7.2531   -1.8211   -0.9852 H       1  UNL1        0.0442
     58 H          -7.3151   -0.3774   -2.0514 H       1  UNL1        0.0442
     59 H          -9.2448   -1.0673    0.2249 H       1  UNL1        0.0477
     60 H          -9.5255   -1.1061   -1.5656 H       1  UNL1        0.0477
     61 H          -9.9278    3.2953   -1.7619 H       1  UNL1        0.0323
     62 H         -11.6390    2.9382   -2.0470 H       1  UNL1        0.0323
     63 H         -10.9980    3.1852   -0.3371 H       1  UNL1        0.0323
     64 H          -8.7501    2.5954    0.1789 H       1  UNL1        0.0477
     65 H          -7.7260    2.0171   -1.2489 H       1  UNL1        0.0477
     66 H          -6.8373    1.6350    1.2430 H       1  UNL1        0.0442
     67 H          -8.1827    0.4765    1.3680 H       1  UNL1        0.0442
     68 H          -4.0797   -0.0168   -2.1431 H       1  UNL1        0.0281
     69 H          -5.4288   -1.1519   -1.9227 H       1  UNL1        0.0281
     70 H          -3.0209   -1.7945   -1.2265 H       1  UNL1        0.0286
     71 H          -4.4214   -2.3258   -0.2616 H       1  UNL1        0.0286
     72 H          -2.4002   -5.1337    3.0585 H       1  UNL1        0.1048
     73 H           2.4180   -3.1511    3.1369 H       1  UNL1        0.1437
     74 H           2.3186   -4.3378    1.8114 H       1  UNL1        0.1437
     75 H           1.4001    0.9249    1.8675 H       1  UNL1        0.0625
     76 H           3.7326    1.6282    1.7698 H       1  UNL1        0.0637
     77 H           6.4359    0.0341    1.5741 H       1  UNL1        0.1553
     78 H           7.4377    2.0396   -2.6368 H       1  UNL1        0.0646
     79 H          10.0234    3.1871   -3.4748 H       1  UNL1        0.0624
     80 H          12.2445    3.7215   -2.6928 H       1  UNL1        0.0618
     81 H          12.8909    3.2531   -0.3758 H       1  UNL1        0.0618
     82 H          11.2549    2.2328    1.1435 H       1  UNL1        0.0638
     83 H           7.8386    1.6357    2.3219 H       1  UNL1        0.0456
     84 H           8.7011    0.0930    1.8095 H       1  UNL1        0.0456
     85 H           9.6248    1.5465    2.1683 H       1  UNL1        0.0456
@<TRIPOS>BOND
     1     1     2    1
     2     2     3    1
     3     3     4   ar
     4     4     5   ar
     5     5     6    1
     6     6     7   ar
     7     7     8   ar
     8     8     9    1
     9     9    10    1
    10    10    11    1
    11    11    12    1
    12    12    13    1
    13    13    14    1
    14    14    15    1
    15    15    16    1
    16    16    17   am
    17    17    18    1
    18    17    19    2
    19    16    20    1
    20    20    21    1
    21    12    22    1
    22    22    23    1
    23     8    24   ar
    24    24    25   ar
    25    25    26   ar
    26    26    27   ar
    27    27    28   ar
    28    28    29    1
    29    28    30   ar
    30     5    31   ar
    31    31    32   ar
    32    32    33   ar
    33    33    34    1
    34    34    35   am
    35    35    36    2
    36    35    37    1
    37    37    38   ar
    38    38    39   ar
    39    39    40   ar
    40    40    41   ar
    41    41    42   ar
    42    42    43   ar
    43    43    44   ar
    44    44    45   ar
    45    45    46    1
    46    33     3   ar
    47    45    37   ar
    48    30     6   ar
    49    44    39   ar
    50    23     9    1
    51    30    24   ar
    52    21    13    1
    53     1    47    1
    54     1    48    1
    55     1    49    1
    56     4    50    1
    57     9    51    1
    58    10    52    1
    59    10    53    1
    60    11    54    1
    61    11    55    1
    62    12    56    1
    63    14    57    1
    64    14    58    1
    65    15    59    1
    66    15    60    1
    67    18    61    1
    68    18    62    1
    69    18    63    1
    70    20    64    1
    71    20    65    1
    72    21    66    1
    73    21    67    1
    74    22    68    1
    75    22    69    1
    76    23    70    1
    77    23    71    1
    78    26    72    1
    79    29    73    1
    80    29    74    1
    81    31    75    1
    82    32    76    1
    83    34    77    1
    84    38    78    1
    85    40    79    1
    86    41    80    1
    87    42    81    1
    88    43    82    1
    89    46    83    1
    90    46    84    1
    91    46    85    1
