@<TRIPOS>MOLECULE
*****
 76 80 0 0 0
SMALL
GASTEIGER

@<TRIPOS>ATOM
      1 C          -6.6528   -5.6328    0.4318 C.3     1  UNL1       -0.0397
      2 C          -6.1954   -4.2104    0.4573 C.ar    1  UNL1       -0.0503
      3 C          -5.6287   -3.6747    1.5952 C.ar    1  UNL1       -0.0568
      4 C          -5.1993   -2.3644    1.6439 C.ar    1  UNL1       -0.0359
      5 C          -5.3190   -1.5299    0.5506 C.ar    1  UNL1        0.0674
      6 N          -4.8809   -0.1661    0.5763 N.ar    1  UNL1       -0.2181
      7 N          -5.6435    0.8921    0.8358 N.ar    1  UNL1       -0.1691
      8 C          -4.9234    2.0197    0.7791 C.ar    1  UNL1        0.0706
      9 C          -5.3359    3.4252    0.9927 C.3     1  UNL1        0.0063
     10 C          -5.1795    3.7949    2.4584 C.3     1  UNL1       -0.0546
     11 C          -6.8309    3.5214    0.6799 C.3     1  UNL1       -0.0546
     12 C          -4.5838    4.4020    0.1406 C.3     1  UNL1       -0.0546
     13 C          -3.6275    1.6054    0.4606 C.ar    1  UNL1        0.0021
     14 C          -3.6153    0.2366    0.3368 C.ar    1  UNL1        0.1299
     15 N          -2.5521   -0.6323    0.0284 N.am    1  UNL1       -0.2538
     16 C          -1.2259   -0.1862   -0.2188 C.2     1  UNL1        0.3092
     17 O          -0.9347    1.0260   -0.1716 O.2     1  UNL1       -0.2521
     18 N          -0.1744   -1.0902   -0.5296 N.am    1  UNL1       -0.2686
     19 C           1.1390   -0.6009   -0.7698 C.ar    1  UNL1        0.0427
     20 C           2.0727   -0.4480    0.2053 C.ar    1  UNL1       -0.0364
     21 C           3.3542    0.0412   -0.0851 C.ar    1  UNL1       -0.0176
     22 C           3.7152    0.3820   -1.3555 C.ar    1  UNL1        0.1283
     23 O           4.9084    0.8570   -1.7240 O.3     1  UNL1       -0.4901
     24 C           6.0964    1.1351   -1.0853 C.3     1  UNL1        0.1023
     25 C           6.7308   -0.0856   -0.5270 C.3     1  UNL1        0.0333
     26 N           7.9842    0.1638    0.1567 N.3     1  UNL1       -0.2948
     27 C           8.5656   -1.0875    0.6132 C.3     1  UNL1        0.0225
     28 C           7.7085   -1.7517    1.6678 C.3     1  UNL1        0.0604
     29 O           7.3020   -0.8558    2.6437 O.3     1  UNL1       -0.3772
     30 C           8.0534    0.3222    2.6106 C.3     1  UNL1        0.0604
     31 C           7.9019    1.0336    1.2802 C.3     1  UNL1        0.0225
     32 C           2.7506    0.2248   -2.3657 C.ar    1  UNL1        0.0256
     33 C           3.0457    0.5518   -3.6827 C.ar    1  UNL1       -0.0505
     34 C           2.1259    0.4124   -4.7074 C.ar    1  UNL1       -0.0611
     35 C           0.8767   -0.0690   -4.3963 C.ar    1  UNL1       -0.0611
     36 C           0.5810   -0.3943   -3.0894 C.ar    1  UNL1       -0.0521
     37 C           1.4990   -0.2559   -2.0629 C.ar    1  UNL1        0.0069
     38 C          -5.8867   -2.0716   -0.5848 C.ar    1  UNL1       -0.0359
     39 C          -6.3187   -3.3841   -0.6388 C.ar    1  UNL1       -0.0568
     40 H          -7.6331   -5.7037    0.9588 H       1  UNL1        0.0278
     41 H          -5.8757   -6.2821    0.8829 H       1  UNL1        0.0278
     42 H          -6.8383   -5.9500   -0.6025 H       1  UNL1        0.0278
     43 H          -5.5386   -4.3478    2.4576 H       1  UNL1        0.0621
     44 H          -4.7612   -1.9661    2.5378 H       1  UNL1        0.0639
     45 H          -5.5714    2.9546    3.0681 H       1  UNL1        0.0239
     46 H          -5.7483    4.7354    2.6079 H       1  UNL1        0.0239
     47 H          -4.1119    3.9483    2.7217 H       1  UNL1        0.0239
     48 H          -7.2321    4.4376    1.1805 H       1  UNL1        0.0239
     49 H          -7.3459    2.6367    1.1122 H       1  UNL1        0.0239
     50 H          -7.0239    3.5192   -0.4059 H       1  UNL1        0.0239
     51 H          -3.6528    4.6734    0.6458 H       1  UNL1        0.0239
     52 H          -4.3925    3.9347   -0.8567 H       1  UNL1        0.0239
     53 H          -5.2225    5.2826   -0.0371 H       1  UNL1        0.0239
     54 H          -2.8160    2.2771    0.3434 H       1  UNL1        0.0671
     55 H          -2.6780   -1.6816   -0.0397 H       1  UNL1        0.1578
     56 H          -0.3326   -2.1066   -0.5884 H       1  UNL1        0.1564
     57 H           1.8494   -0.6999    1.2267 H       1  UNL1        0.0637
     58 H           4.0573    0.1626    0.7328 H       1  UNL1        0.0655
     59 H           6.8214    1.6227   -1.8105 H       1  UNL1        0.0709
     60 H           5.8550    1.8852   -0.2701 H       1  UNL1        0.0709
     61 H           7.0057   -0.7278   -1.4306 H       1  UNL1        0.0460
     62 H           6.0377   -0.6911    0.0350 H       1  UNL1        0.0460
     63 H           8.7871   -1.7634   -0.2305 H       1  UNL1        0.0449
     64 H           9.5468   -0.8451    1.0684 H       1  UNL1        0.0449
     65 H           6.8294   -2.1771    1.1791 H       1  UNL1        0.0572
     66 H           8.2531   -2.5625    2.1824 H       1  UNL1        0.0572
     67 H           7.6549    0.9793    3.3888 H       1  UNL1        0.0572
     68 H           9.1007    0.0456    2.8406 H       1  UNL1        0.0572
     69 H           8.8096    1.7090    1.2192 H       1  UNL1        0.0449
     70 H           7.0514    1.7270    1.3065 H       1  UNL1        0.0449
     71 H           4.0492    0.9292   -3.8787 H       1  UNL1        0.0625
     72 H           2.3907    0.6768   -5.7218 H       1  UNL1        0.0618
     73 H           0.1154   -0.2009   -5.1481 H       1  UNL1        0.0618
     74 H          -0.4043   -0.7779   -2.8215 H       1  UNL1        0.0624
     75 H          -5.9755   -1.4074   -1.4373 H       1  UNL1        0.0639
     76 H          -6.7630   -3.8020   -1.5333 H       1  UNL1        0.0621
@<TRIPOS>BOND
     1     1     2    1
     2     2     3   ar
     3     3     4   ar
     4     4     5   ar
     5     5     6    1
     6     6     7   ar
     7     7     8   ar
     8     8     9    1
     9     9    10    1
    10     9    11    1
    11     9    12    1
    12     8    13   ar
    13    13    14   ar
    14    14    15    1
    15    15    16   am
    16    16    17    2
    17    16    18   am
    18    18    19    1
    19    19    20   ar
    20    20    21   ar
    21    21    22   ar
    22    22    23    1
    23    23    24    1
    24    24    25    1
    25    25    26    1
    26    26    27    1
    27    27    28    1
    28    28    29    1
    29    29    30    1
    30    30    31    1
    31    22    32   ar
    32    32    33   ar
    33    33    34   ar
    34    34    35   ar
    35    35    36   ar
    36    36    37   ar
    37     5    38   ar
    38    38    39   ar
    39    39     2   ar
    40    14     6   ar
    41    37    19   ar
    42    31    26    1
    43    37    32   ar
    44     1    40    1
    45     1    41    1
    46     1    42    1
    47     3    43    1
    48     4    44    1
    49    10    45    1
    50    10    46    1
    51    10    47    1
    52    11    48    1
    53    11    49    1
    54    11    50    1
    55    12    51    1
    56    12    52    1
    57    12    53    1
    58    13    54    1
    59    15    55    1
    60    18    56    1
    61    20    57    1
    62    21    58    1
    63    24    59    1
    64    24    60    1
    65    25    61    1
    66    25    62    1
    67    27    63    1
    68    27    64    1
    69    28    65    1
    70    28    66    1
    71    30    67    1
    72    30    68    1
    73    31    69    1
    74    31    70    1
    75    33    71    1
    76    34    72    1
    77    35    73    1
    78    36    74    1
    79    38    75    1
    80    39    76    1
