
     RDKit          3D

 76 80  0  0  0  0  0  0  0  0999 V2000
   -6.6528   -5.6328    0.4318 C   0  0  0  0  0  0  0  0  0  0  0  0
   -6.1954   -4.2104    0.4573 C   0  0  0  0  0  0  0  0  0  0  0  0
   -5.6287   -3.6747    1.5952 C   0  0  0  0  0  0  0  0  0  0  0  0
   -5.1993   -2.3644    1.6439 C   0  0  0  0  0  0  0  0  0  0  0  0
   -5.3190   -1.5299    0.5506 C   0  0  0  0  0  0  0  0  0  0  0  0
   -4.8809   -0.1661    0.5763 N   0  0  0  0  0  0  0  0  0  0  0  0
   -5.6435    0.8921    0.8358 N   0  0  0  0  0  0  0  0  0  0  0  0
   -4.9234    2.0197    0.7791 C   0  0  0  0  0  0  0  0  0  0  0  0
   -5.3359    3.4252    0.9927 C   0  0  0  0  0  0  0  0  0  0  0  0
   -5.1795    3.7949    2.4584 C   0  0  0  0  0  0  0  0  0  0  0  0
   -6.8309    3.5214    0.6799 C   0  0  0  0  0  0  0  0  0  0  0  0
   -4.5838    4.4020    0.1406 C   0  0  0  0  0  0  0  0  0  0  0  0
   -3.6275    1.6054    0.4606 C   0  0  0  0  0  0  0  0  0  0  0  0
   -3.6153    0.2366    0.3368 C   0  0  0  0  0  0  0  0  0  0  0  0
   -2.5521   -0.6323    0.0284 N   0  0  0  0  0  0  0  0  0  0  0  0
   -1.2259   -0.1862   -0.2188 C   0  0  0  0  0  0  0  0  0  0  0  0
   -0.9347    1.0260   -0.1716 O   0  0  0  0  0  0  0  0  0  0  0  0
   -0.1744   -1.0902   -0.5296 N   0  0  0  0  0  0  0  0  0  0  0  0
    1.1390   -0.6009   -0.7698 C   0  0  0  0  0  0  0  0  0  0  0  0
    2.0727   -0.4480    0.2053 C   0  0  0  0  0  0  0  0  0  0  0  0
    3.3542    0.0412   -0.0851 C   0  0  0  0  0  0  0  0  0  0  0  0
    3.7152    0.3820   -1.3555 C   0  0  0  0  0  0  0  0  0  0  0  0
    4.9084    0.8570   -1.7240 O   0  0  0  0  0  0  0  0  0  0  0  0
    6.0964    1.1351   -1.0853 C   0  0  0  0  0  0  0  0  0  0  0  0
    6.7308   -0.0856   -0.5270 C   0  0  0  0  0  0  0  0  0  0  0  0
    7.9842    0.1638    0.1567 N   0  0  0  0  0  0  0  0  0  0  0  0
    8.5656   -1.0875    0.6132 C   0  0  0  0  0  0  0  0  0  0  0  0
    7.7085   -1.7517    1.6678 C   0  0  0  0  0  0  0  0  0  0  0  0
    7.3020   -0.8558    2.6437 O   0  0  0  0  0  0  0  0  0  0  0  0
    8.0534    0.3222    2.6106 C   0  0  0  0  0  0  0  0  0  0  0  0
    7.9019    1.0336    1.2802 C   0  0  0  0  0  0  0  0  0  0  0  0
    2.7506    0.2248   -2.3657 C   0  0  0  0  0  0  0  0  0  0  0  0
    3.0457    0.5518   -3.6827 C   0  0  0  0  0  0  0  0  0  0  0  0
    2.1259    0.4124   -4.7074 C   0  0  0  0  0  0  0  0  0  0  0  0
    0.8767   -0.0690   -4.3963 C   0  0  0  0  0  0  0  0  0  0  0  0
    0.5810   -0.3943   -3.0894 C   0  0  0  0  0  0  0  0  0  0  0  0
    1.4990   -0.2559   -2.0629 C   0  0  0  0  0  0  0  0  0  0  0  0
   -5.8867   -2.0716   -0.5848 C   0  0  0  0  0  0  0  0  0  0  0  0
   -6.3187   -3.3841   -0.6388 C   0  0  0  0  0  0  0  0  0  0  0  0
   -7.6331   -5.7037    0.9588 H   0  0  0  0  0  0  0  0  0  0  0  0
   -5.8757   -6.2821    0.8829 H   0  0  0  0  0  0  0  0  0  0  0  0
   -6.8383   -5.9500   -0.6025 H   0  0  0  0  0  0  0  0  0  0  0  0
   -5.5386   -4.3478    2.4576 H   0  0  0  0  0  0  0  0  0  0  0  0
   -4.7612   -1.9661    2.5378 H   0  0  0  0  0  0  0  0  0  0  0  0
   -5.5714    2.9546    3.0681 H   0  0  0  0  0  0  0  0  0  0  0  0
   -5.7483    4.7354    2.6079 H   0  0  0  0  0  0  0  0  0  0  0  0
   -4.1119    3.9483    2.7217 H   0  0  0  0  0  0  0  0  0  0  0  0
   -7.2321    4.4376    1.1805 H   0  0  0  0  0  0  0  0  0  0  0  0
   -7.3459    2.6367    1.1122 H   0  0  0  0  0  0  0  0  0  0  0  0
   -7.0239    3.5192   -0.4059 H   0  0  0  0  0  0  0  0  0  0  0  0
   -3.6528    4.6734    0.6458 H   0  0  0  0  0  0  0  0  0  0  0  0
   -4.3925    3.9347   -0.8567 H   0  0  0  0  0  0  0  0  0  0  0  0
   -5.2225    5.2826   -0.0371 H   0  0  0  0  0  0  0  0  0  0  0  0
   -2.8160    2.2771    0.3434 H   0  0  0  0  0  0  0  0  0  0  0  0
   -2.6780   -1.6816   -0.0397 H   0  0  0  0  0  0  0  0  0  0  0  0
   -0.3326   -2.1066   -0.5884 H   0  0  0  0  0  0  0  0  0  0  0  0
    1.8494   -0.6999    1.2267 H   0  0  0  0  0  0  0  0  0  0  0  0
    4.0573    0.1626    0.7328 H   0  0  0  0  0  0  0  0  0  0  0  0
    6.8214    1.6227   -1.8105 H   0  0  0  0  0  0  0  0  0  0  0  0
    5.8550    1.8852   -0.2701 H   0  0  0  0  0  0  0  0  0  0  0  0
    7.0057   -0.7278   -1.4306 H   0  0  0  0  0  0  0  0  0  0  0  0
    6.0377   -0.6911    0.0350 H   0  0  0  0  0  0  0  0  0  0  0  0
    8.7871   -1.7634   -0.2305 H   0  0  0  0  0  0  0  0  0  0  0  0
    9.5468   -0.8451    1.0684 H   0  0  0  0  0  0  0  0  0  0  0  0
    6.8294   -2.1771    1.1791 H   0  0  0  0  0  0  0  0  0  0  0  0
    8.2531   -2.5625    2.1824 H   0  0  0  0  0  0  0  0  0  0  0  0
    7.6549    0.9793    3.3888 H   0  0  0  0  0  0  0  0  0  0  0  0
    9.1007    0.0456    2.8406 H   0  0  0  0  0  0  0  0  0  0  0  0
    8.8096    1.7090    1.2192 H   0  0  0  0  0  0  0  0  0  0  0  0
    7.0514    1.7270    1.3065 H   0  0  0  0  0  0  0  0  0  0  0  0
    4.0492    0.9292   -3.8787 H   0  0  0  0  0  0  0  0  0  0  0  0
    2.3907    0.6768   -5.7218 H   0  0  0  0  0  0  0  0  0  0  0  0
    0.1154   -0.2009   -5.1481 H   0  0  0  0  0  0  0  0  0  0  0  0
   -0.4043   -0.7779   -2.8215 H   0  0  0  0  0  0  0  0  0  0  0  0
   -5.9755   -1.4074   -1.4373 H   0  0  0  0  0  0  0  0  0  0  0  0
   -6.7630   -3.8020   -1.5333 H   0  0  0  0  0  0  0  0  0  0  0  0
  1  2  1  0
  2  3  2  0
  3  4  1  0
  4  5  2  0
  5  6  1  0
  6  7  1  0
  7  8  2  0
  8  9  1  0
  9 10  1  0
  9 11  1  0
  9 12  1  0
  8 13  1  0
 13 14  2  0
 14 15  1  0
 15 16  1  0
 16 17  2  0
 16 18  1  0
 18 19  1  0
 19 20  2  0
 20 21  1  0
 21 22  2  0
 22 23  1  0
 23 24  1  0
 24 25  1  0
 25 26  1  0
 26 27  1  0
 27 28  1  0
 28 29  1  0
 29 30  1  0
 30 31  1  0
 22 32  1  0
 32 33  2  0
 33 34  1  0
 34 35  2  0
 35 36  1  0
 36 37  2  0
  5 38  1  0
 38 39  2  0
 39  2  1  0
 14  6  1  0
 37 19  1  0
 31 26  1  0
 37 32  1  0
  1 40  1  0
  1 41  1  0
  1 42  1  0
  3 43  1  0
  4 44  1  0
 10 45  1  0
 10 46  1  0
 10 47  1  0
 11 48  1  0
 11 49  1  0
 11 50  1  0
 12 51  1  0
 12 52  1  0
 12 53  1  0
 13 54  1  0
 15 55  1  0
 18 56  1  0
 20 57  1  0
 21 58  1  0
 24 59  1  0
 24 60  1  0
 25 61  1  0
 25 62  1  0
 27 63  1  0
 27 64  1  0
 28 65  1  0
 28 66  1  0
 30 67  1  0
 30 68  1  0
 31 69  1  0
 31 70  1  0
 33 71  1  0
 34 72  1  0
 35 73  1  0
 36 74  1  0
 38 75  1  0
 39 76  1  0
M  END
$$$$
