@<TRIPOS>MOLECULE
*****
 70 73 0 0 0
SMALL
GASTEIGER

@<TRIPOS>ATOM
      1 C           6.8567   -2.8663    0.9313 C.3     1  UNL1       -0.0121
      2 N           7.0454   -1.5080    0.5695 N.3     1  UNL1       -0.2970
      3 C           7.7771   -0.6986    1.4583 C.3     1  UNL1        0.0241
      4 C           8.0172    0.6857    0.8731 C.ar    1  UNL1       -0.0334
      5 C           9.1279    0.8953    0.1338 C.ar    1  UNL1       -0.0573
      6 C           9.3100    2.2087   -0.4253 C.ar    1  UNL1       -0.0615
      7 C           8.3764    3.1173   -0.1680 C.ar    1  UNL1       -0.0617
      8 C           7.2561    2.9458    0.5602 C.ar    1  UNL1       -0.0615
      9 C           7.0781    1.6232    1.1231 C.ar    1  UNL1       -0.0573
     10 C           6.2748   -0.9568   -0.4625 C.3     1  UNL1        0.0241
     11 C           4.8721   -0.6725   -0.2943 C.ar    1  UNL1       -0.0333
     12 C           3.9292   -1.7715   -0.0243 C.ar    1  UNL1       -0.0567
     13 C           2.6376   -1.4378    0.0738 C.ar    1  UNL1       -0.0506
     14 C           2.0571   -0.2155   -0.0499 C.ar    1  UNL1        0.0223
     15 C           0.7141    0.2260    0.0855 C.2     1  UNL1        0.1931
     16 O           0.5723    1.4990    0.3147 O.2     1  UNL1       -0.2867
     17 C          -0.5441   -0.5122    0.0226 C.ar    1  UNL1        0.0225
     18 C          -0.7409   -1.8104    0.2213 C.ar    1  UNL1       -0.0475
     19 C          -1.9770   -2.4021    0.3191 C.ar    1  UNL1       -0.0193
     20 C          -3.1174   -1.7033    0.2170 C.ar    1  UNL1        0.1205
     21 O          -4.2699   -2.1747    0.3236 O.3     1  UNL1       -0.4919
     22 C          -5.5075   -2.6874    0.4390 C.3     1  UNL1        0.0907
     23 C          -6.5826   -1.6578    0.5540 C.3     1  UNL1       -0.0058
     24 C          -6.7731   -0.8088   -0.6527 C.3     1  UNL1        0.0020
     25 N          -7.7568    0.2232   -0.3409 N.3     1  UNL1       -0.3022
     26 C          -7.2618    1.1939    0.5627 C.3     1  UNL1       -0.0011
     27 C          -7.2133    2.6038    0.0208 C.3     1  UNL1       -0.0402
     28 C          -7.1853    2.6322   -1.4677 C.3     1  UNL1       -0.0507
     29 C          -8.3868    1.8927   -2.0141 C.3     1  UNL1       -0.0402
     30 C          -8.6602    0.5869   -1.3422 C.3     1  UNL1       -0.0011
     31 C          -2.9924   -0.2574   -0.0316 C.ar    1  UNL1       -0.0193
     32 C          -1.7203    0.2641   -0.1121 C.ar    1  UNL1       -0.0475
     33 C           2.9846    0.8166   -0.3224 C.ar    1  UNL1       -0.0506
     34 C           4.2976    0.4983   -0.4227 C.ar    1  UNL1       -0.0567
     35 H           6.1073   -2.8983    1.7384 H       1  UNL1        0.0391
     36 H           6.5542   -3.4850    0.0533 H       1  UNL1        0.0391
     37 H           7.7877   -3.2337    1.3689 H       1  UNL1        0.0391
     38 H           8.8044   -1.1357    1.6014 H       1  UNL1        0.0476
     39 H           7.3669   -0.6140    2.4683 H       1  UNL1        0.0476
     40 H           9.8462    0.1633   -0.0527 H       1  UNL1        0.0621
     41 H          10.1713    2.3957   -1.0126 H       1  UNL1        0.0618
     42 H           8.5152    4.1836   -0.5690 H       1  UNL1        0.0618
     43 H           6.5129    3.6760    0.7651 H       1  UNL1        0.0618
     44 H           6.1873    1.4751    1.6926 H       1  UNL1        0.0621
     45 H           6.8217    0.0465   -0.7286 H       1  UNL1        0.0476
     46 H           6.4476   -1.5370   -1.3908 H       1  UNL1        0.0476
     47 H           4.3044   -2.7573    0.0772 H       1  UNL1        0.0621
     48 H           1.9455   -2.2889    0.3076 H       1  UNL1        0.0625
     49 H           0.1278   -2.4931    0.3099 H       1  UNL1        0.0626
     50 H          -2.0400   -3.4846    0.4849 H       1  UNL1        0.0654
     51 H          -5.7483   -3.3984   -0.4169 H       1  UNL1        0.0697
     52 H          -5.5828   -3.3339    1.3725 H       1  UNL1        0.0697
     53 H          -7.5498   -2.1535    0.8538 H       1  UNL1        0.0310
     54 H          -6.3912   -1.0036    1.4689 H       1  UNL1        0.0310
     55 H          -7.2171   -1.4192   -1.4717 H       1  UNL1        0.0428
     56 H          -5.8689   -0.2962   -0.9273 H       1  UNL1        0.0428
     57 H          -7.7499    1.2317    1.5534 H       1  UNL1        0.0426
     58 H          -6.1942    0.8995    0.7899 H       1  UNL1        0.0426
     59 H          -8.1076    3.1422    0.4068 H       1  UNL1        0.0278
     60 H          -6.3052    3.0782    0.4344 H       1  UNL1        0.0278
     61 H          -6.2368    2.1835   -1.8390 H       1  UNL1        0.0266
     62 H          -7.2359    3.7171   -1.7500 H       1  UNL1        0.0266
     63 H          -8.2993    1.7752   -3.1208 H       1  UNL1        0.0278
     64 H          -9.2760    2.5600   -1.8591 H       1  UNL1        0.0278
     65 H          -9.7326    0.5650   -0.9322 H       1  UNL1        0.0426
     66 H          -8.6420   -0.2010   -2.1467 H       1  UNL1        0.0426
     67 H          -3.8664    0.2831   -0.1481 H       1  UNL1        0.0654
     68 H          -1.5840    1.3373   -0.3009 H       1  UNL1        0.0626
     69 H           2.6590    1.8334   -0.4649 H       1  UNL1        0.0625
     70 H           4.9740    1.4152   -0.6775 H       1  UNL1        0.0621
@<TRIPOS>BOND
     1     1     2    1
     2     2     3    1
     3     3     4    1
     4     4     5   ar
     5     5     6   ar
     6     6     7   ar
     7     7     8   ar
     8     8     9   ar
     9     2    10    1
    10    10    11    1
    11    11    12   ar
    12    12    13   ar
    13    13    14   ar
    14    14    15    1
    15    15    16    2
    16    15    17    1
    17    17    18   ar
    18    18    19   ar
    19    19    20   ar
    20    20    21    1
    21    21    22    1
    22    22    23    1
    23    23    24    1
    24    24    25    1
    25    25    26    1
    26    26    27    1
    27    27    28    1
    28    28    29    1
    29    29    30    1
    30    20    31   ar
    31    31    32   ar
    32    14    33   ar
    33    33    34   ar
    34     9     4   ar
    35    34    11   ar
    36    32    17   ar
    37    30    25    1
    38     1    35    1
    39     1    36    1
    40     1    37    1
    41     3    38    1
    42     3    39    1
    43     5    40    1
    44     6    41    1
    45     7    42    1
    46     8    43    1
    47     9    44    1
    48    10    45    1
    49    10    46    1
    50    12    47    1
    51    13    48    1
    52    18    49    1
    53    19    50    1
    54    22    51    1
    55    22    52    1
    56    23    53    1
    57    23    54    1
    58    24    55    1
    59    24    56    1
    60    26    57    1
    61    26    58    1
    62    27    59    1
    63    27    60    1
    64    28    61    1
    65    28    62    1
    66    29    63    1
    67    29    64    1
    68    30    65    1
    69    30    66    1
    70    31    67    1
    71    32    68    1
    72    33    69    1
    73    34    70    1
