@<TRIPOS>MOLECULE
*****
 58 58 0 0 0
SMALL
GASTEIGER

@<TRIPOS>ATOM
      1 C          -7.5015    1.0398   -0.6671 C.3     1  UNL1       -0.0653
      2 C          -7.4469   -0.3703   -1.1406 C.3     1  UNL1       -0.0559
      3 C          -6.0844   -0.7880   -1.5226 C.3     1  UNL1       -0.0532
      4 C          -5.0170   -0.7987   -0.5126 C.3     1  UNL1       -0.0510
      5 C          -4.6542    0.4588    0.1753 C.3     1  UNL1       -0.0295
      6 C          -3.4899    0.0920    1.1299 C.3     1  UNL1        0.0477
      7 O          -2.4873   -0.3874    0.3245 O.3     1  UNL1       -0.3798
      8 C          -1.3410   -0.7772    0.9989 C.3     1  UNL1        0.0477
      9 C          -0.7025    0.3510    1.7802 C.3     1  UNL1       -0.0294
     10 C           0.5211   -0.1815    2.4697 C.3     1  UNL1       -0.0498
     11 C           1.5280   -0.7373    1.4883 C.3     1  UNL1       -0.0401
     12 C           1.9576    0.3369    0.5542 C.3     1  UNL1       -0.0006
     13 N           2.8963   -0.0063   -0.4503 N.3     1  UNL1       -0.2923
     14 C           3.2504    1.0973   -1.3088 C.3     1  UNL1        0.0279
     15 C           4.4561    1.8476   -0.7270 C.3     1  UNL1        0.0962
     16 O           4.6811    2.9981   -1.4643 O.3     1  UNL1       -0.3879
     17 C           5.6039    0.8642   -0.8096 C.3     1  UNL1        0.1095
     18 O           6.7733    1.4624   -0.3446 O.3     1  UNL1       -0.3866
     19 C           5.2756   -0.2746    0.1200 C.3     1  UNL1        0.1011
     20 O           6.2372   -1.2859    0.0319 O.3     1  UNL1       -0.3875
     21 C           3.9368   -0.8973   -0.1572 C.3     1  UNL1        0.0621
     22 C           4.1488   -1.9129   -1.2960 C.3     1  UNL1        0.0622
     23 O           4.4657   -1.2980   -2.4818 O.3     1  UNL1       -0.3934
     24 H          -7.6917    1.1556    0.4187 H       1  UNL1        0.0230
     25 H          -8.3677    1.5902   -1.1681 H       1  UNL1        0.0230
     26 H          -6.6193    1.6244   -0.9961 H       1  UNL1        0.0230
     27 H          -8.0762   -0.4275   -2.0825 H       1  UNL1        0.0263
     28 H          -7.9652   -1.0825   -0.4550 H       1  UNL1        0.0263
     29 H          -6.1686   -1.8354   -1.9368 H       1  UNL1        0.0265
     30 H          -5.7727   -0.1645   -2.4060 H       1  UNL1        0.0265
     31 H          -4.0695   -1.1637   -1.0229 H       1  UNL1        0.0266
     32 H          -5.1984   -1.6181    0.2484 H       1  UNL1        0.0266
     33 H          -4.2472    1.2391   -0.4912 H       1  UNL1        0.0287
     34 H          -5.4117    0.8760    0.8704 H       1  UNL1        0.0287
     35 H          -3.9197   -0.6694    1.8085 H       1  UNL1        0.0560
     36 H          -3.1897    0.9821    1.7086 H       1  UNL1        0.0560
     37 H          -0.6030   -1.0355    0.1828 H       1  UNL1        0.0560
     38 H          -1.4676   -1.6982    1.5984 H       1  UNL1        0.0560
     39 H          -1.3787    0.7079    2.5968 H       1  UNL1        0.0287
     40 H          -0.5467    1.1989    1.1196 H       1  UNL1        0.0287
     41 H           0.2138   -0.9256    3.2227 H       1  UNL1        0.0266
     42 H           1.0229    0.6985    2.9546 H       1  UNL1        0.0266
     43 H           1.1531   -1.6474    0.9860 H       1  UNL1        0.0278
     44 H           2.3916   -1.1213    2.1207 H       1  UNL1        0.0278
     45 H           2.4201    1.1730    1.1571 H       1  UNL1        0.0427
     46 H           1.0416    0.7165    0.0259 H       1  UNL1        0.0427
     47 H           3.5066    0.8270   -2.3315 H       1  UNL1        0.0453
     48 H           2.3990    1.8064   -1.3225 H       1  UNL1        0.0453
     49 H           4.3064    2.0662    0.3516 H       1  UNL1        0.0633
     50 H           4.1373    3.0074   -2.2901 H       1  UNL1        0.2099
     51 H           5.7624    0.5385   -1.8572 H       1  UNL1        0.0646
     52 H           6.5483    2.3321    0.0497 H       1  UNL1        0.2100
     53 H           5.3152    0.1181    1.1537 H       1  UNL1        0.0636
     54 H           6.1573   -1.8129    0.8729 H       1  UNL1        0.2100
     55 H           3.6772   -1.5239    0.7085 H       1  UNL1        0.0511
     56 H           3.2769   -2.5979   -1.3730 H       1  UNL1        0.0573
     57 H           5.0209   -2.5556   -1.0003 H       1  UNL1        0.0573
     58 H           5.3353   -1.6112   -2.8532 H       1  UNL1        0.2095
@<TRIPOS>BOND
     1     1     2    1
     2     2     3    1
     3     3     4    1
     4     4     5    1
     5     5     6    1
     6     6     7    1
     7     7     8    1
     8     8     9    1
     9     9    10    1
    10    10    11    1
    11    11    12    1
    12    12    13    1
    13    13    14    1
    14    14    15    1
    15    15    16    1
    16    15    17    1
    17    17    18    1
    18    17    19    1
    19    19    20    1
    20    19    21    1
    21    21    22    1
    22    22    23    1
    23    21    13    1
    24     1    24    1
    25     1    25    1
    26     1    26    1
    27     2    27    1
    28     2    28    1
    29     3    29    1
    30     3    30    1
    31     4    31    1
    32     4    32    1
    33     5    33    1
    34     5    34    1
    35     6    35    1
    36     6    36    1
    37     8    37    1
    38     8    38    1
    39     9    39    1
    40     9    40    1
    41    10    41    1
    42    10    42    1
    43    11    43    1
    44    11    44    1
    45    12    45    1
    46    12    46    1
    47    14    47    1
    48    14    48    1
    49    15    49    1
    50    16    50    1
    51    17    51    1
    52    18    52    1
    53    19    53    1
    54    20    54    1
    55    21    55    1
    56    22    56    1
    57    22    57    1
    58    23    58    1
