@<TRIPOS>MOLECULE
*****
 58 60 0 0 0
SMALL
GASTEIGER

@<TRIPOS>ATOM
      1 CA         -6.1136    0.7641    1.5804 C.3     1  GLU1        0.1209
      2 CB         -6.9918    0.1928    0.4739 C.3     1  GLU1       -0.0140
      3 CG         -6.8987   -1.2929    0.3733 C.3     1  GLU1        0.0470
      4 CD         -7.7669   -1.7721   -0.7492 C.2     1  GLU1        0.3048
      5 OE1        -8.7797   -2.7751   -0.7171 O.3     1  GLU1       -0.4806
      6 OE2        -7.8096   -1.4235   -1.9487 O.2     1  GLU1       -0.2510
      7 N          -4.7378    0.4345    1.3331 N.am    1  GLU1       -0.2983
      8 C          -3.8635    1.3886    0.7623 C.2     0  UNK0        0.2447
      9 O          -4.3498    2.5098    0.4921 O.2     0  UNK0       -0.2702
     10 C          -2.4552    1.1109    0.4820 C.ar    0  UNK0        0.0368
     11 C          -1.7721    2.0276   -0.2928 C.ar    0  UNK0       -0.0479
     12 C          -0.4319    1.8129   -0.6032 C.ar    0  UNK0       -0.0399
     13 C           0.2785    0.7336   -0.1861 C.ar    0  UNK0        0.0307
     14 C          -0.4473   -0.1527    0.5862 C.ar    0  UNK0       -0.0399
     15 C          -1.7752    0.0046    0.9261 C.ar    0  UNK0       -0.0479
     16 N           1.6428    0.4859   -0.5228 N.pl3   0  UNK0       -0.3145
     17 C           2.3850    1.3712   -1.3934 C.3     0  UNK0        0.0739
     18 C           2.6356    0.6713   -2.6776 C.1     0  UNK0       -0.0865
     19 C           2.8360    0.1144   -3.7431 C.1     0  UNK0       -0.1176
     20 C           2.2453   -0.6974    0.0634 C.3     0  UNK0        0.0382
     21 C           3.6611   -0.9003   -0.3177 C.ar    0  UNK0       -0.0293
     22 C           4.2677   -1.6483   -1.3035 C.ar    0  UNK0       -0.0551
     23 C           5.6317   -1.6705   -1.4829 C.ar    0  UNK0       -0.0372
     24 C           6.4974   -0.9462   -0.6945 C.ar    0  UNK0        0.0541
     25 N           7.8129   -1.0378   -0.9595 N.ar    0  UNK0       -0.3272
     26 C           8.6239   -0.3130   -0.1647 C.ar    0  UNK0        0.1941
     27 N          10.0190   -0.3963   -0.4310 N.pl3   0  UNK0       -0.3289
     28 N           8.1369    0.4676    0.8477 N.ar    0  UNK0       -0.1770
     29 C           6.8155    0.5278    1.0741 C.ar    0  UNK0        0.2822
     30 O           6.3640    1.2488    2.0070 O.2     0  UNK0       -0.2651
     31 C           5.8912   -0.1777    0.3171 C.ar    0  UNK0        0.0649
     32 C           4.5320   -0.1591    0.4940 C.ar    0  UNK0       -0.0427
     33 C          -6.5771    0.2429    2.8732 C.2     1  GLU1        0.3253
     34 O          -7.8262    0.3476    3.4431 O.3     1  GLU1       -0.4793
     35 OXT        -5.6296   -0.3705    3.4677 O.2     1  GLU1       -0.2489
     36 HA         -6.2407    1.8624    1.4971 H       1  GLU1        0.0614
     37 HB1        -8.0267    0.5183    0.6983 H       1  GLU1        0.0294
     38 HB2        -6.6727    0.6752   -0.4713 H       1  GLU1        0.0294
     39 HG1        -5.8532   -1.6010    0.0806 H       1  GLU1        0.0378
     40 HG2        -7.1505   -1.8439    1.2928 H       1  GLU1        0.0378
     41 HE1        -9.7438   -2.5125   -0.9447 H       1  GLU1        0.2951
     42 H          -4.3728   -0.4977    1.5669 H       1  GLU1        0.1498
     43 H          -2.2993    2.9127   -0.6537 H       0  UNK0        0.0626
     44 H          -0.0082    2.5763   -1.2020 H       0  UNK0        0.0636
     45 H           0.0141   -1.0640    0.9882 H       0  UNK0        0.0636
     46 H          -2.3151   -0.7062    1.5348 H       0  UNK0        0.0626
     47 H           1.8922    2.3082   -1.6475 H       0  UNK0        0.0600
     48 H           3.3753    1.6180   -0.9035 H       0  UNK0        0.0600
     49 H           3.0046   -0.3619   -4.6841 H       0  UNK0        0.1228
     50 H           2.1150   -0.7038    1.1707 H       0  UNK0        0.0513
     51 H           1.6011   -1.5536   -0.2985 H       0  UNK0        0.0513
     52 H           3.5185   -2.1832   -1.8780 H       0  UNK0        0.0621
     53 H           5.9469   -2.3038   -2.2952 H       0  UNK0        0.0638
     54 H           8.1268   -1.6529   -1.7361 H       0  UNK0        0.1686
     55 H          10.4182    0.5778   -0.5476 H       0  UNK0        0.1451
     56 H          10.5246   -1.3311   -0.4935 H       0  UNK0        0.1451
     57 H           4.2304    0.4840    1.3151 H       0  UNK0        0.0629
     58 H          -8.1348   -0.2840    4.2021 H       1  GLU1        0.2951
@<TRIPOS>BOND
     1     1     2    1
     2     2     3    1
     3     3     4    1
     4     4     5    1
     5     4     6    2
     6     1     7    1
     7     7     8   am
     8     8     9    2
     9     8    10    1
    10    10    11   ar
    11    11    12   ar
    12    12    13   ar
    13    13    14   ar
    14    14    15   ar
    15    13    16    1
    16    16    17    1
    17    17    18    1
    18    18    19    3
    19    16    20    1
    20    20    21    1
    21    21    22   ar
    22    22    23   ar
    23    23    24   ar
    24    24    25   ar
    25    25    26   ar
    26    26    27    1
    27    26    28   ar
    28    28    29   ar
    29    29    30    2
    30    29    31   ar
    31    31    32   ar
    32     1    33    1
    33    33    34    1
    34    33    35    2
    35    15    10   ar
    36    32    21   ar
    37    31    24   ar
    38     1    36    1
    39     2    37    1
    40     2    38    1
    41     3    39    1
    42     3    40    1
    43     5    41    1
    44     7    42    1
    45    11    43    1
    46    12    44    1
    47    14    45    1
    48    15    46    1
    49    17    47    1
    50    17    48    1
    51    19    49    1
    52    20    50    1
    53    20    51    1
    54    22    52    1
    55    23    53    1
    56    25    54    1
    57    27    55    1
    58    27    56    1
    59    32    57    1
    60    34    58    1
