
     RDKit          3D

 58 60  0  0  0  0  0  0  0  0999 V2000
   -6.1136    0.7641    1.5804 C   0  0  2  0  0  0  0  0  0  0  0  0
   -6.9918    0.1928    0.4739 C   0  0  0  0  0  0  0  0  0  0  0  0
   -6.8987   -1.2929    0.3733 C   0  0  0  0  0  0  0  0  0  0  0  0
   -7.7669   -1.7721   -0.7492 C   0  0  0  0  0  0  0  0  0  0  0  0
   -8.7797   -2.7751   -0.7171 O   0  0  0  0  0  0  0  0  0  0  0  0
   -7.8096   -1.4235   -1.9487 O   0  0  0  0  0  0  0  0  0  0  0  0
   -4.7378    0.4345    1.3331 N   0  0  0  0  0  0  0  0  0  0  0  0
   -3.8635    1.3886    0.7623 C   0  0  0  0  0  0  0  0  0  0  0  0
   -4.3498    2.5098    0.4921 O   0  0  0  0  0  0  0  0  0  0  0  0
   -2.4552    1.1109    0.4820 C   0  0  0  0  0  0  0  0  0  0  0  0
   -1.7721    2.0276   -0.2928 C   0  0  0  0  0  0  0  0  0  0  0  0
   -0.4319    1.8129   -0.6032 C   0  0  0  0  0  0  0  0  0  0  0  0
    0.2785    0.7336   -0.1861 C   0  0  0  0  0  0  0  0  0  0  0  0
   -0.4473   -0.1527    0.5862 C   0  0  0  0  0  0  0  0  0  0  0  0
   -1.7752    0.0046    0.9261 C   0  0  0  0  0  0  0  0  0  0  0  0
    1.6428    0.4859   -0.5228 N   0  0  0  0  0  0  0  0  0  0  0  0
    2.3850    1.3712   -1.3934 C   0  0  0  0  0  0  0  0  0  0  0  0
    2.6356    0.6713   -2.6776 C   0  0  0  0  0  0  0  0  0  0  0  0
    2.8360    0.1144   -3.7431 C   0  0  0  0  0  0  0  0  0  0  0  0
    2.2453   -0.6974    0.0634 C   0  0  0  0  0  0  0  0  0  0  0  0
    3.6611   -0.9003   -0.3177 C   0  0  0  0  0  0  0  0  0  0  0  0
    4.2677   -1.6483   -1.3035 C   0  0  0  0  0  0  0  0  0  0  0  0
    5.6317   -1.6705   -1.4829 C   0  0  0  0  0  0  0  0  0  0  0  0
    6.4974   -0.9462   -0.6945 C   0  0  0  0  0  0  0  0  0  0  0  0
    7.8129   -1.0378   -0.9595 N   0  0  0  0  0  0  0  0  0  0  0  0
    8.6239   -0.3130   -0.1647 C   0  0  0  0  0  0  0  0  0  0  0  0
   10.0190   -0.3963   -0.4310 N   0  0  0  0  0  0  0  0  0  0  0  0
    8.1369    0.4676    0.8477 N   0  0  0  0  0  0  0  0  0  0  0  0
    6.8155    0.5278    1.0741 C   0  0  0  0  0  0  0  0  0  0  0  0
    6.3640    1.2488    2.0070 O   0  0  0  0  0  0  0  0  0  0  0  0
    5.8912   -0.1777    0.3171 C   0  0  0  0  0  0  0  0  0  0  0  0
    4.5320   -0.1591    0.4940 C   0  0  0  0  0  0  0  0  0  0  0  0
   -6.5771    0.2429    2.8732 C   0  0  0  0  0  0  0  0  0  0  0  0
   -7.8262    0.3476    3.4431 O   0  0  0  0  0  0  0  0  0  0  0  0
   -5.6296   -0.3705    3.4677 O   0  0  0  0  0  0  0  0  0  0  0  0
   -6.2407    1.8624    1.4971 H   0  0  0  0  0  0  0  0  0  0  0  0
   -8.0267    0.5183    0.6983 H   0  0  0  0  0  0  0  0  0  0  0  0
   -6.6727    0.6752   -0.4713 H   0  0  0  0  0  0  0  0  0  0  0  0
   -5.8532   -1.6010    0.0806 H   0  0  0  0  0  0  0  0  0  0  0  0
   -7.1505   -1.8439    1.2928 H   0  0  0  0  0  0  0  0  0  0  0  0
   -9.7438   -2.5125   -0.9447 H   0  0  0  0  0  0  0  0  0  0  0  0
   -4.3728   -0.4977    1.5669 H   0  0  0  0  0  0  0  0  0  0  0  0
   -2.2993    2.9127   -0.6537 H   0  0  0  0  0  0  0  0  0  0  0  0
   -0.0082    2.5763   -1.2020 H   0  0  0  0  0  0  0  0  0  0  0  0
    0.0141   -1.0640    0.9882 H   0  0  0  0  0  0  0  0  0  0  0  0
   -2.3151   -0.7062    1.5348 H   0  0  0  0  0  0  0  0  0  0  0  0
    1.8922    2.3082   -1.6475 H   0  0  0  0  0  0  0  0  0  0  0  0
    3.3753    1.6180   -0.9035 H   0  0  0  0  0  0  0  0  0  0  0  0
    3.0046   -0.3619   -4.6841 H   0  0  0  0  0  0  0  0  0  0  0  0
    2.1150   -0.7038    1.1707 H   0  0  0  0  0  0  0  0  0  0  0  0
    1.6011   -1.5536   -0.2985 H   0  0  0  0  0  0  0  0  0  0  0  0
    3.5185   -2.1832   -1.8780 H   0  0  0  0  0  0  0  0  0  0  0  0
    5.9469   -2.3038   -2.2952 H   0  0  0  0  0  0  0  0  0  0  0  0
    8.1268   -1.6529   -1.7361 H   0  0  0  0  0  0  0  0  0  0  0  0
   10.4182    0.5778   -0.5476 H   0  0  0  0  0  0  0  0  0  0  0  0
   10.5246   -1.3311   -0.4935 H   0  0  0  0  0  0  0  0  0  0  0  0
    4.2304    0.4840    1.3151 H   0  0  0  0  0  0  0  0  0  0  0  0
   -8.1348   -0.2840    4.2021 H   0  0  0  0  0  0  0  0  0  0  0  0
  1  2  1  0
  2  3  1  0
  3  4  1  0
  4  5  1  0
  4  6  2  0
  1  7  1  0
  7  8  1  0
  8  9  2  0
  8 10  1  0
 10 11  2  0
 11 12  1  0
 12 13  2  0
 13 14  1  0
 14 15  2  0
 13 16  1  0
 16 17  1  0
 17 18  1  0
 18 19  3  0
 16 20  1  0
 20 21  1  0
 21 22  2  0
 22 23  1  0
 23 24  2  0
 24 25  1  0
 25 26  1  0
 26 27  1  0
 26 28  2  0
 28 29  1  0
 29 30  2  0
 29 31  1  0
 31 32  2  0
  1 33  1  0
 33 34  1  0
 33 35  2  0
 15 10  1  0
 32 21  1  0
 31 24  1  0
  1 36  1  1
  2 37  1  0
  2 38  1  0
  3 39  1  0
  3 40  1  0
  5 41  1  0
  7 42  1  0
 11 43  1  0
 12 44  1  0
 14 45  1  0
 15 46  1  0
 17 47  1  0
 17 48  1  0
 19 49  1  0
 20 50  1  0
 20 51  1  0
 22 52  1  0
 23 53  1  0
 25 54  1  0
 27 55  1  0
 27 56  1  0
 32 57  1  0
 34 58  1  0
M  END
$$$$
