@<TRIPOS>MOLECULE
*****
 46 49 0 0 0
SMALL
GASTEIGER

@<TRIPOS>ATOM
      1 C          -6.4005    0.1080    1.4327 C.3     1  UNL1        0.0365
      2 O          -5.4283    0.6710    2.1695 O.3     1  UNL1       -0.3814
      3 C          -4.1525    0.5396    1.8080 C.3     1  UNL1        0.0645
      4 C          -3.6948    1.0667    0.4889 C.3     1  UNL1        0.0552
      5 C          -4.3073    0.4054   -0.7048 C.3     1  UNL1       -0.0323
      6 C          -3.1333    0.2647   -1.6974 C.3     1  UNL1       -0.0370
      7 C          -2.0461    1.0751   -1.0722 C.3     1  UNL1        0.0209
      8 N          -2.2444    0.9377    0.3525 N.3     1  UNL1       -0.1713
      9 S          -1.6019   -0.5200    0.9304 S.O2    1  UNL1        0.0612
     10 O          -2.1871   -1.7203    0.2593 O.2     1  UNL1       -0.1528
     11 O          -1.8187   -0.6919    2.4225 O.2     1  UNL1       -0.1528
     12 C           0.1477   -0.5723    0.6304 C.ar    1  UNL1        0.1063
     13 C           0.6405   -1.1139   -0.5359 C.ar    1  UNL1       -0.0335
     14 C           2.0059   -1.1683   -0.8003 C.ar    1  UNL1       -0.0377
     15 C           2.8906   -0.6658    0.1317 C.ar    1  UNL1        0.0478
     16 C           2.4206   -0.1170    1.3103 C.ar    1  UNL1        0.0502
     17 C           1.0543   -0.0785    1.5422 C.ar    1  UNL1       -0.0226
     18 C           3.5922    0.3191    2.0741 C.2     1  UNL1        0.2496
     19 O           3.5614    0.8688    3.2054 O.2     1  UNL1       -0.2817
     20 C           4.7956    0.0117    1.3088 C.2     1  UNL1        0.2913
     21 O           6.0001    0.2271    1.6158 O.2     1  UNL1       -0.2661
     22 N           4.3312   -0.5980    0.1097 N.am    1  UNL1       -0.2616
     23 C           5.1991   -1.0704   -0.9567 C.3     1  UNL1        0.0486
     24 C           5.4098    0.0712   -1.9334 C.3     1  UNL1        0.0981
     25 C           6.6787    0.7773   -2.0002 C.3     1  UNL1        0.0759
     26 O           6.2063   -0.1339   -3.0427 O.3     1  UNL1       -0.3701
     27 H          -6.4948    0.5165    0.4175 H       1  UNL1        0.0523
     28 H          -7.4043    0.2424    1.9369 H       1  UNL1        0.0523
     29 H          -6.2253   -0.9972    1.3032 H       1  UNL1        0.0523
     30 H          -3.9604   -0.6038    1.7440 H       1  UNL1        0.0576
     31 H          -3.5066    0.9089    2.6489 H       1  UNL1        0.0576
     32 H          -3.9211    2.1457    0.4456 H       1  UNL1        0.0502
     33 H          -5.0581    1.0532   -1.2373 H       1  UNL1        0.0282
     34 H          -4.7137   -0.5907   -0.5254 H       1  UNL1        0.0282
     35 H          -2.8466   -0.7922   -1.7750 H       1  UNL1        0.0279
     36 H          -3.3873    0.6802   -2.6860 H       1  UNL1        0.0279
     37 H          -2.1268    2.1550   -1.3809 H       1  UNL1        0.0444
     38 H          -1.0359    0.6722   -1.3352 H       1  UNL1        0.0444
     39 H          -0.0432   -1.5062   -1.2623 H       1  UNL1        0.0638
     40 H           2.4051   -1.5905   -1.7113 H       1  UNL1        0.0637
     41 H           0.7173    0.3504    2.4601 H       1  UNL1        0.0645
     42 H           6.1634   -1.4465   -0.5586 H       1  UNL1        0.0495
     43 H           4.7041   -1.9074   -1.4904 H       1  UNL1        0.0495
     44 H           4.4891    0.6802   -2.1208 H       1  UNL1        0.0635
     45 H           7.6227    0.4162   -1.5996 H       1  UNL1        0.0586
     46 H           6.7032    1.8412   -2.3222 H       1  UNL1        0.0586
@<TRIPOS>BOND
     1     1     2    1
     2     2     3    1
     3     3     4    1
     4     4     5    1
     5     5     6    1
     6     6     7    1
     7     7     8    1
     8     8     9    1
     9     9    10    2
    10     9    11    2
    11     9    12    1
    12    12    13   ar
    13    13    14   ar
    14    14    15   ar
    15    15    16   ar
    16    16    17   ar
    17    16    18    1
    18    18    19    2
    19    18    20    1
    20    20    21    2
    21    20    22   am
    22    22    23    1
    23    23    24    1
    24    24    25    1
    25    25    26    1
    26     8     4    1
    27    17    12   ar
    28    26    24    1
    29    22    15    1
    30     1    27    1
    31     1    28    1
    32     1    29    1
    33     3    30    1
    34     3    31    1
    35     4    32    1
    36     5    33    1
    37     5    34    1
    38     6    35    1
    39     6    36    1
    40     7    37    1
    41     7    38    1
    42    13    39    1
    43    14    40    1
    44    17    41    1
    45    23    42    1
    46    23    43    1
    47    24    44    1
    48    25    45    1
    49    25    46    1
