
     RDKit          3D

 78 83  0  0  0  0  0  0  0  0999 V2000
    8.7472    0.6279    1.4105 C   0  0  0  0  0  0  0  0  0  0  0  0
    8.5995   -0.5150    0.4537 C   0  0  0  0  0  0  0  0  0  0  0  0
    9.7082   -1.2560    0.1116 C   0  0  0  0  0  0  0  0  0  0  0  0
   11.2671   -0.8516    0.7840 Cl  0  0  0  0  0  0  0  0  0  0  0  0
    9.5551   -2.3048   -0.7589 C   0  0  0  0  0  0  0  0  0  0  0  0
    8.2992   -2.6198   -1.2918 C   0  0  0  0  0  0  0  0  0  0  0  0
    7.2111   -1.8659   -0.9347 C   0  0  0  0  0  0  0  0  0  0  0  0
    7.3416   -0.7976   -0.0540 C   0  0  0  0  0  0  0  0  0  0  0  0
    6.1882   -0.0464    0.2749 N   0  0  0  0  0  0  0  0  0  0  0  0
    6.0943    1.3449   -0.1030 C   0  0  0  0  0  0  0  0  0  0  0  0
    5.0307    2.0480    0.7196 C   0  0  0  0  0  0  0  0  0  0  0  0
    3.7295    1.4233    0.5359 N   0  0  0  0  0  0  0  0  0  0  0  0
    2.7451    2.0339    1.3502 C   0  0  0  0  0  0  0  0  0  0  0  0
    1.3515    1.4780    1.1774 C   0  0  0  0  0  0  0  0  0  0  0  0
    0.9574    1.6540   -0.2577 C   0  0  0  0  0  0  0  0  0  0  0  0
   -0.3887    1.1323   -0.5431 N   0  0  0  0  0  0  0  0  0  0  0  0
   -1.5393    1.6237    0.0635 C   0  0  0  0  0  0  0  0  0  0  0  0
   -1.3258    2.5942    0.8977 O   0  0  0  0  0  0  0  0  0  0  0  0
   -2.9089    1.1845   -0.1315 C   0  0  0  0  0  0  0  0  0  0  0  0
   -3.9932    1.8636    0.3675 N   0  0  0  0  0  0  0  0  0  0  0  0
   -5.1311    1.2510    0.0730 C   0  0  0  0  0  0  0  0  0  0  0  0
   -6.4878    1.6619    0.4260 C   0  0  0  0  0  0  0  0  0  0  0  0
   -7.4675    1.7414   -0.5211 C   0  0  0  0  0  0  0  0  0  0  0  0
   -8.7514    2.1278   -0.2022 C   0  0  0  0  0  0  0  0  0  0  0  0
   -9.0929    2.4496    1.0935 C   0  0  0  0  0  0  0  0  0  0  0  0
   -8.1099    2.3722    2.0569 C   0  0  0  0  0  0  0  0  0  0  0  0
   -6.8065    1.9791    1.7285 C   0  0  0  0  0  0  0  0  0  0  0  0
   -4.8048    0.1610   -0.6235 N   0  0  0  0  0  0  0  0  0  0  0  0
   -5.7091   -0.7849   -1.1406 C   0  0  0  0  0  0  0  0  0  0  0  0
   -5.8504   -0.9308   -2.5049 C   0  0  0  0  0  0  0  0  0  0  0  0
   -6.7169   -1.8364   -3.0816 C   0  0  0  0  0  0  0  0  0  0  0  0
   -7.4664   -2.6218   -2.2120 C   0  0  0  0  0  0  0  0  0  0  0  0
   -7.3555   -2.5078   -0.8405 C   0  0  0  0  0  0  0  0  0  0  0  0
   -6.4755   -1.5879   -0.3123 C   0  0  0  0  0  0  0  0  0  0  0  0
   -3.4400    0.0998   -0.7612 C   0  0  0  0  0  0  0  0  0  0  0  0
   -2.7526   -1.0153   -1.4758 C   0  0  0  0  0  0  0  0  0  0  0  0
   -2.1896   -1.9140   -0.4810 N   0  0  0  0  0  0  0  0  0  0  0  0
   -2.8355   -2.9887    0.0705 C   0  0  0  0  0  0  0  0  0  0  0  0
   -2.0215   -3.5884    0.9428 N   0  0  0  0  0  0  0  0  0  0  0  0
   -0.8634   -2.9264    0.9684 C   0  0  0  0  0  0  0  0  0  0  0  0
   -1.0059   -1.9229    0.0950 N   0  0  0  0  0  0  0  0  0  0  0  0
    3.7779    0.0112    0.4650 C   0  0  0  0  0  0  0  0  0  0  0  0
    5.0666   -0.6097    0.9915 C   0  0  0  0  0  0  0  0  0  0  0  0
    7.8406    0.8379    1.9825 H   0  0  0  0  0  0  0  0  0  0  0  0
    9.5172    0.3138    2.1805 H   0  0  0  0  0  0  0  0  0  0  0  0
    9.1949    1.5159    0.9329 H   0  0  0  0  0  0  0  0  0  0  0  0
   10.4013   -2.9046   -1.0474 H   0  0  0  0  0  0  0  0  0  0  0  0
    8.1845   -3.4627   -1.9892 H   0  0  0  0  0  0  0  0  0  0  0  0
    6.2510   -2.1203   -1.3524 H   0  0  0  0  0  0  0  0  0  0  0  0
    7.0287    1.8926    0.0062 H   0  0  0  0  0  0  0  0  0  0  0  0
    5.7263    1.3546   -1.1654 H   0  0  0  0  0  0  0  0  0  0  0  0
    4.9492    3.0715    0.3252 H   0  0  0  0  0  0  0  0  0  0  0  0
    5.2978    2.0767    1.7838 H   0  0  0  0  0  0  0  0  0  0  0  0
    2.6836    3.1157    1.0274 H   0  0  0  0  0  0  0  0  0  0  0  0
    3.0254    2.0975    2.4262 H   0  0  0  0  0  0  0  0  0  0  0  0
    1.3207    0.4574    1.5515 H   0  0  0  0  0  0  0  0  0  0  0  0
    0.6547    2.0509    1.8576 H   0  0  0  0  0  0  0  0  0  0  0  0
    1.6776    1.1241   -0.8829 H   0  0  0  0  0  0  0  0  0  0  0  0
    1.0150    2.7263   -0.5405 H   0  0  0  0  0  0  0  0  0  0  0  0
   -0.4504    0.3750   -1.2358 H   0  0  0  0  0  0  0  0  0  0  0  0
   -7.2158    1.4918   -1.5426 H   0  0  0  0  0  0  0  0  0  0  0  0
   -9.5548    2.2006   -0.9354 H   0  0  0  0  0  0  0  0  0  0  0  0
  -10.1197    2.7590    1.3510 H   0  0  0  0  0  0  0  0  0  0  0  0
   -8.3710    2.6240    3.0799 H   0  0  0  0  0  0  0  0  0  0  0  0
   -6.0470    1.9234    2.4974 H   0  0  0  0  0  0  0  0  0  0  0  0
   -5.2651   -0.3174   -3.1760 H   0  0  0  0  0  0  0  0  0  0  0  0
   -6.8124   -1.9343   -4.1715 H   0  0  0  0  0  0  0  0  0  0  0  0
   -8.1589   -3.3460   -2.6250 H   0  0  0  0  0  0  0  0  0  0  0  0
   -7.9681   -3.1493   -0.1881 H   0  0  0  0  0  0  0  0  0  0  0  0
   -6.3523   -1.4607    0.7466 H   0  0  0  0  0  0  0  0  0  0  0  0
   -2.0447   -0.6427   -2.2190 H   0  0  0  0  0  0  0  0  0  0  0  0
   -3.5404   -1.6266   -2.0121 H   0  0  0  0  0  0  0  0  0  0  0  0
   -3.8451   -3.2791   -0.1823 H   0  0  0  0  0  0  0  0  0  0  0  0
   -0.0043   -3.1775    1.5829 H   0  0  0  0  0  0  0  0  0  0  0  0
    2.9262   -0.4485    0.9556 H   0  0  0  0  0  0  0  0  0  0  0  0
    3.7313   -0.2757   -0.6323 H   0  0  0  0  0  0  0  0  0  0  0  0
    5.1360   -0.4832    2.0855 H   0  0  0  0  0  0  0  0  0  0  0  0
    5.0079   -1.6920    0.6992 H   0  0  0  0  0  0  0  0  0  0  0  0
  1  2  1  0
  2  3  2  0
  3  4  1  0
  3  5  1  0
  5  6  2  0
  6  7  1  0
  7  8  2  0
  8  9  1  0
  9 10  1  0
 10 11  1  0
 11 12  1  0
 12 13  1  0
 13 14  1  0
 14 15  1  0
 15 16  1  0
 16 17  1  0
 17 18  2  0
 17 19  1  0
 19 20  1  0
 20 21  2  0
 21 22  1  0
 22 23  2  0
 23 24  1  0
 24 25  2  0
 25 26  1  0
 26 27  2  0
 21 28  1  0
 28 29  1  0
 29 30  2  0
 30 31  1  0
 31 32  2  0
 32 33  1  0
 33 34  2  0
 28 35  1  0
 35 36  1  0
 36 37  1  0
 37 38  1  0
 38 39  2  0
 39 40  1  0
 40 41  2  0
 12 42  1  0
 42 43  1  0
  8  2  1  0
 43  9  1  0
 35 19  2  0
 41 37  1  0
 27 22  1  0
 34 29  1  0
  1 44  1  0
  1 45  1  0
  1 46  1  0
  5 47  1  0
  6 48  1  0
  7 49  1  0
 10 50  1  0
 10 51  1  0
 11 52  1  0
 11 53  1  0
 13 54  1  0
 13 55  1  0
 14 56  1  0
 14 57  1  0
 15 58  1  0
 15 59  1  0
 16 60  1  0
 23 61  1  0
 24 62  1  0
 25 63  1  0
 26 64  1  0
 27 65  1  0
 30 66  1  0
 31 67  1  0
 32 68  1  0
 33 69  1  0
 34 70  1  0
 36 71  1  0
 36 72  1  0
 38 73  1  0
 40 74  1  0
 42 75  1  0
 42 76  1  0
 43 77  1  0
 43 78  1  0
M  END
$$$$
