@<TRIPOS>MOLECULE
*****
 78 83 0 0 0
SMALL
GASTEIGER

@<TRIPOS>ATOM
      1 C           8.7472    0.6279    1.4105 C.3     1  UNL1       -0.0366
      2 C           8.5995   -0.5150    0.4537 C.ar    1  UNL1       -0.0111
      3 C           9.7082   -1.2560    0.1116 C.ar    1  UNL1        0.0456
      4 CL         11.2671   -0.8516    0.7840 Cl      1  UNL1       -0.0832
      5 C           9.5551   -2.3048   -0.7589 C.ar    1  UNL1       -0.0430
      6 C           8.2992   -2.6198   -1.2918 C.ar    1  UNL1       -0.0586
      7 C           7.2111   -1.8659   -0.9347 C.ar    1  UNL1       -0.0403
      8 C           7.3416   -0.7976   -0.0540 C.ar    1  UNL1        0.0341
      9 N           6.1882   -0.0464    0.2749 N.pl3   1  UNL1       -0.3272
     10 C           6.0943    1.3449   -0.1030 C.3     1  UNL1        0.0250
     11 C           5.0307    2.0480    0.7196 C.3     1  UNL1        0.0147
     12 N           3.7295    1.4233    0.5359 N.3     1  UNL1       -0.2993
     13 C           2.7451    2.0339    1.3502 C.3     1  UNL1        0.0004
     14 C           1.3515    1.4780    1.1774 C.3     1  UNL1       -0.0245
     15 C           0.9574    1.6540   -0.2577 C.3     1  UNL1        0.0131
     16 N          -0.3887    1.1323   -0.5431 N.am    1  UNL1       -0.3100
     17 C          -1.5393    1.6237    0.0635 C.2     1  UNL1        0.2643
     18 O          -1.3258    2.5942    0.8977 O.2     1  UNL1       -0.2685
     19 C          -2.9089    1.1845   -0.1315 C.ar    1  UNL1        0.1491
     20 N          -3.9932    1.8636    0.3675 N.ar    1  UNL1       -0.2222
     21 C          -5.1311    1.2510    0.0730 C.ar    1  UNL1        0.1463
     22 C          -6.4878    1.6619    0.4260 C.ar    1  UNL1        0.0178
     23 C          -7.4675    1.7414   -0.5211 C.ar    1  UNL1       -0.0511
     24 C          -8.7514    2.1278   -0.2022 C.ar    1  UNL1       -0.0611
     25 C          -9.0929    2.4496    1.0935 C.ar    1  UNL1       -0.0617
     26 C          -8.1099    2.3722    2.0569 C.ar    1  UNL1       -0.0611
     27 C          -6.8065    1.9791    1.7285 C.ar    1  UNL1       -0.0511
     28 N          -4.8048    0.1610   -0.6235 N.ar    1  UNL1       -0.2939
     29 C          -5.7091   -0.7849   -1.1406 C.ar    1  UNL1        0.0484
     30 C          -5.8504   -0.9308   -2.5049 C.ar    1  UNL1       -0.0378
     31 C          -6.7169   -1.8364   -3.0816 C.ar    1  UNL1       -0.0598
     32 C          -7.4664   -2.6218   -2.2120 C.ar    1  UNL1       -0.0616
     33 C          -7.3555   -2.5078   -0.8405 C.ar    1  UNL1       -0.0598
     34 C          -6.4755   -1.5879   -0.3123 C.ar    1  UNL1       -0.0378
     35 C          -3.4400    0.0998   -0.7612 C.ar    1  UNL1        0.0774
     36 C          -2.7526   -1.0153   -1.4758 C.3     1  UNL1        0.0860
     37 N          -2.1896   -1.9140   -0.4810 N.ar    1  UNL1       -0.2462
     38 C          -2.8355   -2.9887    0.0705 C.ar    1  UNL1        0.1147
     39 N          -2.0215   -3.5884    0.9428 N.ar    1  UNL1       -0.2228
     40 C          -0.8634   -2.9264    0.9684 C.ar    1  UNL1        0.1380
     41 N          -1.0059   -1.9229    0.0950 N.ar    1  UNL1       -0.1581
     42 C           3.7779    0.0112    0.4650 C.3     1  UNL1        0.0147
     43 C           5.0666   -0.6097    0.9915 C.3     1  UNL1        0.0250
     44 H           7.8406    0.8379    1.9825 H       1  UNL1        0.0279
     45 H           9.5172    0.3138    2.1805 H       1  UNL1        0.0279
     46 H           9.1949    1.5159    0.9329 H       1  UNL1        0.0279
     47 H          10.4013   -2.9046   -1.0474 H       1  UNL1        0.0632
     48 H           8.1845   -3.4627   -1.9892 H       1  UNL1        0.0619
     49 H           6.2510   -2.1203   -1.3524 H       1  UNL1        0.0636
     50 H           7.0287    1.8926    0.0062 H       1  UNL1        0.0476
     51 H           5.7263    1.3546   -1.1654 H       1  UNL1        0.0476
     52 H           4.9492    3.0715    0.3252 H       1  UNL1        0.0442
     53 H           5.2978    2.0767    1.7838 H       1  UNL1        0.0442
     54 H           2.6836    3.1157    1.0274 H       1  UNL1        0.0427
     55 H           3.0254    2.0975    2.4262 H       1  UNL1        0.0427
     56 H           1.3207    0.4574    1.5515 H       1  UNL1        0.0293
     57 H           0.6547    2.0509    1.8576 H       1  UNL1        0.0293
     58 H           1.6776    1.1241   -0.8829 H       1  UNL1        0.0462
     59 H           1.0150    2.7263   -0.5405 H       1  UNL1        0.0462
     60 H          -0.4504    0.3750   -1.2358 H       1  UNL1        0.1490
     61 H          -7.2158    1.4918   -1.5426 H       1  UNL1        0.0625
     62 H          -9.5548    2.2006   -0.9354 H       1  UNL1        0.0618
     63 H         -10.1197    2.7590    1.3510 H       1  UNL1        0.0618
     64 H          -8.3710    2.6240    3.0799 H       1  UNL1        0.0618
     65 H          -6.0470    1.9234    2.4974 H       1  UNL1        0.0625
     66 H          -5.2651   -0.3174   -3.1760 H       1  UNL1        0.0638
     67 H          -6.8124   -1.9343   -4.1715 H       1  UNL1        0.0618
     68 H          -8.1589   -3.3460   -2.6250 H       1  UNL1        0.0618
     69 H          -7.9681   -3.1493   -0.1881 H       1  UNL1        0.0618
     70 H          -6.3523   -1.4607    0.7466 H       1  UNL1        0.0638
     71 H          -2.0447   -0.6427   -2.2190 H       1  UNL1        0.0574
     72 H          -3.5404   -1.6266   -2.0121 H       1  UNL1        0.0574
     73 H          -3.8451   -3.2791   -0.1823 H       1  UNL1        0.1044
     74 H          -0.0043   -3.1775    1.5829 H       1  UNL1        0.1065
     75 H           2.9262   -0.4485    0.9556 H       1  UNL1        0.0442
     76 H           3.7313   -0.2757   -0.6323 H       1  UNL1        0.0442
     77 H           5.1360   -0.4832    2.0855 H       1  UNL1        0.0476
     78 H           5.0079   -1.6920    0.6992 H       1  UNL1        0.0476
@<TRIPOS>BOND
     1     1     2    1
     2     2     3   ar
     3     3     4    1
     4     3     5   ar
     5     5     6   ar
     6     6     7   ar
     7     7     8   ar
     8     8     9    1
     9     9    10    1
    10    10    11    1
    11    11    12    1
    12    12    13    1
    13    13    14    1
    14    14    15    1
    15    15    16    1
    16    16    17   am
    17    17    18    2
    18    17    19    1
    19    19    20   ar
    20    20    21   ar
    21    21    22    1
    22    22    23   ar
    23    23    24   ar
    24    24    25   ar
    25    25    26   ar
    26    26    27   ar
    27    21    28   ar
    28    28    29    1
    29    29    30   ar
    30    30    31   ar
    31    31    32   ar
    32    32    33   ar
    33    33    34   ar
    34    28    35   ar
    35    35    36    1
    36    36    37    1
    37    37    38   ar
    38    38    39   ar
    39    39    40   ar
    40    40    41   ar
    41    12    42    1
    42    42    43    1
    43     8     2   ar
    44    43     9    1
    45    35    19   ar
    46    41    37   ar
    47    27    22   ar
    48    34    29   ar
    49     1    44    1
    50     1    45    1
    51     1    46    1
    52     5    47    1
    53     6    48    1
    54     7    49    1
    55    10    50    1
    56    10    51    1
    57    11    52    1
    58    11    53    1
    59    13    54    1
    60    13    55    1
    61    14    56    1
    62    14    57    1
    63    15    58    1
    64    15    59    1
    65    16    60    1
    66    23    61    1
    67    24    62    1
    68    25    63    1
    69    26    64    1
    70    27    65    1
    71    30    66    1
    72    31    67    1
    73    32    68    1
    74    33    69    1
    75    34    70    1
    76    36    71    1
    77    36    72    1
    78    38    73    1
    79    40    74    1
    80    42    75    1
    81    42    76    1
    82    43    77    1
    83    43    78    1
