@<TRIPOS>MOLECULE
*****
 59 62 0 0 0
SMALL
GASTEIGER

@<TRIPOS>ATOM
      1 C           7.8896   -1.9778   -1.4579 C.3     1  UNL1        0.0788
      2 O           6.8862   -1.6233   -2.3623 O.3     1  UNL1       -0.4951
      3 C           5.7829   -0.8972   -1.9628 C.ar    1  UNL1        0.1202
      4 C           4.8224   -0.5821   -2.9129 C.ar    1  UNL1       -0.0181
      5 C           3.7096    0.1481   -2.5376 C.ar    1  UNL1       -0.0319
      6 C           3.4743    0.6005   -1.2570 C.ar    1  UNL1        0.1057
      7 S           2.0445    1.5000   -0.9072 S.O2    1  UNL1        0.0616
      8 O           1.4202    1.8492   -2.2954 O.2     1  UNL1       -0.1528
      9 O           2.3648    2.8000   -0.2948 O.2     1  UNL1       -0.1528
     10 N           0.8455    0.6663   -0.0931 N.3     1  UNL1       -0.1616
     11 C           0.3456   -0.4848   -0.8588 C.3     1  UNL1        0.0372
     12 C          -1.0763   -0.7456   -0.3434 C.3     1  UNL1        0.0295
     13 N          -1.4162    0.2503    0.6622 N.am    1  UNL1       -0.2941
     14 C          -2.5962    1.0392    0.5120 C.2     1  UNL1        0.2522
     15 O          -2.8333    1.8918    1.3951 O.2     1  UNL1       -0.2698
     16 C          -3.4592    0.8177   -0.6471 C.ar    1  UNL1        0.1062
     17 C          -4.6746    0.1976   -0.6743 C.ar    1  UNL1        0.1257
     18 C          -5.4167   -0.4096    0.4019 C.ar    1  UNL1        0.0044
     19 C          -5.6769    0.1391    1.6268 C.ar    1  UNL1       -0.0524
     20 C          -6.3856   -0.4998    2.6385 C.ar    1  UNL1       -0.0611
     21 C          -6.8634   -1.7840    2.3916 C.ar    1  UNL1       -0.0617
     22 C          -6.6276   -2.3772    1.1738 C.ar    1  UNL1       -0.0611
     23 C          -5.9138   -1.6930    0.1990 C.ar    1  UNL1       -0.0524
     24 N          -5.0332    0.2612   -1.9988 N.ar    1  UNL1       -0.0773
     25 O          -4.1285    0.8537   -2.6863 O.2     1  UNL1       -0.3586
     26 C          -3.1229    1.2282   -1.9233 C.ar    1  UNL1        0.1469
     27 C          -1.8862    1.9362   -2.3266 C.3     1  UNL1       -0.0029
     28 C          -0.5750    0.4512    1.8021 C.3     1  UNL1        0.0408
     29 C           0.8971    0.3907    1.2679 C.3     1  UNL1        0.1254
     30 C           1.7541    1.1061    2.1906 C.2     1  UNL1        0.2559
     31 O           2.5117    2.0326    1.9873 O.2     1  UNL1       -0.2719
     32 N           1.6950    0.6417    3.5768 N.am    1  UNL1       -0.1961
     33 O           2.4659    1.2619    4.4882 O.3     1  UNL1       -0.2951
     34 C           4.4413    0.2743   -0.3320 C.ar    1  UNL1       -0.0319
     35 C           5.5796   -0.4637   -0.6796 C.ar    1  UNL1       -0.0181
     36 H           7.5577   -2.9565   -0.9988 H       1  UNL1        0.0660
     37 H           8.0079   -1.2655   -0.6376 H       1  UNL1        0.0660
     38 H           8.8694   -2.0922   -1.9878 H       1  UNL1        0.0660
     39 H           4.9467   -0.9088   -3.9374 H       1  UNL1        0.0655
     40 H           2.9894    0.3616   -3.3340 H       1  UNL1        0.0638
     41 H           0.2873   -0.1844   -1.9137 H       1  UNL1        0.0460
     42 H           1.0036   -1.3551   -0.7032 H       1  UNL1        0.0460
     43 H          -1.0616   -1.7601    0.0786 H       1  UNL1        0.0478
     44 H          -1.8219   -0.7196   -1.1542 H       1  UNL1        0.0478
     45 H          -5.3389    1.1185    1.8430 H       1  UNL1        0.0624
     46 H          -6.5786   -0.0399    3.6067 H       1  UNL1        0.0618
     47 H          -7.4128   -2.2643    3.1878 H       1  UNL1        0.0618
     48 H          -7.0124   -3.3915    0.9963 H       1  UNL1        0.0618
     49 H          -5.7430   -2.1826   -0.7418 H       1  UNL1        0.0624
     50 H          -1.2485    1.3110   -2.9960 H       1  UNL1        0.0309
     51 H          -2.1175    2.8930   -2.8625 H       1  UNL1        0.0309
     52 H          -1.2900    2.2631   -1.4433 H       1  UNL1        0.0309
     53 H          -0.7256    1.5064    2.1489 H       1  UNL1        0.0485
     54 H          -0.7077   -0.2903    2.6165 H       1  UNL1        0.0485
     55 H           1.0863   -0.7494    1.3505 H       1  UNL1        0.0592
     56 H           1.0711   -0.1434    3.8491 H       1  UNL1        0.1822
     57 H           3.3795    0.8905    4.5018 H       1  UNL1        0.2414
     58 H           4.3272    0.5913    0.6789 H       1  UNL1        0.0638
     59 H           6.2876   -0.6876    0.0897 H       1  UNL1        0.0655
@<TRIPOS>BOND
     1     1     2    1
     2     2     3    1
     3     3     4   ar
     4     4     5   ar
     5     5     6   ar
     6     6     7    1
     7     7     8    2
     8     7     9    2
     9     7    10    1
    10    10    11    1
    11    11    12    1
    12    12    13    1
    13    13    14   am
    14    14    15    2
    15    14    16    1
    16    16    17   ar
    17    17    18    1
    18    18    19   ar
    19    19    20   ar
    20    20    21   ar
    21    21    22   ar
    22    22    23   ar
    23    17    24   ar
    24    24    25   ar
    25    25    26   ar
    26    26    27    1
    27    13    28    1
    28    28    29    1
    29    29    30    1
    30    30    31    2
    31    30    32   am
    32    32    33    1
    33     6    34   ar
    34    34    35   ar
    35    35     3   ar
    36    29    10    1
    37    26    16   ar
    38    23    18   ar
    39     1    36    1
    40     1    37    1
    41     1    38    1
    42     4    39    1
    43     5    40    1
    44    11    41    1
    45    11    42    1
    46    12    43    1
    47    12    44    1
    48    19    45    1
    49    20    46    1
    50    21    47    1
    51    22    48    1
    52    23    49    1
    53    27    50    1
    54    27    51    1
    55    27    52    1
    56    28    53    1
    57    28    54    1
    58    29    55    1
    59    32    56    1
    60    33    57    1
    61    34    58    1
    62    35    59    1
