
     RDKit          3D

 59 62  0  0  0  0  0  0  0  0999 V2000
    7.8896   -1.9778   -1.4579 C   0  0  0  0  0  0  0  0  0  0  0  0
    6.8862   -1.6233   -2.3623 O   0  0  0  0  0  0  0  0  0  0  0  0
    5.7829   -0.8972   -1.9628 C   0  0  0  0  0  0  0  0  0  0  0  0
    4.8224   -0.5821   -2.9129 C   0  0  0  0  0  0  0  0  0  0  0  0
    3.7096    0.1481   -2.5376 C   0  0  0  0  0  0  0  0  0  0  0  0
    3.4743    0.6005   -1.2570 C   0  0  0  0  0  0  0  0  0  0  0  0
    2.0445    1.5000   -0.9072 S   0  0  0  0  0  6  0  0  0  0  0  0
    1.4202    1.8492   -2.2954 O   0  0  0  0  0  0  0  0  0  0  0  0
    2.3648    2.8000   -0.2948 O   0  0  0  0  0  0  0  0  0  0  0  0
    0.8455    0.6663   -0.0931 N   0  0  0  0  0  0  0  0  0  0  0  0
    0.3456   -0.4848   -0.8588 C   0  0  0  0  0  0  0  0  0  0  0  0
   -1.0763   -0.7456   -0.3434 C   0  0  0  0  0  0  0  0  0  0  0  0
   -1.4162    0.2503    0.6622 N   0  0  0  0  0  0  0  0  0  0  0  0
   -2.5962    1.0392    0.5120 C   0  0  0  0  0  0  0  0  0  0  0  0
   -2.8333    1.8918    1.3951 O   0  0  0  0  0  0  0  0  0  0  0  0
   -3.4592    0.8177   -0.6471 C   0  0  0  0  0  0  0  0  0  0  0  0
   -4.6746    0.1976   -0.6743 C   0  0  0  0  0  0  0  0  0  0  0  0
   -5.4167   -0.4096    0.4019 C   0  0  0  0  0  0  0  0  0  0  0  0
   -5.6769    0.1391    1.6268 C   0  0  0  0  0  0  0  0  0  0  0  0
   -6.3856   -0.4998    2.6385 C   0  0  0  0  0  0  0  0  0  0  0  0
   -6.8634   -1.7840    2.3916 C   0  0  0  0  0  0  0  0  0  0  0  0
   -6.6276   -2.3772    1.1738 C   0  0  0  0  0  0  0  0  0  0  0  0
   -5.9138   -1.6930    0.1990 C   0  0  0  0  0  0  0  0  0  0  0  0
   -5.0332    0.2612   -1.9988 N   0  0  0  0  0  0  0  0  0  0  0  0
   -4.1285    0.8537   -2.6863 O   0  0  0  0  0  0  0  0  0  0  0  0
   -3.1229    1.2282   -1.9233 C   0  0  0  0  0  0  0  0  0  0  0  0
   -1.8862    1.9362   -2.3266 C   0  0  0  0  0  0  0  0  0  0  0  0
   -0.5750    0.4512    1.8021 C   0  0  0  0  0  0  0  0  0  0  0  0
    0.8971    0.3907    1.2679 C   0  0  0  0  0  0  0  0  0  0  0  0
    1.7541    1.1061    2.1906 C   0  0  0  0  0  0  0  0  0  0  0  0
    2.5117    2.0326    1.9873 O   0  0  0  0  0  0  0  0  0  0  0  0
    1.6950    0.6417    3.5768 N   0  0  0  0  0  0  0  0  0  0  0  0
    2.4659    1.2619    4.4882 O   0  0  0  0  0  0  0  0  0  0  0  0
    4.4413    0.2743   -0.3320 C   0  0  0  0  0  0  0  0  0  0  0  0
    5.5796   -0.4637   -0.6796 C   0  0  0  0  0  0  0  0  0  0  0  0
    7.5577   -2.9565   -0.9988 H   0  0  0  0  0  0  0  0  0  0  0  0
    8.0079   -1.2655   -0.6376 H   0  0  0  0  0  0  0  0  0  0  0  0
    8.8694   -2.0922   -1.9878 H   0  0  0  0  0  0  0  0  0  0  0  0
    4.9467   -0.9088   -3.9374 H   0  0  0  0  0  0  0  0  0  0  0  0
    2.9894    0.3616   -3.3340 H   0  0  0  0  0  0  0  0  0  0  0  0
    0.2873   -0.1844   -1.9137 H   0  0  0  0  0  0  0  0  0  0  0  0
    1.0036   -1.3551   -0.7032 H   0  0  0  0  0  0  0  0  0  0  0  0
   -1.0616   -1.7601    0.0786 H   0  0  0  0  0  0  0  0  0  0  0  0
   -1.8219   -0.7196   -1.1542 H   0  0  0  0  0  0  0  0  0  0  0  0
   -5.3389    1.1185    1.8430 H   0  0  0  0  0  0  0  0  0  0  0  0
   -6.5786   -0.0399    3.6067 H   0  0  0  0  0  0  0  0  0  0  0  0
   -7.4128   -2.2643    3.1878 H   0  0  0  0  0  0  0  0  0  0  0  0
   -7.0124   -3.3915    0.9963 H   0  0  0  0  0  0  0  0  0  0  0  0
   -5.7430   -2.1826   -0.7418 H   0  0  0  0  0  0  0  0  0  0  0  0
   -1.2485    1.3110   -2.9960 H   0  0  0  0  0  0  0  0  0  0  0  0
   -2.1175    2.8930   -2.8625 H   0  0  0  0  0  0  0  0  0  0  0  0
   -1.2900    2.2631   -1.4433 H   0  0  0  0  0  0  0  0  0  0  0  0
   -0.7256    1.5064    2.1489 H   0  0  0  0  0  0  0  0  0  0  0  0
   -0.7077   -0.2903    2.6165 H   0  0  0  0  0  0  0  0  0  0  0  0
    1.0863   -0.7494    1.3505 H   0  0  0  0  0  0  0  0  0  0  0  0
    1.0711   -0.1434    3.8491 H   0  0  0  0  0  0  0  0  0  0  0  0
    3.3795    0.8905    4.5018 H   0  0  0  0  0  0  0  0  0  0  0  0
    4.3272    0.5913    0.6789 H   0  0  0  0  0  0  0  0  0  0  0  0
    6.2876   -0.6876    0.0897 H   0  0  0  0  0  0  0  0  0  0  0  0
  1  2  1  0
  2  3  1  0
  3  4  2  0
  4  5  1  0
  5  6  2  0
  6  7  1  0
  7  8  2  0
  7  9  2  0
  7 10  1  0
 10 11  1  0
 11 12  1  0
 12 13  1  0
 13 14  1  0
 14 15  2  0
 14 16  1  0
 16 17  1  0
 17 18  1  0
 18 19  2  0
 19 20  1  0
 20 21  2  0
 21 22  1  0
 22 23  2  0
 17 24  2  0
 24 25  1  0
 25 26  1  0
 26 27  1  0
 13 28  1  0
 28 29  1  0
 29 30  1  0
 30 31  2  0
 30 32  1  0
 32 33  1  0
  6 34  1  0
 34 35  2  0
 35  3  1  0
 29 10  1  0
 26 16  2  0
 23 18  1  0
  1 36  1  0
  1 37  1  0
  1 38  1  0
  4 39  1  0
  5 40  1  0
 11 41  1  0
 11 42  1  0
 12 43  1  0
 12 44  1  0
 19 45  1  0
 20 46  1  0
 21 47  1  0
 22 48  1  0
 23 49  1  0
 27 50  1  0
 27 51  1  0
 27 52  1  0
 28 53  1  0
 28 54  1  0
 29 55  1  0
 32 56  1  0
 33 57  1  0
 34 58  1  0
 35 59  1  0
M  END
$$$$
