@<TRIPOS>MOLECULE
*****
 58 60 0 0 0
SMALL
GASTEIGER

@<TRIPOS>ATOM
      1 C          -4.7341   -2.0750    0.1952 C.3     1  UNL1       -0.0612
      2 C          -4.4494   -0.6789   -0.3019 C.3     1  UNL1       -0.0294
      3 C          -3.0134   -0.5617   -0.6232 C.2     1  UNL1       -0.0322
      4 C          -2.2457    0.2605    0.0516 C.2     1  UNL1       -0.0070
      5 C          -2.7202    1.1083    1.1625 C.ar    1  UNL1       -0.0168
      6 C          -2.4089    2.4641    1.1429 C.ar    1  UNL1       -0.0506
      7 C          -2.7779    3.3153    2.1485 C.ar    1  UNL1       -0.0196
      8 C          -3.4820    2.8318    3.2260 C.ar    1  UNL1        0.1169
      9 O          -3.8689    3.6947    4.2690 O.3     1  UNL1       -0.5068
     10 C          -3.7957    1.4919    3.2573 C.ar    1  UNL1       -0.0196
     11 C          -3.4179    0.6473    2.2390 C.ar    1  UNL1       -0.0506
     12 C          -0.8312    0.4578   -0.2673 C.ar    1  UNL1       -0.0168
     13 C           0.0793    0.5023    0.7471 C.ar    1  UNL1       -0.0506
     14 C           1.4365    0.7022    0.5555 C.ar    1  UNL1       -0.0194
     15 C           1.8937    0.8649   -0.7327 C.ar    1  UNL1        0.1206
     16 O           3.1912    1.0638   -1.0705 O.3     1  UNL1       -0.4907
     17 C           4.3751    1.1477   -0.4000 C.3     1  UNL1        0.1022
     18 C           4.8136   -0.0938    0.3421 C.3     1  UNL1        0.0325
     19 N           6.0875    0.1912    0.9831 N.3     1  UNL1       -0.3051
     20 C           6.5812   -0.9558    1.7193 C.3     1  UNL1       -0.0129
     21 C           7.0571    0.5233   -0.0411 C.3     1  UNL1       -0.0129
     22 C           0.9613    0.8221   -1.7958 C.ar    1  UNL1       -0.0194
     23 C          -0.3734    0.6215   -1.5533 C.ar    1  UNL1       -0.0506
     24 C          -2.4375   -1.4032   -1.6737 C.ar    1  UNL1       -0.0213
     25 C          -3.0819   -1.5167   -2.8843 C.ar    1  UNL1       -0.0543
     26 C          -2.5201   -2.3372   -3.8504 C.ar    1  UNL1       -0.0612
     27 C          -1.3486   -3.0362   -3.6398 C.ar    1  UNL1       -0.0617
     28 C          -0.7456   -2.8895   -2.4172 C.ar    1  UNL1       -0.0612
     29 C          -1.2514   -2.0909   -1.4154 C.ar    1  UNL1       -0.0543
     30 H          -5.0697   -2.7518   -0.6320 H       1  UNL1        0.0233
     31 H          -3.8441   -2.5648    0.6431 H       1  UNL1        0.0233
     32 H          -5.4998   -2.0345    1.0055 H       1  UNL1        0.0233
     33 H          -4.8521    0.0800    0.3796 H       1  UNL1        0.0311
     34 H          -5.0674   -0.4899   -1.2578 H       1  UNL1        0.0311
     35 H          -1.8498    2.8633    0.2941 H       1  UNL1        0.0625
     36 H          -2.4980    4.3553    2.0604 H       1  UNL1        0.0654
     37 H          -4.5138    4.4491    4.0768 H       1  UNL1        0.2921
     38 H          -4.3560    1.1340    4.1249 H       1  UNL1        0.0654
     39 H          -3.6697   -0.4062    2.3067 H       1  UNL1        0.0625
     40 H          -0.2273    0.3770    1.7980 H       1  UNL1        0.0625
     41 H           2.1188    0.7431    1.3977 H       1  UNL1        0.0654
     42 H           5.1751    1.4207   -1.1659 H       1  UNL1        0.0709
     43 H           4.4065    2.0417    0.2884 H       1  UNL1        0.0709
     44 H           4.1057   -0.3411    1.1155 H       1  UNL1        0.0460
     45 H           4.8915   -0.9463   -0.3634 H       1  UNL1        0.0460
     46 H           6.2536   -0.9678    2.7634 H       1  UNL1        0.0391
     47 H           6.2460   -1.9193    1.2424 H       1  UNL1        0.0391
     48 H           7.6771   -0.9577    1.6415 H       1  UNL1        0.0391
     49 H           8.0229    0.0772    0.2120 H       1  UNL1        0.0391
     50 H           7.1524    1.6110   -0.0825 H       1  UNL1        0.0391
     51 H           6.7477    0.0744   -1.0149 H       1  UNL1        0.0391
     52 H           1.3397    0.9531   -2.8113 H       1  UNL1        0.0654
     53 H          -1.0696    0.5988   -2.4085 H       1  UNL1        0.0625
     54 H          -4.0123   -0.9784   -3.0914 H       1  UNL1        0.0624
     55 H          -3.0625   -2.4026   -4.8044 H       1  UNL1        0.0618
     56 H          -0.9558   -3.6626   -4.4307 H       1  UNL1        0.0618
     57 H           0.1800   -3.4232   -2.2094 H       1  UNL1        0.0618
     58 H          -0.7418   -2.0046   -0.4503 H       1  UNL1        0.0624
@<TRIPOS>BOND
     1     1     2    1
     2     2     3    1
     3     3     4    2
     4     4     5    1
     5     5     6   ar
     6     6     7   ar
     7     7     8   ar
     8     8     9    1
     9     8    10   ar
    10    10    11   ar
    11     4    12    1
    12    12    13   ar
    13    13    14   ar
    14    14    15   ar
    15    15    16    1
    16    16    17    1
    17    17    18    1
    18    18    19    1
    19    19    20    1
    20    19    21    1
    21    15    22   ar
    22    22    23   ar
    23     3    24    1
    24    24    25   ar
    25    25    26   ar
    26    26    27   ar
    27    27    28   ar
    28    28    29   ar
    29    11     5   ar
    30    23    12   ar
    31    29    24   ar
    32     1    30    1
    33     1    31    1
    34     1    32    1
    35     2    33    1
    36     2    34    1
    37     6    35    1
    38     7    36    1
    39     9    37    1
    40    10    38    1
    41    11    39    1
    42    13    40    1
    43    14    41    1
    44    17    42    1
    45    17    43    1
    46    18    44    1
    47    18    45    1
    48    20    46    1
    49    20    47    1
    50    20    48    1
    51    21    49    1
    52    21    50    1
    53    21    51    1
    54    22    52    1
    55    23    53    1
    56    25    54    1
    57    26    55    1
    58    27    56    1
    59    28    57    1
    60    29    58    1
