
     RDKit          3D

 58 60  0  0  0  0  0  0  0  0999 V2000
   -4.7341   -2.0750    0.1952 C   0  0  0  0  0  0  0  0  0  0  0  0
   -4.4494   -0.6789   -0.3019 C   0  0  0  0  0  0  0  0  0  0  0  0
   -3.0134   -0.5617   -0.6232 C   0  0  0  0  0  0  0  0  0  0  0  0
   -2.2457    0.2605    0.0516 C   0  0  0  0  0  0  0  0  0  0  0  0
   -2.7202    1.1083    1.1625 C   0  0  0  0  0  0  0  0  0  0  0  0
   -2.4089    2.4641    1.1429 C   0  0  0  0  0  0  0  0  0  0  0  0
   -2.7779    3.3153    2.1485 C   0  0  0  0  0  0  0  0  0  0  0  0
   -3.4820    2.8318    3.2260 C   0  0  0  0  0  0  0  0  0  0  0  0
   -3.8689    3.6947    4.2690 O   0  0  0  0  0  0  0  0  0  0  0  0
   -3.7957    1.4919    3.2573 C   0  0  0  0  0  0  0  0  0  0  0  0
   -3.4179    0.6473    2.2390 C   0  0  0  0  0  0  0  0  0  0  0  0
   -0.8312    0.4578   -0.2673 C   0  0  0  0  0  0  0  0  0  0  0  0
    0.0793    0.5023    0.7471 C   0  0  0  0  0  0  0  0  0  0  0  0
    1.4365    0.7022    0.5555 C   0  0  0  0  0  0  0  0  0  0  0  0
    1.8937    0.8649   -0.7327 C   0  0  0  0  0  0  0  0  0  0  0  0
    3.1912    1.0638   -1.0705 O   0  0  0  0  0  0  0  0  0  0  0  0
    4.3751    1.1477   -0.4000 C   0  0  0  0  0  0  0  0  0  0  0  0
    4.8136   -0.0938    0.3421 C   0  0  0  0  0  0  0  0  0  0  0  0
    6.0875    0.1912    0.9831 N   0  0  0  0  0  0  0  0  0  0  0  0
    6.5812   -0.9558    1.7193 C   0  0  0  0  0  0  0  0  0  0  0  0
    7.0571    0.5233   -0.0411 C   0  0  0  0  0  0  0  0  0  0  0  0
    0.9613    0.8221   -1.7958 C   0  0  0  0  0  0  0  0  0  0  0  0
   -0.3734    0.6215   -1.5533 C   0  0  0  0  0  0  0  0  0  0  0  0
   -2.4375   -1.4032   -1.6737 C   0  0  0  0  0  0  0  0  0  0  0  0
   -3.0819   -1.5167   -2.8843 C   0  0  0  0  0  0  0  0  0  0  0  0
   -2.5201   -2.3372   -3.8504 C   0  0  0  0  0  0  0  0  0  0  0  0
   -1.3486   -3.0362   -3.6398 C   0  0  0  0  0  0  0  0  0  0  0  0
   -0.7456   -2.8895   -2.4172 C   0  0  0  0  0  0  0  0  0  0  0  0
   -1.2514   -2.0909   -1.4154 C   0  0  0  0  0  0  0  0  0  0  0  0
   -5.0697   -2.7518   -0.6320 H   0  0  0  0  0  0  0  0  0  0  0  0
   -3.8441   -2.5648    0.6431 H   0  0  0  0  0  0  0  0  0  0  0  0
   -5.4998   -2.0345    1.0055 H   0  0  0  0  0  0  0  0  0  0  0  0
   -4.8521    0.0800    0.3796 H   0  0  0  0  0  0  0  0  0  0  0  0
   -5.0674   -0.4899   -1.2578 H   0  0  0  0  0  0  0  0  0  0  0  0
   -1.8498    2.8633    0.2941 H   0  0  0  0  0  0  0  0  0  0  0  0
   -2.4980    4.3553    2.0604 H   0  0  0  0  0  0  0  0  0  0  0  0
   -4.5138    4.4491    4.0768 H   0  0  0  0  0  0  0  0  0  0  0  0
   -4.3560    1.1340    4.1249 H   0  0  0  0  0  0  0  0  0  0  0  0
   -3.6697   -0.4062    2.3067 H   0  0  0  0  0  0  0  0  0  0  0  0
   -0.2273    0.3770    1.7980 H   0  0  0  0  0  0  0  0  0  0  0  0
    2.1188    0.7431    1.3977 H   0  0  0  0  0  0  0  0  0  0  0  0
    5.1751    1.4207   -1.1659 H   0  0  0  0  0  0  0  0  0  0  0  0
    4.4065    2.0417    0.2884 H   0  0  0  0  0  0  0  0  0  0  0  0
    4.1057   -0.3411    1.1155 H   0  0  0  0  0  0  0  0  0  0  0  0
    4.8915   -0.9463   -0.3634 H   0  0  0  0  0  0  0  0  0  0  0  0
    6.2536   -0.9678    2.7634 H   0  0  0  0  0  0  0  0  0  0  0  0
    6.2460   -1.9193    1.2424 H   0  0  0  0  0  0  0  0  0  0  0  0
    7.6771   -0.9577    1.6415 H   0  0  0  0  0  0  0  0  0  0  0  0
    8.0229    0.0772    0.2120 H   0  0  0  0  0  0  0  0  0  0  0  0
    7.1524    1.6110   -0.0825 H   0  0  0  0  0  0  0  0  0  0  0  0
    6.7477    0.0744   -1.0149 H   0  0  0  0  0  0  0  0  0  0  0  0
    1.3397    0.9531   -2.8113 H   0  0  0  0  0  0  0  0  0  0  0  0
   -1.0696    0.5988   -2.4085 H   0  0  0  0  0  0  0  0  0  0  0  0
   -4.0123   -0.9784   -3.0914 H   0  0  0  0  0  0  0  0  0  0  0  0
   -3.0625   -2.4026   -4.8044 H   0  0  0  0  0  0  0  0  0  0  0  0
   -0.9558   -3.6626   -4.4307 H   0  0  0  0  0  0  0  0  0  0  0  0
    0.1800   -3.4232   -2.2094 H   0  0  0  0  0  0  0  0  0  0  0  0
   -0.7418   -2.0046   -0.4503 H   0  0  0  0  0  0  0  0  0  0  0  0
  1  2  1  0
  2  3  1  0
  3  4  2  0
  4  5  1  0
  5  6  2  0
  6  7  1  0
  7  8  2  0
  8  9  1  0
  8 10  1  0
 10 11  2  0
  4 12  1  0
 12 13  2  0
 13 14  1  0
 14 15  2  0
 15 16  1  0
 16 17  1  0
 17 18  1  0
 18 19  1  0
 19 20  1  0
 19 21  1  0
 15 22  1  0
 22 23  2  0
  3 24  1  0
 24 25  2  0
 25 26  1  0
 26 27  2  0
 27 28  1  0
 28 29  2  0
 11  5  1  0
 23 12  1  0
 29 24  1  0
  1 30  1  0
  1 31  1  0
  1 32  1  0
  2 33  1  0
  2 34  1  0
  6 35  1  0
  7 36  1  0
  9 37  1  0
 10 38  1  0
 11 39  1  0
 13 40  1  0
 14 41  1  0
 17 42  1  0
 17 43  1  0
 18 44  1  0
 18 45  1  0
 20 46  1  0
 20 47  1  0
 20 48  1  0
 21 49  1  0
 21 50  1  0
 21 51  1  0
 22 52  1  0
 23 53  1  0
 25 54  1  0
 26 55  1  0
 27 56  1  0
 28 57  1  0
 29 58  1  0
M  END
$$$$
