
     RDKit          3D

 35 36  0  0  0  0  0  0  0  0999 V2000
   -5.9974   -1.4699    1.4611 C   0  0  0  0  0  0  0  0  0  0  0  0
   -5.7267   -1.0299    0.1318 O   0  0  0  0  0  0  0  0  0  0  0  0
   -4.4362   -0.7100   -0.2543 C   0  0  0  0  0  0  0  0  0  0  0  0
   -4.2186   -0.2903   -1.5453 C   0  0  0  0  0  0  0  0  0  0  0  0
   -2.9446    0.0250   -1.9244 C   0  0  0  0  0  0  0  0  0  0  0  0
   -1.8573   -0.0567   -1.0720 C   0  0  0  0  0  0  0  0  0  0  0  0
   -0.5327    0.2923   -1.5348 C   0  0  0  0  0  0  0  0  0  0  0  0
   -0.3957    0.6713   -2.7232 O   0  0  0  0  0  0  0  0  0  0  0  0
    0.6511    0.2095   -0.6348 C   0  0  0  0  0  0  0  0  0  0  0  0
    1.8381    0.5251   -1.0541 C   0  0  0  0  0  0  0  0  0  0  0  0
    3.1199    0.5349   -0.3887 C   0  0  0  0  0  0  0  0  0  0  0  0
    4.2538    0.5844   -1.2394 C   0  0  0  0  0  0  0  0  0  0  0  0
    5.5407    0.6609   -0.8264 C   0  0  0  0  0  0  0  0  0  0  0  0
    5.7633    0.6933    0.5304 C   0  0  0  0  0  0  0  0  0  0  0  0
    4.7107    0.6498    1.4193 C   0  0  0  0  0  0  0  0  0  0  0  0
    3.3817    0.5708    0.9491 C   0  0  0  0  0  0  0  0  0  0  0  0
    2.3168    0.5595    1.9673 C   0  0  0  0  0  0  0  0  0  0  0  0
    1.3881    1.5579    1.8318 F   0  0  0  0  0  0  0  0  0  0  0  0
    2.9851    0.9012    3.2026 F   0  0  0  0  0  0  0  0  0  0  0  0
    1.8306   -0.6791    2.2284 F   0  0  0  0  0  0  0  0  0  0  0  0
   -2.0856   -0.4767    0.2140 C   0  0  0  0  0  0  0  0  0  0  0  0
   -3.3660   -0.7998    0.6159 C   0  0  0  0  0  0  0  0  0  0  0  0
   -7.0203   -1.8996    1.5290 H   0  0  0  0  0  0  0  0  0  0  0  0
   -5.2426   -2.2518    1.7478 H   0  0  0  0  0  0  0  0  0  0  0  0
   -5.8732   -0.6184    2.1307 H   0  0  0  0  0  0  0  0  0  0  0  0
   -5.0424   -0.2107   -2.2505 H   0  0  0  0  0  0  0  0  0  0  0  0
   -2.7497    0.3602   -2.9439 H   0  0  0  0  0  0  0  0  0  0  0  0
    0.5465   -0.1523    0.3513 H   0  0  0  0  0  0  0  0  0  0  0  0
    1.8204    0.8695   -2.1360 H   0  0  0  0  0  0  0  0  0  0  0  0
    4.0895    0.5562   -2.3137 H   0  0  0  0  0  0  0  0  0  0  0  0
    6.3842    0.6957   -1.5231 H   0  0  0  0  0  0  0  0  0  0  0  0
    6.8005    0.7543    0.8576 H   0  0  0  0  0  0  0  0  0  0  0  0
    4.9227    0.6746    2.4828 H   0  0  0  0  0  0  0  0  0  0  0  0
   -1.3087   -0.5725    0.9501 H   0  0  0  0  0  0  0  0  0  0  0  0
   -3.5461   -1.1290    1.6236 H   0  0  0  0  0  0  0  0  0  0  0  0
  1  2  1  0
  2  3  1  0
  3  4  2  0
  4  5  1  0
  5  6  2  0
  6  7  1  0
  7  8  2  0
  7  9  1  0
  9 10  2  0
 10 11  1  0
 11 12  2  0
 12 13  1  0
 13 14  2  0
 14 15  1  0
 15 16  2  0
 16 17  1  0
 17 18  1  0
 17 19  1  0
 17 20  1  0
  6 21  1  0
 21 22  2  0
 22  3  1  0
 16 11  1  0
  1 23  1  0
  1 24  1  0
  1 25  1  0
  4 26  1  0
  5 27  1  0
  9 28  1  0
 10 29  1  0
 12 30  1  0
 13 31  1  0
 14 32  1  0
 15 33  1  0
 21 34  1  0
 22 35  1  0
M  END
$$$$
