@<TRIPOS>MOLECULE
*****
 35 36 0 0 0
SMALL
GASTEIGER

@<TRIPOS>ATOM
      1 C          -5.9974   -1.4699    1.4611 C.3     1  UNL1        0.0788
      2 O          -5.7267   -1.0299    0.1318 O.3     1  UNL1       -0.4951
      3 C          -4.4362   -0.7100   -0.2543 C.ar    1  UNL1        0.1201
      4 C          -4.2186   -0.2903   -1.5453 C.ar    1  UNL1       -0.0193
      5 C          -2.9446    0.0250   -1.9244 C.ar    1  UNL1       -0.0475
      6 C          -1.8573   -0.0567   -1.0720 C.ar    1  UNL1        0.0219
      7 C          -0.5327    0.2923   -1.5348 C.2     1  UNL1        0.1861
      8 O          -0.3957    0.6713   -2.7232 O.2     1  UNL1       -0.2873
      9 C           0.6511    0.2095   -0.6348 C.2     1  UNL1       -0.0138
     10 C           1.8381    0.5251   -1.0541 C.2     1  UNL1       -0.0504
     11 C           3.1199    0.5349   -0.3887 C.ar    1  UNL1       -0.0133
     12 C           4.2538    0.5844   -1.2394 C.ar    1  UNL1       -0.0541
     13 C           5.5407    0.6609   -0.8264 C.ar    1  UNL1       -0.0612
     14 C           5.7633    0.6933    0.5304 C.ar    1  UNL1       -0.0612
     15 C           4.7107    0.6498    1.4193 C.ar    1  UNL1       -0.0495
     16 C           3.3817    0.5708    0.9491 C.ar    1  UNL1        0.0619
     17 C           2.3168    0.5595    1.9673 C.3     1  UNL1        0.4180
     18 F           1.3881    1.5579    1.8318 F       1  UNL1       -0.1659
     19 F           2.9851    0.9012    3.2026 F       1  UNL1       -0.1659
     20 F           1.8306   -0.6791    2.2284 F       1  UNL1       -0.1659
     21 C          -2.0856   -0.4767    0.2140 C.ar    1  UNL1       -0.0475
     22 C          -3.3660   -0.7998    0.6159 C.ar    1  UNL1       -0.0193
     23 H          -7.0203   -1.8996    1.5290 H       1  UNL1        0.0660
     24 H          -5.2426   -2.2518    1.7478 H       1  UNL1        0.0660
     25 H          -5.8732   -0.6184    2.1307 H       1  UNL1        0.0660
     26 H          -5.0424   -0.2107   -2.2505 H       1  UNL1        0.0654
     27 H          -2.7497    0.3602   -2.9439 H       1  UNL1        0.0626
     28 H           0.5465   -0.1523    0.3513 H       1  UNL1        0.0656
     29 H           1.8204    0.8695   -2.1360 H       1  UNL1        0.0625
     30 H           4.0895    0.5562   -2.3137 H       1  UNL1        0.0624
     31 H           6.3842    0.6957   -1.5231 H       1  UNL1        0.0618
     32 H           6.8005    0.7543    0.8576 H       1  UNL1        0.0618
     33 H           4.9227    0.6746    2.4828 H       1  UNL1        0.0623
     34 H          -1.3087   -0.5725    0.9501 H       1  UNL1        0.0626
     35 H          -3.5461   -1.1290    1.6236 H       1  UNL1        0.0654
@<TRIPOS>BOND
     1     1     2    1
     2     2     3    1
     3     3     4   ar
     4     4     5   ar
     5     5     6   ar
     6     6     7    1
     7     7     8    2
     8     7     9    1
     9     9    10    2
    10    10    11    1
    11    11    12   ar
    12    12    13   ar
    13    13    14   ar
    14    14    15   ar
    15    15    16   ar
    16    16    17    1
    17    17    18    1
    18    17    19    1
    19    17    20    1
    20     6    21   ar
    21    21    22   ar
    22    22     3   ar
    23    16    11   ar
    24     1    23    1
    25     1    24    1
    26     1    25    1
    27     4    26    1
    28     5    27    1
    29     9    28    1
    30    10    29    1
    31    12    30    1
    32    13    31    1
    33    14    32    1
    34    15    33    1
    35    21    34    1
    36    22    35    1
