
     RDKit          3D

 36 37  0  0  0  0  0  0  0  0999 V2000
    0.5710   -1.6573   -1.1554 C   0  0  1  0  0  0  0  0  0  0  0  0
    0.2608   -2.9936   -0.5798 C   0  0  0  0  0  0  0  0  0  0  0  0
   -0.8147   -3.5518   -1.2354 O   0  0  0  0  0  0  0  0  0  0  0  0
   -0.5193   -0.6390   -1.0826 C   0  0  0  0  0  0  0  0  0  0  0  0
   -0.9988   -0.2837    0.2850 C   0  0  0  0  0  0  0  0  0  0  0  0
   -2.0923    0.7448    0.2541 C   0  0  0  0  0  0  0  0  0  0  0  0
   -3.3978    0.2848    0.1788 C   0  0  0  0  0  0  0  0  0  0  0  0
   -4.4857    1.1073    0.1435 C   0  0  0  0  0  0  0  0  0  0  0  0
   -4.3061    2.4627    0.1833 C   0  0  0  0  0  0  0  0  0  0  0  0
   -3.0124    2.9466    0.2586 C   0  0  0  0  0  0  0  0  0  0  0  0
   -1.8926    2.1241    0.2955 C   0  0  0  0  0  0  0  0  0  0  0  0
    1.8522   -1.1257   -0.7313 N   0  0  0  0  0  0  0  0  0  0  0  0
    2.8988   -1.9814   -0.5675 C   0  0  0  0  0  0  0  0  0  0  0  0
    3.9669   -1.2632   -0.1750 N   0  0  0  0  0  0  0  0  0  0  0  0
    3.6276    0.0196   -0.0859 C   0  0  0  0  0  0  0  0  0  0  0  0
    2.3120    0.1051   -0.4320 C   0  0  0  0  0  0  0  0  0  0  0  0
    4.4865    1.1193    0.3036 C   0  0  0  0  0  0  0  0  0  0  0  0
    3.9772    2.4580    0.3547 N   0  0  0  0  0  0  0  0  0  0  0  0
    5.6734    0.8068    0.5824 O   0  0  0  0  0  0  0  0  0  0  0  0
    0.7039   -1.8482   -2.2627 H   0  0  0  0  0  0  0  0  0  0  0  0
    1.1288   -3.6467   -0.8236 H   0  0  0  0  0  0  0  0  0  0  0  0
    0.1825   -3.0087    0.5237 H   0  0  0  0  0  0  0  0  0  0  0  0
   -1.5246   -3.8875   -0.6225 H   0  0  0  0  0  0  0  0  0  0  0  0
   -1.3899   -0.9493   -1.6962 H   0  0  0  0  0  0  0  0  0  0  0  0
   -0.1302    0.2738   -1.5808 H   0  0  0  0  0  0  0  0  0  0  0  0
   -1.3563   -1.1177    0.8827 H   0  0  0  0  0  0  0  0  0  0  0  0
   -0.1692    0.1836    0.8630 H   0  0  0  0  0  0  0  0  0  0  0  0
   -3.5841   -0.7715    0.1455 H   0  0  0  0  0  0  0  0  0  0  0  0
   -5.5098    0.7557    0.0846 H   0  0  0  0  0  0  0  0  0  0  0  0
   -5.1412    3.1415    0.1573 H   0  0  0  0  0  0  0  0  0  0  0  0
   -2.8513    4.0193    0.2910 H   0  0  0  0  0  0  0  0  0  0  0  0
   -0.8818    2.4572    0.3533 H   0  0  0  0  0  0  0  0  0  0  0  0
    3.0754   -3.0554   -0.6713 H   0  0  0  0  0  0  0  0  0  0  0  0
    1.6554    0.9579   -0.4901 H   0  0  0  0  0  0  0  0  0  0  0  0
    4.1657    2.7588    1.3434 H   0  0  0  0  0  0  0  0  0  0  0  0
    3.5197    3.0537   -0.3680 H   0  0  0  0  0  0  0  0  0  0  0  0
  1  2  1  0
  2  3  1  0
  1  4  1  0
  4  5  1  0
  5  6  1  0
  6  7  2  0
  7  8  1  0
  8  9  2  0
  9 10  1  0
 10 11  2  0
  1 12  1  0
 12 13  1  0
 13 14  2  0
 14 15  1  0
 15 16  2  0
 15 17  1  0
 17 18  1  0
 17 19  2  0
 11  6  1  0
 16 12  1  0
  1 20  1  6
  2 21  1  0
  2 22  1  0
  3 23  1  0
  4 24  1  0
  4 25  1  0
  5 26  1  0
  5 27  1  0
  7 28  1  0
  8 29  1  0
  9 30  1  0
 10 31  1  0
 11 32  1  0
 13 33  1  0
 16 34  1  0
 18 35  1  0
 18 36  1  0
M  END
$$$$
