@<TRIPOS>MOLECULE
*****
 36 37 0 0 0
SMALL
GASTEIGER

@<TRIPOS>ATOM
      1 C           0.5710   -1.6573   -1.1554 C.3     1  UNL1        0.0587
      2 C           0.2608   -2.9936   -0.5798 C.3     1  UNL1        0.0650
      3 O          -0.8147   -3.5518   -1.2354 O.3     1  UNL1       -0.3930
      4 C          -0.5193   -0.6390   -1.0826 C.3     1  UNL1       -0.0259
      5 C          -0.9988   -0.2837    0.2850 C.3     1  UNL1       -0.0257
      6 C          -2.0923    0.7448    0.2541 C.ar    1  UNL1       -0.0473
      7 C          -3.3978    0.2848    0.1788 C.ar    1  UNL1       -0.0586
      8 C          -4.4857    1.1073    0.1435 C.ar    1  UNL1       -0.0615
      9 C          -4.3061    2.4627    0.1833 C.ar    1  UNL1       -0.0617
     10 C          -3.0124    2.9466    0.2586 C.ar    1  UNL1       -0.0615
     11 C          -1.8926    2.1241    0.2955 C.ar    1  UNL1       -0.0586
     12 N           1.8522   -1.1257   -0.7313 N.ar    1  UNL1       -0.3308
     13 C           2.8988   -1.9814   -0.5675 C.ar    1  UNL1        0.0971
     14 N           3.9669   -1.2632   -0.1750 N.ar    1  UNL1       -0.2311
     15 C           3.6276    0.0196   -0.0859 C.ar    1  UNL1        0.1428
     16 C           2.3120    0.1051   -0.4320 C.ar    1  UNL1        0.0368
     17 C           4.4865    1.1193    0.3036 C.2     1  UNL1        0.2613
     18 N           3.9772    2.4580    0.3547 N.am    1  UNL1       -0.3240
     19 O           5.6734    0.8068    0.5824 O.2     1  UNL1       -0.2687
     20 H           0.7039   -1.8482   -2.2627 H       1  UNL1        0.0551
     21 H           1.1288   -3.6467   -0.8236 H       1  UNL1        0.0578
     22 H           0.1825   -3.0087    0.5237 H       1  UNL1        0.0578
     23 H          -1.5246   -3.8875   -0.6225 H       1  UNL1        0.2095
     24 H          -1.3899   -0.9493   -1.6962 H       1  UNL1        0.0289
     25 H          -0.1302    0.2738   -1.5808 H       1  UNL1        0.0289
     26 H          -1.3563   -1.1177    0.8827 H       1  UNL1        0.0314
     27 H          -0.1692    0.1836    0.8630 H       1  UNL1        0.0314
     28 H          -3.5841   -0.7715    0.1455 H       1  UNL1        0.0620
     29 H          -5.5098    0.7557    0.0846 H       1  UNL1        0.0618
     30 H          -5.1412    3.1415    0.1573 H       1  UNL1        0.0618
     31 H          -2.8513    4.0193    0.2910 H       1  UNL1        0.0618
     32 H          -0.8818    2.4572    0.3533 H       1  UNL1        0.0620
     33 H           3.0754   -3.0554   -0.6713 H       1  UNL1        0.1029
     34 H           1.6554    0.9579   -0.4901 H       1  UNL1        0.0833
     35 H           4.1657    2.7588    1.3434 H       1  UNL1        0.1453
     36 H           3.5197    3.0537   -0.3680 H       1  UNL1        0.1453
@<TRIPOS>BOND
     1     1     2    1
     2     2     3    1
     3     1     4    1
     4     4     5    1
     5     5     6    1
     6     6     7   ar
     7     7     8   ar
     8     8     9   ar
     9     9    10   ar
    10    10    11   ar
    11     1    12    1
    12    12    13   ar
    13    13    14   ar
    14    14    15   ar
    15    15    16   ar
    16    15    17    1
    17    17    18   am
    18    17    19    2
    19    11     6   ar
    20    16    12   ar
    21     1    20    1
    22     2    21    1
    23     2    22    1
    24     3    23    1
    25     4    24    1
    26     4    25    1
    27     5    26    1
    28     5    27    1
    29     7    28    1
    30     8    29    1
    31     9    30    1
    32    10    31    1
    33    11    32    1
    34    13    33    1
    35    16    34    1
    36    18    35    1
    37    18    36    1
