@<TRIPOS>MOLECULE
*****
 60 64 0 0 0
SMALL
GASTEIGER

@<TRIPOS>ATOM
      1 C          10.1709   -2.5358   -0.3796 C.3     1  UNL1        0.0788
      2 O           9.9031   -1.1996   -0.0738 O.3     1  UNL1       -0.4950
      3 C           8.6303   -0.6633    0.0485 C.ar    1  UNL1        0.1221
      4 C           7.4838   -1.3690   -0.1135 C.ar    1  UNL1       -0.0192
      5 C           6.2542   -0.7509    0.0275 C.ar    1  UNL1       -0.0485
      6 C           6.1469    0.5853    0.3333 C.ar    1  UNL1        0.0079
      7 C           5.0557    1.4726    0.5320 C.ar    1  UNL1        0.0146
      8 C           3.6990    0.9891    0.4544 C.2     1  UNL1       -0.0469
      9 C           2.5744    1.5924    0.3105 C.2     1  UNL1        0.0011
     10 C           1.2365    0.9539    0.2539 C.2     1  UNL1        0.2411
     11 O           0.2375    1.7154    0.1081 O.2     1  UNL1       -0.2705
     12 N           0.9978   -0.4206    0.3492 N.am    1  UNL1       -0.2820
     13 C          -0.2540   -1.0883    0.3022 C.ar    1  UNL1        0.0342
     14 C          -0.2377   -2.4820    0.4200 C.ar    1  UNL1       -0.0404
     15 C          -1.3785   -3.2352    0.3893 C.ar    1  UNL1       -0.0595
     16 C          -2.6267   -2.6189    0.2352 C.ar    1  UNL1       -0.0545
     17 C          -2.6680   -1.2515    0.1175 C.ar    1  UNL1       -0.0232
     18 C          -3.9196   -0.5338   -0.0453 C.2     1  UNL1       -0.0525
     19 C          -5.0934   -1.1052   -0.0939 C.2     1  UNL1       -0.0357
     20 C          -6.3555   -0.3942   -0.2571 C.ar    1  UNL1        0.0646
     21 C          -6.3897    0.9604   -0.3732 C.ar    1  UNL1       -0.0357
     22 C          -7.6282    1.5753   -0.5263 C.ar    1  UNL1       -0.0506
     23 C          -8.7767    0.8313   -0.5585 C.ar    1  UNL1        0.0005
     24 C         -10.0215    1.4497   -0.7125 C.ar    1  UNL1       -0.0512
     25 C         -11.1673    0.6778   -0.7421 C.ar    1  UNL1       -0.0427
     26 C         -11.0866   -0.7053   -0.6198 C.ar    1  UNL1        0.0430
     27 CL        -12.5065   -1.7287   -0.6509 Cl      1  UNL1       -0.0835
     28 C          -9.8440   -1.2767   -0.4699 C.ar    1  UNL1       -0.0174
     29 C          -8.6959   -0.5354   -0.4376 C.ar    1  UNL1        0.0730
     30 N          -7.4925   -1.1109   -0.2906 N.ar    1  UNL1       -0.2472
     31 C          -1.4736   -0.5222    0.1547 C.ar    1  UNL1       -0.0333
     32 CA          5.6375    2.6662    0.8085 C.ar    1  UNL1        0.1325
     33 C           5.0234    3.9140    1.1472 C.2     1  UNL1        0.3539
     34 O           5.8149    4.9176    1.3797 O.2     1  UNL1       -0.2435
     35 OXT         3.7144    4.2711    1.2842 O.3     1  UNL1       -0.4761
     36 N           7.0048    2.5543    0.7836 N.ar    1  UNL1       -0.3485
     37 C           7.3006    1.2900    0.4951 C.ar    1  UNL1        0.0511
     38 C           8.5572    0.6881    0.3578 C.ar    1  UNL1        0.0040
     39 H           9.4325   -3.1867    0.1486 H       1  UNL1        0.0660
     40 H          10.2080   -2.7709   -1.4427 H       1  UNL1        0.0660
     41 H          11.1848   -2.7801    0.0395 H       1  UNL1        0.0660
     42 H           7.5028   -2.4087   -0.3515 H       1  UNL1        0.0654
     43 H           5.3357   -1.3078   -0.1004 H       1  UNL1        0.0625
     44 H           3.5753   -0.1234    0.5517 H       1  UNL1        0.0626
     45 H           2.5733    2.6309    0.1690 H       1  UNL1        0.0670
     46 H           1.8829   -1.0097    0.4709 H       1  UNL1        0.1551
     47 H           0.7042   -2.9745    0.5386 H       1  UNL1        0.0636
     48 H          -1.4036   -4.3125    0.4773 H       1  UNL1        0.0618
     49 H          -3.5224   -3.2278    0.2125 H       1  UNL1        0.0623
     50 H          -3.9030    0.5658   -0.1359 H       1  UNL1        0.0624
     51 H          -5.1206   -2.2034   -0.0044 H       1  UNL1        0.0639
     52 H          -5.5462    1.6145   -0.3585 H       1  UNL1        0.0639
     53 H          -7.6944    2.6503   -0.6216 H       1  UNL1        0.0625
     54 H         -10.1011    2.5103   -0.8077 H       1  UNL1        0.0625
     55 H         -12.1487    1.0944   -0.8576 H       1  UNL1        0.0632
     56 H          -9.7806   -2.3460   -0.3753 H       1  UNL1        0.0653
     57 H          -1.5823    0.5417    0.0568 H       1  UNL1        0.0642
     58 HXT         3.4134    4.9004    2.0402 H       1  UNL1        0.2955
     59 H           7.7153    3.3087    0.9556 H       1  UNL1        0.1661
     60 H           9.4477    1.2573    0.4885 H       1  UNL1        0.0675
@<TRIPOS>BOND
     1     1     2    1
     2     2     3    1
     3     3     4   ar
     4     4     5   ar
     5     5     6   ar
     6     6     7   ar
     7     7     8    1
     8     8     9    2
     9     9    10    1
    10    10    11    2
    11    10    12   am
    12    12    13    1
    13    13    14   ar
    14    14    15   ar
    15    15    16   ar
    16    16    17   ar
    17    17    18    1
    18    18    19    2
    19    19    20    1
    20    20    21   ar
    21    21    22   ar
    22    22    23   ar
    23    23    24   ar
    24    24    25   ar
    25    25    26   ar
    26    26    27    1
    27    26    28   ar
    28    28    29   ar
    29    29    30   ar
    30    17    31   ar
    31     7    32   ar
    32    32    33    1
    33    33    34    2
    34    33    35    1
    35    32    36   ar
    36    36    37   ar
    37    37    38   ar
    38    38     3   ar
    39    37     6   ar
    40    31    13   ar
    41    30    20   ar
    42    29    23   ar
    43     1    39    1
    44     1    40    1
    45     1    41    1
    46     4    42    1
    47     5    43    1
    48     8    44    1
    49     9    45    1
    50    12    46    1
    51    14    47    1
    52    15    48    1
    53    16    49    1
    54    18    50    1
    55    19    51    1
    56    21    52    1
    57    22    53    1
    58    24    54    1
    59    25    55    1
    60    28    56    1
    61    31    57    1
    62    35    58    1
    63    36    59    1
    64    38    60    1
