
     RDKit          3D

 50 53  0  0  0  0  0  0  0  0999 V2000
   -1.4130   -2.6726   -0.6185 C   0  0  0  0  0  0  0  0  0  0  0  0
   -0.1478   -2.9171   -0.4991 C   0  0  0  0  0  0  0  0  0  0  0  0
    0.1858   -4.3859   -0.2084 C   0  0  0  0  0  0  0  0  0  0  0  0
    0.9763   -2.0005   -0.5351 C   0  0  0  0  0  0  0  0  0  0  0  0
    2.2786   -2.5234   -0.7315 C   0  0  0  0  0  0  0  0  0  0  0  0
    3.3348   -1.7050   -0.7943 N   0  0  0  0  0  0  0  0  0  0  0  0
    3.2441   -0.3695   -0.6798 C   0  0  0  0  0  0  0  0  0  0  0  0
    4.4549    0.4406   -0.7649 C   0  0  0  0  0  0  0  0  0  0  0  0
    4.4271    1.7926   -0.6568 C   0  0  0  0  0  0  0  0  0  0  0  0
    5.6001    2.5257   -0.7433 C   0  0  0  0  0  0  0  0  0  0  0  0
    5.6010    4.2790   -0.6077 Cl  0  0  0  0  0  0  0  0  0  0  0  0
    6.8316    1.9146   -0.9410 C   0  0  0  0  0  0  0  0  0  0  0  0
    6.8514    0.5477   -1.0493 C   0  0  0  0  0  0  0  0  0  0  0  0
    5.6807   -0.1628   -0.9613 C   0  0  0  0  0  0  0  0  0  0  0  0
    5.7466   -1.5178   -1.0743 F   0  0  0  0  0  0  0  0  0  0  0  0
    2.0055    0.1546   -0.4880 C   0  0  0  0  0  0  0  0  0  0  0  0
    0.8491   -0.6591   -0.4098 C   0  0  0  0  0  0  0  0  0  0  0  0
   -0.3950    0.0006   -0.1580 N   0  0  0  0  0  0  0  0  0  0  0  0
   -1.0106   -0.1922    1.1060 C   0  0  0  0  0  0  0  0  0  0  0  0
   -0.3397   -0.9723    2.0710 C   0  0  0  0  0  0  0  0  0  0  0  0
   -0.8692   -1.2112    3.3071 C   0  0  0  0  0  0  0  0  0  0  0  0
   -2.0660   -0.6704    3.5757 N   0  0  0  0  0  0  0  0  0  0  0  0
   -2.7368    0.0762    2.6898 C   0  0  0  0  0  0  0  0  0  0  0  0
   -2.2436    0.3440    1.4319 C   0  0  0  0  0  0  0  0  0  0  0  0
   -2.9872    1.1544    0.4768 C   0  0  0  0  0  0  0  0  0  0  0  0
   -2.6172    1.4291   -0.6710 O   0  0  0  0  0  0  0  0  0  0  0  0
   -4.2646    1.7173    0.8219 N   0  0  0  0  0  0  0  0  0  0  0  0
   -5.0283    2.5274   -0.1059 C   0  0  0  0  0  0  0  0  0  0  0  0
   -6.5096    2.2207   -0.0991 C   0  0  0  0  0  0  0  0  0  0  0  0
   -5.9486    3.5750    0.3394 C   0  0  0  0  0  0  0  0  0  0  0  0
   -2.1337   -3.4756   -0.5073 H   0  0  0  0  0  0  0  0  0  0  0  0
   -1.8243   -1.7237   -0.8688 H   0  0  0  0  0  0  0  0  0  0  0  0
    0.4866   -4.7899   -1.1962 H   0  0  0  0  0  0  0  0  0  0  0  0
   -0.6863   -4.9286    0.1460 H   0  0  0  0  0  0  0  0  0  0  0  0
    1.0394   -4.4569    0.4700 H   0  0  0  0  0  0  0  0  0  0  0  0
    2.3490   -3.5896   -0.8243 H   0  0  0  0  0  0  0  0  0  0  0  0
    3.5217    2.3601   -0.5023 H   0  0  0  0  0  0  0  0  0  0  0  0
    7.7417    2.5268   -1.0048 H   0  0  0  0  0  0  0  0  0  0  0  0
    7.7915    0.0271   -1.2044 H   0  0  0  0  0  0  0  0  0  0  0  0
    1.8633    1.2122   -0.3887 H   0  0  0  0  0  0  0  0  0  0  0  0
   -0.7453    0.5693   -0.9183 H   0  0  0  0  0  0  0  0  0  0  0  0
    0.6290   -1.3801    1.8031 H   0  0  0  0  0  0  0  0  0  0  0  0
   -0.3280   -1.8201    4.0371 H   0  0  0  0  0  0  0  0  0  0  0  0
   -3.6906    0.4758    2.9769 H   0  0  0  0  0  0  0  0  0  0  0  0
   -4.6791    1.5598    1.7494 H   0  0  0  0  0  0  0  0  0  0  0  0
   -4.5435    2.6674   -1.0835 H   0  0  0  0  0  0  0  0  0  0  0  0
   -6.9110    1.5476    0.7007 H   0  0  0  0  0  0  0  0  0  0  0  0
   -7.0800    2.2348   -1.0379 H   0  0  0  0  0  0  0  0  0  0  0  0
   -6.1503    3.8135    1.3910 H   0  0  0  0  0  0  0  0  0  0  0  0
   -6.1404    4.4303   -0.3445 H   0  0  0  0  0  0  0  0  0  0  0  0
  1  2  2  3
  2  3  1  0
  2  4  1  0
  4  5  2  0
  5  6  1  0
  6  7  2  0
  7  8  1  0
  8  9  2  0
  9 10  1  0
 10 11  1  0
 10 12  2  0
 12 13  1  0
 13 14  2  0
 14 15  1  0
  7 16  1  0
 16 17  2  0
 17 18  1  0
 18 19  1  0
 19 20  2  0
 20 21  1  0
 21 22  2  0
 22 23  1  0
 23 24  2  0
 24 25  1  0
 25 26  2  0
 25 27  1  0
 27 28  1  0
 28 29  1  0
 29 30  1  0
 17  4  1  0
 24 19  1  0
 30 28  1  0
 14  8  1  0
  1 31  1  0
  1 32  1  0
  3 33  1  0
  3 34  1  0
  3 35  1  0
  5 36  1  0
  9 37  1  0
 12 38  1  0
 13 39  1  0
 16 40  1  0
 18 41  1  0
 20 42  1  0
 21 43  1  0
 23 44  1  0
 27 45  1  0
 28 46  1  0
 29 47  1  0
 29 48  1  0
 30 49  1  0
 30 50  1  0
M  END
$$$$
