@<TRIPOS>MOLECULE
*****
 50 53 0 0 0
SMALL
GASTEIGER

@<TRIPOS>ATOM
      1 C          -1.4130   -2.6726   -0.6185 C.2     1  UNL1       -0.0951
      2 C          -0.1478   -2.9171   -0.4991 C.2     1  UNL1       -0.0472
      3 C           0.1858   -4.3859   -0.2084 C.3     1  UNL1       -0.0396
      4 C           0.9763   -2.0005   -0.5351 C.ar    1  UNL1        0.0166
      5 C           2.2786   -2.5234   -0.7315 C.ar    1  UNL1        0.0374
      6 N           3.3348   -1.7050   -0.7943 N.ar    1  UNL1       -0.2542
      7 C           3.2441   -0.3695   -0.6798 C.ar    1  UNL1        0.0755
      8 C           4.4549    0.4406   -0.7649 C.ar    1  UNL1        0.0369
      9 C           4.4271    1.7926   -0.6568 C.ar    1  UNL1       -0.0314
     10 C           5.6001    2.5257   -0.7433 C.ar    1  UNL1        0.0418
     11 CL          5.6010    4.2790   -0.6077 Cl      1  UNL1       -0.0835
     12 C           6.8316    1.9146   -0.9410 C.ar    1  UNL1       -0.0406
     13 C           6.8514    0.5477   -1.0493 C.ar    1  UNL1       -0.0244
     14 C           5.6807   -0.1628   -0.9613 C.ar    1  UNL1        0.1326
     15 F           5.7466   -1.5178   -1.0743 F       1  UNL1       -0.2048
     16 C           2.0055    0.1546   -0.4880 C.ar    1  UNL1       -0.0138
     17 C           0.8491   -0.6591   -0.4098 C.ar    1  UNL1        0.0423
     18 N          -0.3950    0.0006   -0.1580 N.pl3   1  UNL1       -0.3133
     19 C          -1.0106   -0.1922    1.1060 C.ar    1  UNL1        0.0465
     20 C          -0.3397   -0.9723    2.0710 C.ar    1  UNL1       -0.0217
     21 C          -0.8692   -1.2112    3.3071 C.ar    1  UNL1        0.0293
     22 N          -2.0660   -0.6704    3.5757 N.ar    1  UNL1       -0.2624
     23 C          -2.7368    0.0762    2.6898 C.ar    1  UNL1        0.0415
     24 C          -2.2436    0.3440    1.4319 C.ar    1  UNL1        0.0758
     25 C          -2.9872    1.1544    0.4768 C.2     1  UNL1        0.2476
     26 O          -2.6172    1.4291   -0.6710 O.2     1  UNL1       -0.2701
     27 N          -4.2646    1.7173    0.8219 N.am    1  UNL1       -0.3084
     28 C          -5.0283    2.5274   -0.1059 C.3     1  UNL1        0.0235
     29 C          -6.5096    2.2207   -0.0991 C.3     1  UNL1       -0.0328
     30 C          -5.9486    3.5750    0.3394 C.3     1  UNL1       -0.0328
     31 H          -2.1337   -3.4756   -0.5073 H       1  UNL1        0.0538
     32 H          -1.8243   -1.7237   -0.8688 H       1  UNL1        0.0538
     33 H           0.4866   -4.7899   -1.1962 H       1  UNL1        0.0278
     34 H          -0.6863   -4.9286    0.1460 H       1  UNL1        0.0278
     35 H           1.0394   -4.4569    0.4700 H       1  UNL1        0.0278
     36 H           2.3490   -3.5896   -0.8243 H       1  UNL1        0.0836
     37 H           3.5217    2.3601   -0.5023 H       1  UNL1        0.0639
     38 H           7.7417    2.5268   -1.0048 H       1  UNL1        0.0633
     39 H           7.7915    0.0271   -1.2044 H       1  UNL1        0.0647
     40 H           1.8633    1.2122   -0.3887 H       1  UNL1        0.0658
     41 H          -0.7453    0.5693   -0.9183 H       1  UNL1        0.1522
     42 H           0.6290   -1.3801    1.8031 H       1  UNL1        0.0651
     43 H          -0.3280   -1.8201    4.0371 H       1  UNL1        0.0830
     44 H          -3.6906    0.4758    2.9769 H       1  UNL1        0.0838
     45 H          -4.6791    1.5598    1.7494 H       1  UNL1        0.1493
     46 H          -4.5435    2.6674   -1.0835 H       1  UNL1        0.0498
     47 H          -6.9110    1.5476    0.7007 H       1  UNL1        0.0284
     48 H          -7.0800    2.2348   -1.0379 H       1  UNL1        0.0284
     49 H          -6.1503    3.8135    1.3910 H       1  UNL1        0.0284
     50 H          -6.1404    4.4303   -0.3445 H       1  UNL1        0.0284
@<TRIPOS>BOND
     1     1     2    2
     2     2     3    1
     3     2     4    1
     4     4     5   ar
     5     5     6   ar
     6     6     7   ar
     7     7     8    1
     8     8     9   ar
     9     9    10   ar
    10    10    11    1
    11    10    12   ar
    12    12    13   ar
    13    13    14   ar
    14    14    15    1
    15     7    16   ar
    16    16    17   ar
    17    17    18    1
    18    18    19    1
    19    19    20   ar
    20    20    21   ar
    21    21    22   ar
    22    22    23   ar
    23    23    24   ar
    24    24    25    1
    25    25    26    2
    26    25    27   am
    27    27    28    1
    28    28    29    1
    29    29    30    1
    30    17     4   ar
    31    24    19   ar
    32    30    28    1
    33    14     8   ar
    34     1    31    1
    35     1    32    1
    36     3    33    1
    37     3    34    1
    38     3    35    1
    39     5    36    1
    40     9    37    1
    41    12    38    1
    42    13    39    1
    43    16    40    1
    44    18    41    1
    45    20    42    1
    46    21    43    1
    47    23    44    1
    48    27    45    1
    49    28    46    1
    50    29    47    1
    51    29    48    1
    52    30    49    1
    53    30    50    1
