
     RDKit          3D

 59 63  0  0  0  0  0  0  0  0999 V2000
    1.7602   -4.2943    1.0125 C   0  0  0  0  0  0  0  0  0  0  0  0
    0.8759   -3.3501    0.4432 O   0  0  0  0  0  0  0  0  0  0  0  0
    1.3803   -2.1364    0.0445 C   0  0  0  0  0  0  0  0  0  0  0  0
    2.7236   -1.8214    0.1869 C   0  0  0  0  0  0  0  0  0  0  0  0
    3.2510   -0.6352   -0.1967 C   0  0  0  0  0  0  0  0  0  0  0  0
    4.5841   -0.2712   -0.0548 N   0  0  0  0  0  0  0  0  0  0  0  0
    5.2575    0.7810   -0.8044 C   0  0  0  0  0  0  0  0  0  0  0  0
    5.9206    1.7764    0.0986 C   0  0  0  0  0  0  0  0  0  0  0  0
    6.5598    1.1944    1.2351 N   0  0  0  0  0  0  0  0  0  0  0  0
    7.9761    1.0575    1.1428 C   0  0  0  0  0  0  0  0  0  0  0  0
    5.8681    0.1452    1.8867 C   0  0  0  0  0  0  0  0  0  0  0  0
    5.4274   -0.9399    0.9237 C   0  0  0  0  0  0  0  0  0  0  0  0
    2.3741    0.3125   -0.7678 C   0  0  0  0  0  0  0  0  0  0  0  0
    1.0393   -0.0249   -0.8988 C   0  0  0  0  0  0  0  0  0  0  0  0
    0.4974   -1.2193   -0.5146 C   0  0  0  0  0  0  0  0  0  0  0  0
   -0.8695   -1.5264   -0.6490 N   0  0  0  0  0  0  0  0  0  0  0  0
   -1.8150   -0.6482   -1.2467 C   0  0  0  0  0  0  0  0  0  0  0  0
   -1.4920   -0.0858   -2.4300 N   0  0  0  0  0  0  0  0  0  0  0  0
   -2.2942    0.7691   -3.0739 C   0  0  0  0  0  0  0  0  0  0  0  0
   -3.4970    1.0704   -2.4784 C   0  0  0  0  0  0  0  0  0  0  0  0
   -3.8235    0.5035   -1.2852 C   0  0  0  0  0  0  0  0  0  0  0  0
   -5.1182    0.8612   -0.6738 C   0  0  0  0  0  0  0  0  0  0  0  0
   -6.0512    1.7354   -1.1774 C   0  0  0  0  0  0  0  0  0  0  0  0
   -7.0618    1.7724   -0.3233 N   0  0  0  0  0  0  0  0  0  0  0  0
   -8.2747    2.5606   -0.4410 C   0  0  0  0  0  0  0  0  0  0  0  0
   -6.8206    0.9488    0.7265 C   0  0  0  0  0  0  0  0  0  0  0  0
   -7.5593    0.6472    1.8549 C   0  0  0  0  0  0  0  0  0  0  0  0
   -7.0366   -0.2297    2.7317 N   0  0  0  0  0  0  0  0  0  0  0  0
   -5.8421   -0.8126    2.5511 C   0  0  0  0  0  0  0  0  0  0  0  0
   -5.0850   -0.5280    1.4318 C   0  0  0  0  0  0  0  0  0  0  0  0
   -5.5814    0.3593    0.5158 C   0  0  0  0  0  0  0  0  0  0  0  0
   -2.9987   -0.3406   -0.6797 N   0  0  0  0  0  0  0  0  0  0  0  0
    1.2600   -5.2162    1.3353 H   0  0  0  0  0  0  0  0  0  0  0  0
    2.5357   -4.5625    0.2502 H   0  0  0  0  0  0  0  0  0  0  0  0
    2.2885   -3.8391    1.8581 H   0  0  0  0  0  0  0  0  0  0  0  0
    3.3790   -2.5731    0.6252 H   0  0  0  0  0  0  0  0  0  0  0  0
    6.0262    0.2448   -1.4188 H   0  0  0  0  0  0  0  0  0  0  0  0
    4.6134    1.3133   -1.5150 H   0  0  0  0  0  0  0  0  0  0  0  0
    6.6852    2.3273   -0.4879 H   0  0  0  0  0  0  0  0  0  0  0  0
    5.1551    2.5342    0.4235 H   0  0  0  0  0  0  0  0  0  0  0  0
    8.2823    1.0617    0.0625 H   0  0  0  0  0  0  0  0  0  0  0  0
    8.3852    0.1840    1.6593 H   0  0  0  0  0  0  0  0  0  0  0  0
    8.4447    1.9525    1.6118 H   0  0  0  0  0  0  0  0  0  0  0  0
    6.5509   -0.3271    2.6176 H   0  0  0  0  0  0  0  0  0  0  0  0
    5.0121    0.5787    2.4412 H   0  0  0  0  0  0  0  0  0  0  0  0
    6.3604   -1.2385    0.3632 H   0  0  0  0  0  0  0  0  0  0  0  0
    4.9749   -1.7703    1.4463 H   0  0  0  0  0  0  0  0  0  0  0  0
    2.6718    1.2711   -1.1023 H   0  0  0  0  0  0  0  0  0  0  0  0
    0.3854    0.7382   -1.3403 H   0  0  0  0  0  0  0  0  0  0  0  0
   -1.2254   -2.4431   -0.2986 H   0  0  0  0  0  0  0  0  0  0  0  0
   -2.0717    1.2395   -4.0189 H   0  0  0  0  0  0  0  0  0  0  0  0
   -4.1798    1.7655   -2.9772 H   0  0  0  0  0  0  0  0  0  0  0  0
   -5.9673    2.2894   -2.1058 H   0  0  0  0  0  0  0  0  0  0  0  0
   -8.0670    3.4898   -1.0165 H   0  0  0  0  0  0  0  0  0  0  0  0
   -9.0371    1.9345   -0.9648 H   0  0  0  0  0  0  0  0  0  0  0  0
   -8.6017    2.8357    0.5748 H   0  0  0  0  0  0  0  0  0  0  0  0
   -8.5214    1.1085    2.0134 H   0  0  0  0  0  0  0  0  0  0  0  0
   -5.5005   -1.5139    3.3198 H   0  0  0  0  0  0  0  0  0  0  0  0
   -4.1133   -1.0158    1.3035 H   0  0  0  0  0  0  0  0  0  0  0  0
  1  2  1  0
  2  3  1  0
  3  4  2  0
  4  5  1  0
  5  6  1  0
  6  7  1  0
  7  8  1  0
  8  9  1  0
  9 10  1  0
  9 11  1  0
 11 12  1  0
  5 13  2  0
 13 14  1  0
 14 15  2  0
 15 16  1  0
 16 17  1  0
 17 18  2  0
 18 19  1  0
 19 20  2  0
 20 21  1  0
 21 22  1  0
 22 23  2  0
 23 24  1  0
 24 25  1  0
 24 26  1  0
 26 27  2  0
 27 28  1  0
 28 29  2  0
 29 30  1  0
 30 31  2  0
 21 32  2  0
 15  3  1  0
 32 17  1  0
 12  6  1  0
 31 22  1  0
 31 26  1  0
  1 33  1  0
  1 34  1  0
  1 35  1  0
  4 36  1  0
  7 37  1  0
  7 38  1  0
  8 39  1  0
  8 40  1  0
 10 41  1  0
 10 42  1  0
 10 43  1  0
 11 44  1  0
 11 45  1  0
 12 46  1  0
 12 47  1  0
 13 48  1  0
 14 49  1  0
 16 50  1  0
 19 51  1  0
 20 52  1  0
 23 53  1  0
 25 54  1  0
 25 55  1  0
 25 56  1  0
 27 57  1  0
 29 58  1  0
 30 59  1  0
M  END
$$$$
