@<TRIPOS>MOLECULE
*****
 59 63 0 0 0
SMALL
GASTEIGER

@<TRIPOS>ATOM
      1 C           1.7602   -4.2943    1.0125 C.3     1  UNL1        0.0789
      2 O           0.8759   -3.3501    0.4432 O.3     1  UNL1       -0.4932
      3 C           1.3803   -2.1364    0.0445 C.ar    1  UNL1        0.1429
      4 C           2.7236   -1.8214    0.1869 C.ar    1  UNL1        0.0029
      5 C           3.2510   -0.6352   -0.1967 C.ar    1  UNL1        0.0334
      6 N           4.5841   -0.2712   -0.0548 N.pl3   1  UNL1       -0.3274
      7 C           5.2575    0.7810   -0.8044 C.3     1  UNL1        0.0250
      8 C           5.9206    1.7764    0.0986 C.3     1  UNL1        0.0144
      9 N           6.5598    1.1944    1.2351 N.3     1  UNL1       -0.3024
     10 C           7.9761    1.0575    1.1428 C.3     1  UNL1       -0.0126
     11 C           5.8681    0.1452    1.8867 C.3     1  UNL1        0.0144
     12 C           5.4274   -0.9399    0.9237 C.3     1  UNL1        0.0250
     13 C           2.3741    0.3125   -0.7678 C.ar    1  UNL1       -0.0387
     14 C           1.0393   -0.0249   -0.8988 C.ar    1  UNL1       -0.0351
     15 C           0.4974   -1.2193   -0.5146 C.ar    1  UNL1        0.0759
     16 N          -0.8695   -1.5264   -0.6490 N.pl3   1  UNL1       -0.2807
     17 C          -1.8150   -0.6482   -1.2467 C.ar    1  UNL1        0.2201
     18 N          -1.4920   -0.0858   -2.4300 N.ar    1  UNL1       -0.2226
     19 C          -2.2942    0.7691   -3.0739 C.ar    1  UNL1        0.0332
     20 C          -3.4970    1.0704   -2.4784 C.ar    1  UNL1       -0.0173
     21 C          -3.8235    0.5035   -1.2852 C.ar    1  UNL1        0.0780
     22 C          -5.1182    0.8612   -0.6738 C.ar    1  UNL1        0.0258
     23 C          -6.0512    1.7354   -1.1774 C.ar    1  UNL1        0.0146
     24 N          -7.0618    1.7724   -0.3233 N.ar    1  UNL1       -0.3479
     25 C          -8.2747    2.5606   -0.4410 C.3     1  UNL1        0.0119
     26 C          -6.8206    0.9488    0.7265 C.ar    1  UNL1        0.0678
     27 C          -7.5593    0.6472    1.8549 C.ar    1  UNL1        0.0516
     28 N          -7.0366   -0.2297    2.7317 N.ar    1  UNL1       -0.2612
     29 C          -5.8421   -0.8126    2.5511 C.ar    1  UNL1        0.0283
     30 C          -5.0850   -0.5280    1.4318 C.ar    1  UNL1       -0.0338
     31 C          -5.5814    0.3593    0.5158 C.ar    1  UNL1        0.0119
     32 N          -2.9987   -0.3406   -0.6797 N.ar    1  UNL1       -0.2142
     33 H           1.2600   -5.2162    1.3353 H       1  UNL1        0.0660
     34 H           2.5357   -4.5625    0.2502 H       1  UNL1        0.0660
     35 H           2.2885   -3.8391    1.8581 H       1  UNL1        0.0660
     36 H           3.3790   -2.5731    0.6252 H       1  UNL1        0.0673
     37 H           6.0262    0.2448   -1.4188 H       1  UNL1        0.0476
     38 H           4.6134    1.3133   -1.5150 H       1  UNL1        0.0476
     39 H           6.6852    2.3273   -0.4879 H       1  UNL1        0.0442
     40 H           5.1551    2.5342    0.4235 H       1  UNL1        0.0442
     41 H           8.2823    1.0617    0.0625 H       1  UNL1        0.0391
     42 H           8.3852    0.1840    1.6593 H       1  UNL1        0.0391
     43 H           8.4447    1.9525    1.6118 H       1  UNL1        0.0391
     44 H           6.5509   -0.3271    2.6176 H       1  UNL1        0.0442
     45 H           5.0121    0.5787    2.4412 H       1  UNL1        0.0442
     46 H           6.3604   -1.2385    0.3632 H       1  UNL1        0.0476
     47 H           4.9749   -1.7703    1.4463 H       1  UNL1        0.0476
     48 H           2.6718    1.2711   -1.1023 H       1  UNL1        0.0637
     49 H           0.3854    0.7382   -1.3403 H       1  UNL1        0.0638
     50 H          -1.2254   -2.4431   -0.2986 H       1  UNL1        0.1551
     51 H          -2.0717    1.2395   -4.0189 H       1  UNL1        0.0831
     52 H          -4.1798    1.7655   -2.9772 H       1  UNL1        0.0654
     53 H          -5.9673    2.2894   -2.1058 H       1  UNL1        0.0816
     54 H          -8.0670    3.4898   -1.0165 H       1  UNL1        0.0456
     55 H          -9.0371    1.9345   -0.9648 H       1  UNL1        0.0456
     56 H          -8.6017    2.8357    0.5748 H       1  UNL1        0.0456
     57 H          -8.5214    1.1085    2.0134 H       1  UNL1        0.0851
     58 H          -5.5005   -1.5139    3.3198 H       1  UNL1        0.0830
     59 H          -4.1133   -1.0158    1.3035 H       1  UNL1        0.0639
@<TRIPOS>BOND
     1     1     2    1
     2     2     3    1
     3     3     4   ar
     4     4     5   ar
     5     5     6    1
     6     6     7    1
     7     7     8    1
     8     8     9    1
     9     9    10    1
    10     9    11    1
    11    11    12    1
    12     5    13   ar
    13    13    14   ar
    14    14    15   ar
    15    15    16    1
    16    16    17    1
    17    17    18   ar
    18    18    19   ar
    19    19    20   ar
    20    20    21   ar
    21    21    22    1
    22    22    23   ar
    23    23    24   ar
    24    24    25    1
    25    24    26   ar
    26    26    27   ar
    27    27    28   ar
    28    28    29   ar
    29    29    30   ar
    30    30    31   ar
    31    21    32   ar
    32    15     3   ar
    33    32    17   ar
    34    12     6    1
    35    31    22   ar
    36    31    26   ar
    37     1    33    1
    38     1    34    1
    39     1    35    1
    40     4    36    1
    41     7    37    1
    42     7    38    1
    43     8    39    1
    44     8    40    1
    45    10    41    1
    46    10    42    1
    47    10    43    1
    48    11    44    1
    49    11    45    1
    50    12    46    1
    51    12    47    1
    52    13    48    1
    53    14    49    1
    54    16    50    1
    55    19    51    1
    56    20    52    1
    57    23    53    1
    58    25    54    1
    59    25    55    1
    60    25    56    1
    61    27    57    1
    62    29    58    1
    63    30    59    1
