@<TRIPOS>MOLECULE
*****
 87 93 0 0 0
SMALL
GASTEIGER

@<TRIPOS>ATOM
      1 C          12.3490   -0.3278   -1.4806 C.3     1  UNL1       -0.0634
      2 C          12.4719    0.4587   -0.1962 C.3     1  UNL1       -0.0334
      3 C          11.2262    1.3231    0.0323 C.3     1  UNL1        0.0548
      4 C          11.3648    2.0981    1.3142 C.3     1  UNL1       -0.0424
      5 N          10.1288    0.4093    0.1568 N.ar    1  UNL1       -0.2101
      6 N          10.1828   -0.7637    0.7709 N.ar    1  UNL1       -0.1566
      7 C           8.9804   -1.3119    0.6723 C.ar    1  UNL1        0.1251
      8 N           8.1222   -0.5236    0.0016 N.ar    1  UNL1       -0.2501
      9 C           8.8744    0.5455   -0.3062 C.ar    1  UNL1        0.3513
     10 O           8.4886    1.5580   -0.9419 O.2     1  UNL1       -0.2444
     11 C           6.7609   -0.8114   -0.2824 C.ar    1  UNL1        0.0525
     12 C           6.1471   -1.8379    0.4039 C.ar    1  UNL1       -0.0359
     13 C           4.8278   -2.1291    0.1361 C.ar    1  UNL1       -0.0387
     14 C           4.0410   -1.4691   -0.7825 C.ar    1  UNL1        0.0299
     15 C           4.6747   -0.4587   -1.4459 C.ar    1  UNL1       -0.0387
     16 C           6.0125   -0.1234   -1.2107 C.ar    1  UNL1       -0.0359
     17 N           2.6852   -1.7790   -1.0490 N.pl3   1  UNL1       -0.3269
     18 C           1.9137   -1.0913   -2.0678 C.3     1  UNL1        0.0280
     19 C           0.9129   -0.1707   -1.3770 C.3     1  UNL1        0.0280
     20 N           0.2555   -0.9701   -0.3311 N.pl3   1  UNL1       -0.3269
     21 C           0.5983   -2.2911    0.1503 C.3     1  UNL1        0.0280
     22 C           1.9255   -2.7939   -0.3517 C.3     1  UNL1        0.0280
     23 C          -0.8753   -0.3055    0.2619 C.ar    1  UNL1        0.0300
     24 C          -1.2218    0.9921   -0.0970 C.ar    1  UNL1       -0.0372
     25 C          -2.3412    1.5786    0.5142 C.ar    1  UNL1       -0.0182
     26 C          -3.1142    0.8958    1.4701 C.ar    1  UNL1        0.1207
     27 O          -4.1068    1.7329    1.8569 O.3     1  UNL1       -0.4893
     28 C          -5.1420    1.5299    2.7592 C.3     1  UNL1        0.1179
     29 C          -6.0474    0.4263    2.2687 C.3     1  UNL1        0.1195
     30 C          -7.2718    0.2842    3.1608 C.3     1  UNL1        0.0808
     31 O          -8.1815   -0.1316    2.1896 O.3     1  UNL1       -0.3406
     32 C          -7.9689    0.6629    1.0838 C.3     1  UNL1        0.2186
     33 C          -8.4842    2.0222    1.0751 C.3     1  UNL1        0.1018
     34 N          -9.8652    2.3026    1.1945 N.ar    1  UNL1       -0.2465
     35 C         -10.5818    2.4821    2.3450 C.ar    1  UNL1        0.1145
     36 N         -11.8349    2.7509    1.9354 N.ar    1  UNL1       -0.2228
     37 C         -11.9215    2.7455    0.6063 C.ar    1  UNL1        0.1379
     38 N         -10.7078    2.4694    0.1569 N.ar    1  UNL1       -0.1582
     39 O          -6.5372    0.8091    1.0501 O.3     1  UNL1       -0.3342
     40 C          -8.1984   -0.1940   -0.1062 C.ar    1  UNL1        0.0313
     41 C          -7.2539   -0.4073   -1.1213 C.ar    1  UNL1       -0.0507
     42 C          -7.4179   -1.1644   -2.2593 C.ar    1  UNL1       -0.0429
     43 C          -8.6197   -1.7751   -2.4272 C.ar    1  UNL1        0.0424
     44 CL         -8.8335   -2.7382   -3.8729 Cl      1  UNL1       -0.0835
     45 C          -9.5978   -1.6249   -1.4919 C.ar    1  UNL1       -0.0246
     46 C          -9.3847   -0.8546   -0.3656 C.ar    1  UNL1        0.0507
     47 CL        -10.6985   -0.7888    0.7536 Cl      1  UNL1       -0.0830
     48 C          -2.7153   -0.3801    1.7775 C.ar    1  UNL1       -0.0182
     49 C          -1.6263   -0.9816    1.1979 C.ar    1  UNL1       -0.0372
     50 H          13.3527   -0.5236   -1.9291 H       1  UNL1        0.0230
     51 H          11.8479   -1.3036   -1.3282 H       1  UNL1        0.0230
     52 H          11.7712    0.2260   -2.2689 H       1  UNL1        0.0230
     53 H          13.3504    1.1221   -0.1840 H       1  UNL1        0.0283
     54 H          12.4820   -0.2759    0.6499 H       1  UNL1        0.0283
     55 H          11.0458    1.9925   -0.8490 H       1  UNL1        0.0544
     56 H          11.0354    1.4522    2.1578 H       1  UNL1        0.0250
     57 H          12.4286    2.4026    1.4017 H       1  UNL1        0.0250
     58 H          10.7136    2.9977    1.2887 H       1  UNL1        0.0250
     59 H           8.8024   -2.3001    1.1201 H       1  UNL1        0.1052
     60 H           6.7171   -2.3859    1.1335 H       1  UNL1        0.0639
     61 H           4.4201   -2.9438    0.7121 H       1  UNL1        0.0637
     62 H           4.2138    0.1645   -2.1977 H       1  UNL1        0.0637
     63 H           6.4961    0.6881   -1.7552 H       1  UNL1        0.0639
     64 H           2.4859   -0.6074   -2.8484 H       1  UNL1        0.0479
     65 H           1.2756   -1.8615   -2.5941 H       1  UNL1        0.0479
     66 H           1.4449    0.6941   -0.9544 H       1  UNL1        0.0479
     67 H           0.1811    0.1089   -2.1644 H       1  UNL1        0.0479
     68 H          -0.2434   -2.9498   -0.1628 H       1  UNL1        0.0479
     69 H           0.5697   -2.2622    1.2713 H       1  UNL1        0.0479
     70 H           1.7063   -3.5853   -1.1146 H       1  UNL1        0.0479
     71 H           2.4409   -3.2194    0.5317 H       1  UNL1        0.0479
     72 H          -0.6129    1.5214   -0.8447 H       1  UNL1        0.0637
     73 H          -2.4798    2.5941    0.1267 H       1  UNL1        0.0655
     74 H          -4.7460    1.2952    3.7889 H       1  UNL1        0.0723
     75 H          -5.7767    2.4588    2.8737 H       1  UNL1        0.0723
     76 H          -5.5610   -0.5579    2.2250 H       1  UNL1        0.0654
     77 H          -7.1397   -0.4870    3.9459 H       1  UNL1        0.0588
     78 H          -7.4705    1.2908    3.5660 H       1  UNL1        0.0588
     79 H          -8.0038    2.6033    1.9296 H       1  UNL1        0.0567
     80 H          -8.0066    2.5645    0.1942 H       1  UNL1        0.0567
     81 H         -10.1797    2.4117    3.3592 H       1  UNL1        0.1044
     82 H         -12.7912    2.9262   -0.0156 H       1  UNL1        0.1065
     83 H          -6.2778    0.0866   -0.9880 H       1  UNL1        0.0623
     84 H          -6.6017   -1.2419   -2.9597 H       1  UNL1        0.0632
     85 H         -10.5384   -2.1397   -1.6849 H       1  UNL1        0.0647
     86 H          -3.3158   -0.8504    2.5123 H       1  UNL1        0.0655
     87 H          -1.4311   -1.9843    1.5329 H       1  UNL1        0.0637
@<TRIPOS>BOND
     1     1     2    1
     2     2     3    1
     3     3     4    1
     4     3     5    1
     5     5     6   ar
     6     6     7   ar
     7     7     8   ar
     8     8     9   ar
     9     9    10    2
    10     8    11    1
    11    11    12   ar
    12    12    13   ar
    13    13    14   ar
    14    14    15   ar
    15    15    16   ar
    16    14    17    1
    17    17    18    1
    18    18    19    1
    19    19    20    1
    20    20    21    1
    21    21    22    1
    22    20    23    1
    23    23    24   ar
    24    24    25   ar
    25    25    26   ar
    26    26    27    1
    27    27    28    1
    28    28    29    1
    29    29    30    1
    30    30    31    1
    31    31    32    1
    32    32    33    1
    33    33    34    1
    34    34    35   ar
    35    35    36   ar
    36    36    37   ar
    37    37    38   ar
    38    32    39    1
    39    32    40    1
    40    40    41   ar
    41    41    42   ar
    42    42    43   ar
    43    43    44    1
    44    43    45   ar
    45    45    46   ar
    46    46    47    1
    47    26    48   ar
    48    48    49   ar
    49     9     5   ar
    50    16    11   ar
    51    22    17    1
    52    49    23   ar
    53    39    29    1
    54    46    40   ar
    55    38    34   ar
    56     1    50    1
    57     1    51    1
    58     1    52    1
    59     2    53    1
    60     2    54    1
    61     3    55    1
    62     4    56    1
    63     4    57    1
    64     4    58    1
    65     7    59    1
    66    12    60    1
    67    13    61    1
    68    15    62    1
    69    16    63    1
    70    18    64    1
    71    18    65    1
    72    19    66    1
    73    19    67    1
    74    21    68    1
    75    21    69    1
    76    22    70    1
    77    22    71    1
    78    24    72    1
    79    25    73    1
    80    28    74    1
    81    28    75    1
    82    29    76    1
    83    30    77    1
    84    30    78    1
    85    33    79    1
    86    33    80    1
    87    35    81    1
    88    37    82    1
    89    41    83    1
    90    42    84    1
    91    45    85    1
    92    48    86    1
    93    49    87    1
