
     RDKit          3D

 87 93  0  0  0  0  0  0  0  0999 V2000
   12.3490   -0.3278   -1.4806 C   0  0  0  0  0  0  0  0  0  0  0  0
   12.4719    0.4587   -0.1962 C   0  0  0  0  0  0  0  0  0  0  0  0
   11.2262    1.3231    0.0323 C   0  0  0  0  0  0  0  0  0  0  0  0
   11.3648    2.0981    1.3142 C   0  0  0  0  0  0  0  0  0  0  0  0
   10.1288    0.4093    0.1568 N   0  0  0  0  0  0  0  0  0  0  0  0
   10.1828   -0.7637    0.7709 N   0  0  0  0  0  0  0  0  0  0  0  0
    8.9804   -1.3119    0.6723 C   0  0  0  0  0  0  0  0  0  0  0  0
    8.1222   -0.5236    0.0016 N   0  0  0  0  0  0  0  0  0  0  0  0
    8.8744    0.5455   -0.3062 C   0  0  0  0  0  0  0  0  0  0  0  0
    8.4886    1.5580   -0.9419 O   0  0  0  0  0  0  0  0  0  0  0  0
    6.7609   -0.8114   -0.2824 C   0  0  0  0  0  0  0  0  0  0  0  0
    6.1471   -1.8379    0.4039 C   0  0  0  0  0  0  0  0  0  0  0  0
    4.8278   -2.1291    0.1361 C   0  0  0  0  0  0  0  0  0  0  0  0
    4.0410   -1.4691   -0.7825 C   0  0  0  0  0  0  0  0  0  0  0  0
    4.6747   -0.4587   -1.4459 C   0  0  0  0  0  0  0  0  0  0  0  0
    6.0125   -0.1234   -1.2107 C   0  0  0  0  0  0  0  0  0  0  0  0
    2.6852   -1.7790   -1.0490 N   0  0  0  0  0  0  0  0  0  0  0  0
    1.9137   -1.0913   -2.0678 C   0  0  0  0  0  0  0  0  0  0  0  0
    0.9129   -0.1707   -1.3770 C   0  0  0  0  0  0  0  0  0  0  0  0
    0.2555   -0.9701   -0.3311 N   0  0  0  0  0  0  0  0  0  0  0  0
    0.5983   -2.2911    0.1503 C   0  0  0  0  0  0  0  0  0  0  0  0
    1.9255   -2.7939   -0.3517 C   0  0  0  0  0  0  0  0  0  0  0  0
   -0.8753   -0.3055    0.2619 C   0  0  0  0  0  0  0  0  0  0  0  0
   -1.2218    0.9921   -0.0970 C   0  0  0  0  0  0  0  0  0  0  0  0
   -2.3412    1.5786    0.5142 C   0  0  0  0  0  0  0  0  0  0  0  0
   -3.1142    0.8958    1.4701 C   0  0  0  0  0  0  0  0  0  0  0  0
   -4.1068    1.7329    1.8569 O   0  0  0  0  0  0  0  0  0  0  0  0
   -5.1420    1.5299    2.7592 C   0  0  0  0  0  0  0  0  0  0  0  0
   -6.0474    0.4263    2.2687 C   0  0  1  0  0  0  0  0  0  0  0  0
   -7.2718    0.2842    3.1608 C   0  0  0  0  0  0  0  0  0  0  0  0
   -8.1815   -0.1316    2.1896 O   0  0  0  0  0  0  0  0  0  0  0  0
   -7.9689    0.6629    1.0838 C   0  0  1  0  0  0  0  0  0  0  0  0
   -8.4842    2.0222    1.0751 C   0  0  0  0  0  0  0  0  0  0  0  0
   -9.8652    2.3026    1.1945 N   0  0  0  0  0  0  0  0  0  0  0  0
  -10.5818    2.4821    2.3450 C   0  0  0  0  0  0  0  0  0  0  0  0
  -11.8349    2.7509    1.9354 N   0  0  0  0  0  0  0  0  0  0  0  0
  -11.9215    2.7455    0.6063 C   0  0  0  0  0  0  0  0  0  0  0  0
  -10.7078    2.4694    0.1569 N   0  0  0  0  0  0  0  0  0  0  0  0
   -6.5372    0.8091    1.0501 O   0  0  0  0  0  0  0  0  0  0  0  0
   -8.1984   -0.1940   -0.1062 C   0  0  0  0  0  0  0  0  0  0  0  0
   -7.2539   -0.4073   -1.1213 C   0  0  0  0  0  0  0  0  0  0  0  0
   -7.4179   -1.1644   -2.2593 C   0  0  0  0  0  0  0  0  0  0  0  0
   -8.6197   -1.7751   -2.4272 C   0  0  0  0  0  0  0  0  0  0  0  0
   -8.8335   -2.7382   -3.8729 Cl  0  0  0  0  0  0  0  0  0  0  0  0
   -9.5978   -1.6249   -1.4919 C   0  0  0  0  0  0  0  0  0  0  0  0
   -9.3847   -0.8546   -0.3656 C   0  0  0  0  0  0  0  0  0  0  0  0
  -10.6985   -0.7888    0.7536 Cl  0  0  0  0  0  0  0  0  0  0  0  0
   -2.7153   -0.3801    1.7775 C   0  0  0  0  0  0  0  0  0  0  0  0
   -1.6263   -0.9816    1.1979 C   0  0  0  0  0  0  0  0  0  0  0  0
   13.3527   -0.5236   -1.9291 H   0  0  0  0  0  0  0  0  0  0  0  0
   11.8479   -1.3036   -1.3282 H   0  0  0  0  0  0  0  0  0  0  0  0
   11.7712    0.2260   -2.2689 H   0  0  0  0  0  0  0  0  0  0  0  0
   13.3504    1.1221   -0.1840 H   0  0  0  0  0  0  0  0  0  0  0  0
   12.4820   -0.2759    0.6499 H   0  0  0  0  0  0  0  0  0  0  0  0
   11.0458    1.9925   -0.8490 H   0  0  0  0  0  0  0  0  0  0  0  0
   11.0354    1.4522    2.1578 H   0  0  0  0  0  0  0  0  0  0  0  0
   12.4286    2.4026    1.4017 H   0  0  0  0  0  0  0  0  0  0  0  0
   10.7136    2.9977    1.2887 H   0  0  0  0  0  0  0  0  0  0  0  0
    8.8024   -2.3001    1.1201 H   0  0  0  0  0  0  0  0  0  0  0  0
    6.7171   -2.3859    1.1335 H   0  0  0  0  0  0  0  0  0  0  0  0
    4.4201   -2.9438    0.7121 H   0  0  0  0  0  0  0  0  0  0  0  0
    4.2138    0.1645   -2.1977 H   0  0  0  0  0  0  0  0  0  0  0  0
    6.4961    0.6881   -1.7552 H   0  0  0  0  0  0  0  0  0  0  0  0
    2.4859   -0.6074   -2.8484 H   0  0  0  0  0  0  0  0  0  0  0  0
    1.2756   -1.8615   -2.5941 H   0  0  0  0  0  0  0  0  0  0  0  0
    1.4449    0.6941   -0.9544 H   0  0  0  0  0  0  0  0  0  0  0  0
    0.1811    0.1089   -2.1644 H   0  0  0  0  0  0  0  0  0  0  0  0
   -0.2434   -2.9498   -0.1628 H   0  0  0  0  0  0  0  0  0  0  0  0
    0.5697   -2.2622    1.2713 H   0  0  0  0  0  0  0  0  0  0  0  0
    1.7063   -3.5853   -1.1146 H   0  0  0  0  0  0  0  0  0  0  0  0
    2.4409   -3.2194    0.5317 H   0  0  0  0  0  0  0  0  0  0  0  0
   -0.6129    1.5214   -0.8447 H   0  0  0  0  0  0  0  0  0  0  0  0
   -2.4798    2.5941    0.1267 H   0  0  0  0  0  0  0  0  0  0  0  0
   -4.7460    1.2952    3.7889 H   0  0  0  0  0  0  0  0  0  0  0  0
   -5.7767    2.4588    2.8737 H   0  0  0  0  0  0  0  0  0  0  0  0
   -5.5610   -0.5579    2.2250 H   0  0  0  0  0  0  0  0  0  0  0  0
   -7.1397   -0.4870    3.9459 H   0  0  0  0  0  0  0  0  0  0  0  0
   -7.4705    1.2908    3.5660 H   0  0  0  0  0  0  0  0  0  0  0  0
   -8.0038    2.6033    1.9296 H   0  0  0  0  0  0  0  0  0  0  0  0
   -8.0066    2.5645    0.1942 H   0  0  0  0  0  0  0  0  0  0  0  0
  -10.1797    2.4117    3.3592 H   0  0  0  0  0  0  0  0  0  0  0  0
  -12.7912    2.9262   -0.0156 H   0  0  0  0  0  0  0  0  0  0  0  0
   -6.2778    0.0866   -0.9880 H   0  0  0  0  0  0  0  0  0  0  0  0
   -6.6017   -1.2419   -2.9597 H   0  0  0  0  0  0  0  0  0  0  0  0
  -10.5384   -2.1397   -1.6849 H   0  0  0  0  0  0  0  0  0  0  0  0
   -3.3158   -0.8504    2.5123 H   0  0  0  0  0  0  0  0  0  0  0  0
   -1.4311   -1.9843    1.5329 H   0  0  0  0  0  0  0  0  0  0  0  0
  1  2  1  0
  2  3  1  0
  3  4  1  0
  3  5  1  0
  5  6  1  0
  6  7  2  0
  7  8  1  0
  8  9  1  0
  9 10  2  0
  8 11  1  0
 11 12  2  0
 12 13  1  0
 13 14  2  0
 14 15  1  0
 15 16  2  0
 14 17  1  0
 17 18  1  0
 18 19  1  0
 19 20  1  0
 20 21  1  0
 21 22  1  0
 20 23  1  0
 23 24  2  0
 24 25  1  0
 25 26  2  0
 26 27  1  0
 27 28  1  0
 28 29  1  0
 29 30  1  0
 30 31  1  0
 31 32  1  0
 32 33  1  1
 33 34  1  0
 34 35  1  0
 35 36  2  0
 36 37  1  0
 37 38  2  0
 32 39  1  0
 32 40  1  0
 40 41  2  0
 41 42  1  0
 42 43  2  0
 43 44  1  0
 43 45  1  0
 45 46  2  0
 46 47  1  0
 26 48  1  0
 48 49  2  0
  9  5  1  0
 16 11  1  0
 22 17  1  0
 49 23  1  0
 39 29  1  0
 46 40  1  0
 38 34  1  0
  1 50  1  0
  1 51  1  0
  1 52  1  0
  2 53  1  0
  2 54  1  0
  3 55  1  0
  4 56  1  0
  4 57  1  0
  4 58  1  0
  7 59  1  0
 12 60  1  0
 13 61  1  0
 15 62  1  0
 16 63  1  0
 18 64  1  0
 18 65  1  0
 19 66  1  0
 19 67  1  0
 21 68  1  0
 21 69  1  0
 22 70  1  0
 22 71  1  0
 24 72  1  0
 25 73  1  0
 28 74  1  0
 28 75  1  0
 29 76  1  6
 30 77  1  0
 30 78  1  0
 33 79  1  0
 33 80  1  0
 35 81  1  0
 37 82  1  0
 41 83  1  0
 42 84  1  0
 45 85  1  0
 48 86  1  0
 49 87  1  0
M  END
$$$$
