@<TRIPOS>MOLECULE
*****
 36 38 0 0 0
SMALL
GASTEIGER

@<TRIPOS>ATOM
      1 C           0.3489   -1.2133    1.1699 C.3     1  UNL1        0.0058
      2 C          -0.3256   -0.0120    1.7961 C.3     1  UNL1       -0.0020
      3 C          -0.9729    0.8619    0.8092 C.ar    1  UNL1        0.0252
      4 C          -0.8281    0.9242   -0.5757 C.ar    1  UNL1       -0.0038
      5 C          -1.5321    1.8215   -1.3185 C.ar    1  UNL1       -0.0497
      6 C          -2.4042    2.6856   -0.6982 C.ar    1  UNL1        0.0031
      7 C          -2.5503    2.6280    0.6662 C.ar    1  UNL1        0.2489
      8 O          -3.3620    3.4445    1.1685 O.2     1  UNL1       -0.2679
      9 N          -1.8504    1.7404    1.3770 N.ar    1  UNL1       -0.3259
     10 C           0.1682   -0.0993   -1.0588 C.3     1  UNL1        0.0694
     11 N          -0.0213   -0.3965   -2.4624 N.3     1  UNL1       -0.3174
     12 C           1.5219    0.4952   -0.8615 C.3     1  UNL1       -0.0057
     13 C           2.2402    0.0731    0.3436 C.2     1  UNL1       -0.0736
     14 C           3.5066    0.8324    0.6303 C.3     1  UNL1       -0.0437
     15 C           1.8184   -0.8930    1.1198 C.2     1  UNL1       -0.0774
     16 C          -0.0881   -1.2996   -0.2279 C.2     1  UNL1       -0.0422
     17 C          -0.6711   -2.3308   -0.7769 C.2     1  UNL1       -0.0852
     18 C          -1.0054   -3.5983   -0.1211 C.3     1  UNL1       -0.0465
     19 H           0.2479   -2.1231    1.7673 H       1  UNL1        0.0392
     20 H           0.3818    0.5607    2.4309 H       1  UNL1        0.0336
     21 H          -1.1035   -0.4068    2.4915 H       1  UNL1        0.0336
     22 H          -1.3207    1.7596   -2.3883 H       1  UNL1        0.0623
     23 H          -2.9234    3.3673   -1.3706 H       1  UNL1        0.0672
     24 H          -2.0536    1.7988    2.4121 H       1  UNL1        0.1686
     25 H           0.4931    0.3197   -3.0237 H       1  UNL1        0.1193
     26 H          -1.0044   -0.3738   -2.7544 H       1  UNL1        0.1193
     27 H           1.4622    1.6225   -0.8238 H       1  UNL1        0.0334
     28 H           2.1770    0.3143   -1.7625 H       1  UNL1        0.0334
     29 H           3.8366    0.7373    1.6736 H       1  UNL1        0.0274
     30 H           4.3165    0.4821   -0.0629 H       1  UNL1        0.0274
     31 H           3.3360    1.9246    0.4563 H       1  UNL1        0.0274
     32 H           2.5634   -1.4413    1.7137 H       1  UNL1        0.0578
     33 H          -0.9585   -2.3084   -1.8099 H       1  UNL1        0.0570
     34 H          -2.1247   -3.7447   -0.1590 H       1  UNL1        0.0272
     35 H          -0.5816   -4.4542   -0.6946 H       1  UNL1        0.0272
     36 H          -0.7370   -3.6987    0.9246 H       1  UNL1        0.0272
@<TRIPOS>BOND
     1     1     2    1
     2     2     3    1
     3     3     4   ar
     4     4     5   ar
     5     5     6   ar
     6     6     7   ar
     7     7     8    2
     8     7     9   ar
     9     4    10    1
    10    10    11    1
    11    10    12    1
    12    12    13    1
    13    13    14    1
    14    13    15    2
    15    10    16    1
    16    16    17    2
    17    17    18    1
    18    15     1    1
    19    16     1    1
    20     9     3   ar
    21     1    19    1
    22     2    20    1
    23     2    21    1
    24     5    22    1
    25     6    23    1
    26     9    24    1
    27    11    25    1
    28    11    26    1
    29    12    27    1
    30    12    28    1
    31    14    29    1
    32    14    30    1
    33    14    31    1
    34    15    32    1
    35    17    33    1
    36    18    34    1
    37    18    35    1
    38    18    36    1
