@<TRIPOS>MOLECULE
*****
 51 54 0 0 0
SMALL
GASTEIGER

@<TRIPOS>ATOM
      1 C          -6.4501   -1.7481    1.7991 C.3     1  UNL1       -0.0636
      2 C          -5.3722   -1.4148    0.7967 C.3     1  UNL1       -0.0371
      3 C          -4.8770    0.0055    1.0865 C.3     1  UNL1        0.0275
      4 C          -5.9921    0.9873    0.9655 C.3     1  UNL1       -0.0342
      5 C          -6.2810    1.4802   -0.4089 C.3     1  UNL1       -0.0500
      6 C          -5.3385    1.0256   -1.4721 C.3     1  UNL1       -0.0370
      7 C          -3.9218    0.8480   -1.0484 C.3     1  UNL1        0.0167
      8 N          -3.7338    0.2751    0.2482 N.am    1  UNL1       -0.2789
      9 C          -2.4273   -0.0277    0.7132 C.2     1  UNL1        0.3389
     10 O          -2.2914   -0.5314    1.8565 O.2     1  UNL1       -0.2474
     11 N          -1.2749    0.2248   -0.0815 N.ar    1  UNL1       -0.1705
     12 C           0.0059   -0.0354    0.2889 C.ar    1  UNL1        0.0636
     13 C           0.8609    0.3352   -0.7244 C.ar    1  UNL1        0.1131
     14 C           2.3119    0.2029   -0.6806 C.ar    1  UNL1        0.0037
     15 C           3.1006    0.6030   -1.7500 C.ar    1  UNL1       -0.0519
     16 C           4.4736    0.4790   -1.7110 C.ar    1  UNL1       -0.0534
     17 C           5.1280   -0.0452   -0.6151 C.ar    1  UNL1       -0.0178
     18 C           6.5841   -0.1698   -0.5887 C.ar    1  UNL1       -0.0179
     19 C           7.1348   -1.2035    0.1259 C.ar    1  UNL1       -0.0540
     20 C           8.4798   -1.4112    0.2166 C.ar    1  UNL1       -0.0612
     21 C           9.3129   -0.5345   -0.4450 C.ar    1  UNL1       -0.0617
     22 C           8.7754    0.5156   -1.1719 C.ar    1  UNL1       -0.0612
     23 C           7.4154    0.7005   -1.2457 C.ar    1  UNL1       -0.0540
     24 C           4.3425   -0.4435    0.4493 C.ar    1  UNL1       -0.0534
     25 C           2.9668   -0.3211    0.4144 C.ar    1  UNL1       -0.0519
     26 N           0.0711    0.8162   -1.6948 N.ar    1  UNL1       -0.1291
     27 N          -1.2102    0.7439   -1.2952 N.ar    1  UNL1       -0.0565
     28 H          -6.3991   -1.0487    2.6498 H       1  UNL1        0.0230
     29 H          -7.4358   -1.7082    1.3054 H       1  UNL1        0.0230
     30 H          -6.3108   -2.7664    2.2218 H       1  UNL1        0.0230
     31 H          -4.5357   -2.1316    0.9149 H       1  UNL1        0.0280
     32 H          -5.7468   -1.4507   -0.2408 H       1  UNL1        0.0280
     33 H          -4.5436    0.0510    2.1710 H       1  UNL1        0.0501
     34 H          -5.8203    1.8865    1.6300 H       1  UNL1        0.0283
     35 H          -6.8956    0.5025    1.4249 H       1  UNL1        0.0283
     36 H          -6.3639    2.6060   -0.4226 H       1  UNL1        0.0266
     37 H          -7.2981    1.0830   -0.7065 H       1  UNL1        0.0266
     38 H          -5.3409    1.8354   -2.2641 H       1  UNL1        0.0280
     39 H          -5.7365    0.1320   -2.0245 H       1  UNL1        0.0280
     40 H          -3.4530    0.1471   -1.7820 H       1  UNL1        0.0465
     41 H          -3.3293    1.8066   -1.1306 H       1  UNL1        0.0465
     42 H           0.2888   -0.4660    1.2348 H       1  UNL1        0.0855
     43 H           2.5693    1.0125   -2.6027 H       1  UNL1        0.0624
     44 H           5.0754    0.7981   -2.5592 H       1  UNL1        0.0624
     45 H           6.4815   -1.9016    0.6525 H       1  UNL1        0.0624
     46 H           8.9146   -2.2333    0.7850 H       1  UNL1        0.0618
     47 H          10.3763   -0.6938   -0.3768 H       1  UNL1        0.0618
     48 H           9.4825    1.1613   -1.6633 H       1  UNL1        0.0618
     49 H           6.9991    1.5223   -1.8148 H       1  UNL1        0.0624
     50 H           4.8554   -0.8606    1.3227 H       1  UNL1        0.0624
     51 H           2.3733   -0.6401    1.2608 H       1  UNL1        0.0624
@<TRIPOS>BOND
     1     1     2    1
     2     2     3    1
     3     3     4    1
     4     4     5    1
     5     5     6    1
     6     6     7    1
     7     7     8    1
     8     8     9   am
     9     9    10    2
    10     9    11   am
    11    11    12   ar
    12    12    13   ar
    13    13    14    1
    14    14    15   ar
    15    15    16   ar
    16    16    17   ar
    17    17    18    1
    18    18    19   ar
    19    19    20   ar
    20    20    21   ar
    21    21    22   ar
    22    22    23   ar
    23    17    24   ar
    24    24    25   ar
    25    13    26   ar
    26    26    27   ar
    27     8     3    1
    28    27    11   ar
    29    25    14   ar
    30    23    18   ar
    31     1    28    1
    32     1    29    1
    33     1    30    1
    34     2    31    1
    35     2    32    1
    36     3    33    1
    37     4    34    1
    38     4    35    1
    39     5    36    1
    40     5    37    1
    41     6    38    1
    42     6    39    1
    43     7    40    1
    44     7    41    1
    45    12    42    1
    46    15    43    1
    47    16    44    1
    48    19    45    1
    49    20    46    1
    50    21    47    1
    51    22    48    1
    52    23    49    1
    53    24    50    1
    54    25    51    1
