@<TRIPOS>MOLECULE
*****
 76 81 0 0 0
SMALL
GASTEIGER

@<TRIPOS>ATOM
      1 C           4.4369   -5.3039   -1.4759 C.3     1  UNL1        0.0333
      2 C           3.5537   -4.5643   -0.5279 C.2     1  UNL1        0.3047
      3 O           2.9308   -5.1586    0.3827 O.2     1  UNL1       -0.2511
      4 O           3.4459   -3.2055   -0.6875 O.3     1  UNL1       -0.4498
      5 C           2.5809   -2.4490    0.2340 C.3     1  UNL1        0.2015
      6 C           1.5783   -1.8647   -0.6447 C.2     1  UNL1        0.3487
      7 O           1.6856   -1.9569   -1.9179 O.2     1  UNL1       -0.2466
      8 O           0.4585   -1.1876   -0.1911 O.3     1  UNL1       -0.4614
      9 C          -0.4198   -0.6892   -1.1999 C.3     1  UNL1        0.1013
     10 C          -1.6066    0.0740   -0.7164 C.3     1  UNL1        0.0452
     11 C          -1.5869    0.3118    0.7697 C.3     1  UNL1       -0.0384
     12 C          -1.5094   -0.9228    1.6120 C.3     1  UNL1       -0.0207
     13 C          -2.3753   -2.0451    1.1389 C.3     1  UNL1        0.0958
     14 C          -2.9732   -2.9453    2.2333 C.3     1  UNL1       -0.0333
     15 O          -1.9648   -2.8280    0.0350 O.3     1  UNL1       -0.3624
     16 C          -3.0191   -1.9264   -0.0630 C.3     1  UNL1        0.1147
     17 C          -2.8982   -0.7274   -0.9514 C.3     1  UNL1        0.0974
     18 O          -3.9330    0.1304   -0.5876 O.3     1  UNL1       -0.3669
     19 C          -4.0665    1.1987   -1.4598 C.3     1  UNL1        0.0942
     20 C          -3.6361    2.4663   -0.7090 C.3     1  UNL1        0.0142
     21 C          -2.1528    2.5641   -0.9321 C.3     1  UNL1        0.1147
     22 O          -1.4151    2.9955    0.1809 O.3     1  UNL1       -0.4575
     23 C          -1.8229    3.9565    1.0639 C.2     1  UNL1        0.3322
     24 O          -3.0016    4.4414    0.6994 O.2     1  UNL1       -0.2456
     25 C          -1.2667    4.5081    2.2569 C.2     1  UNL1        0.0225
     26 C          -0.1915    4.4174    2.9597 C.2     1  UNL1       -0.0548
     27 C           1.0859    3.8107    3.0741 C.2     1  UNL1       -0.0548
     28 C           1.9276    3.0213    2.4963 C.2     1  UNL1        0.0225
     29 C           2.0891    2.2489    1.2966 C.2     1  UNL1        0.3319
     30 O           1.3098    2.3211    0.3331 O.2     1  UNL1       -0.2456
     31 O           3.1045    1.3093    1.0060 O.3     1  UNL1       -0.4615
     32 C           3.2026    0.6188   -0.2523 C.3     1  UNL1        0.0931
     33 C           4.1623   -0.5318   -0.0063 C.3     1  UNL1       -0.0120
     34 C           3.5488   -1.5491    0.9275 C.3     1  UNL1        0.0070
     35 C           4.6192   -2.2829    1.6689 C.3     1  UNL1       -0.0584
     36 C          -1.7507    1.2849   -1.5594 C.3     1  UNL1        0.0498
     37 C          -0.6274    1.5921   -2.5232 C.3     1  UNL1       -0.0527
     38 C          -2.9908    1.1293   -2.4780 C.3     1  UNL1        0.1282
     39 C          -3.1812    1.8791   -3.6814 C.3     1  UNL1        0.0807
     40 O          -2.9698    0.4520   -3.6253 O.3     1  UNL1       -0.3649
     41 H           5.4991   -5.0870   -1.1802 H       1  UNL1        0.0342
     42 H           4.2734   -6.4035   -1.3837 H       1  UNL1        0.0342
     43 H           4.2672   -4.9350   -2.4991 H       1  UNL1        0.0342
     44 H           2.1561   -3.2133    0.9330 H       1  UNL1        0.0855
     45 H          -0.7287   -1.5842   -1.8027 H       1  UNL1        0.0704
     46 H           0.2382   -0.0216   -1.7769 H       1  UNL1        0.0704
     47 H          -0.7811    0.9648    1.1168 H       1  UNL1        0.0274
     48 H          -2.6070    0.7347    1.0026 H       1  UNL1        0.0274
     49 H          -0.4800   -1.2235    1.9070 H       1  UNL1        0.0294
     50 H          -1.9412   -0.6343    2.6264 H       1  UNL1        0.0294
     51 H          -3.6357   -2.3607    2.8939 H       1  UNL1        0.0258
     52 H          -2.1935   -3.4887    2.7708 H       1  UNL1        0.0258
     53 H          -3.6226   -3.7124    1.7431 H       1  UNL1        0.0258
     54 H          -3.9905   -2.4715   -0.2722 H       1  UNL1        0.0651
     55 H          -2.9680   -1.1211   -1.9801 H       1  UNL1        0.0630
     56 H          -5.0841    1.2915   -1.8507 H       1  UNL1        0.0627
     57 H          -4.2071    3.2897   -1.2359 H       1  UNL1        0.0327
     58 H          -3.9925    2.4752    0.3092 H       1  UNL1        0.0327
     59 H          -2.0135    3.3703   -1.7035 H       1  UNL1        0.0741
     60 H          -2.0638    5.2807    2.7141 H       1  UNL1        0.0689
     61 H          -0.3432    5.1521    3.8993 H       1  UNL1        0.0620
     62 H           1.6271    4.1424    4.1236 H       1  UNL1        0.0620
     63 H           2.8730    2.9499    3.2164 H       1  UNL1        0.0689
     64 H           2.3235    0.4564   -0.7888 H       1  UNL1        0.0697
     65 H           3.8337    1.3325   -0.8960 H       1  UNL1        0.0697
     66 H           5.1072   -0.1158    0.3560 H       1  UNL1        0.0302
     67 H           4.3157   -1.0220   -0.9844 H       1  UNL1        0.0302
     68 H           2.9581   -0.9728    1.6989 H       1  UNL1        0.0340
     69 H           5.5306   -1.6667    1.8198 H       1  UNL1        0.0234
     70 H           4.9221   -3.2338    1.1493 H       1  UNL1        0.0234
     71 H           4.2974   -2.6123    2.6893 H       1  UNL1        0.0234
     72 H          -0.5452    0.8907   -3.3687 H       1  UNL1        0.0237
     73 H          -0.9863    2.5490   -3.0370 H       1  UNL1        0.0237
     74 H           0.3134    1.9217   -2.0685 H       1  UNL1        0.0237
     75 H          -2.4698    2.3250   -4.3664 H       1  UNL1        0.0590
     76 H          -4.2429    2.1602   -3.9539 H       1  UNL1        0.0590
@<TRIPOS>BOND
     1     1     2    1
     2     2     3    2
     3     2     4    1
     4     4     5    1
     5     5     6    1
     6     6     7    2
     7     6     8    1
     8     8     9    1
     9     9    10    1
    10    10    11    1
    11    11    12    1
    12    12    13    1
    13    13    14    1
    14    13    15    1
    15    15    16    1
    16    16    17    1
    17    17    18    1
    18    18    19    1
    19    19    20    1
    20    20    21    1
    21    21    22    1
    22    22    23    1
    23    23    24    2
    24    23    25    1
    25    25    26    2
    26    26    27    1
    27    27    28    2
    28    28    29    1
    29    29    30    2
    30    29    31    1
    31    31    32    1
    32    32    33    1
    33    33    34    1
    34    34    35    1
    35    21    36    1
    36    36    37    1
    37    36    38    1
    38    38    39    1
    39    39    40    1
    40    34     5    1
    41    40    38    1
    42    17    10    1
    43    38    19    1
    44    36    10    1
    45    16    13    1
    46     1    41    1
    47     1    42    1
    48     1    43    1
    49     5    44    1
    50     9    45    1
    51     9    46    1
    52    11    47    1
    53    11    48    1
    54    12    49    1
    55    12    50    1
    56    14    51    1
    57    14    52    1
    58    14    53    1
    59    16    54    1
    60    17    55    1
    61    19    56    1
    62    20    57    1
    63    20    58    1
    64    21    59    1
    65    25    60    1
    66    26    61    1
    67    27    62    1
    68    28    63    1
    69    32    64    1
    70    32    65    1
    71    33    66    1
    72    33    67    1
    73    34    68    1
    74    35    69    1
    75    35    70    1
    76    35    71    1
    77    37    72    1
    78    37    73    1
    79    37    74    1
    80    39    75    1
    81    39    76    1
