@<TRIPOS>MOLECULE
*****
 51 54 0 0 0
SMALL
GASTEIGER

@<TRIPOS>ATOM
      1 C          10.6624    1.0206   -3.2884 C.3     1  UNL1       -0.0025
      2 C           9.3104    0.5840   -2.7768 C.1     1  UNL1       -0.1022
      3 C           8.2726    0.2492   -2.4009 C.1     1  UNL1       -0.0617
      4 C           6.9486   -0.1968   -1.8994 C.3     1  UNL1        0.1499
      5 O           6.3165    0.7633   -1.1081 O.3     1  UNL1       -0.4780
      6 C           4.9809    0.5238   -0.7093 C.ar    1  UNL1        0.1399
      7 C           4.3188   -0.6543   -1.1053 C.ar    1  UNL1       -0.0162
      8 C           3.0470   -0.9189   -0.7549 C.ar    1  UNL1       -0.0277
      9 C           2.3098    0.0894    0.0948 C.ar    1  UNL1        0.1259
     10 C           1.0085   -0.3667    0.4818 C.2     1  UNL1        0.2666
     11 O           0.3350   -1.1048   -0.3735 O.2     1  UNL1       -0.2682
     12 N           0.3432   -0.1314    1.6999 N.am    1  UNL1       -0.2802
     13 C          -0.9670   -0.6946    1.7396 C.ar    1  UNL1        0.0342
     14 C          -1.2247   -1.9697    2.0644 C.ar    1  UNL1       -0.0377
     15 C          -2.5235   -2.5121    1.9774 C.ar    1  UNL1       -0.0243
     16 C          -3.5146   -1.6813    1.5494 C.ar    1  UNL1        0.1291
     17 F          -4.7798   -2.1520    1.4458 F       1  UNL1       -0.2051
     18 C          -3.2876   -0.3601    1.2055 C.ar    1  UNL1        0.0198
     19 C          -4.3991    0.5415    0.6812 C.3     1  UNL1        0.1284
     20 C          -3.7560    1.9155    0.4524 C.3     1  UNL1        0.1199
     21 F          -4.7113    2.7937   -0.0111 F       1  UNL1       -0.2462
     22 N          -4.8809    0.0001   -0.5425 N.2     1  UNL1       -0.2225
     23 C          -6.0520   -0.5306   -0.7596 C.2     1  UNL1        0.2763
     24 N          -6.2360   -0.9936   -2.1393 N.pl3   1  UNL1       -0.3134
     25 O          -6.9653   -0.6100    0.2044 O.2     1  UNL1       -0.4622
     26 C          -6.7314   -0.0788    1.4885 C.3     1  UNL1        0.1090
     27 C          -6.6770    1.3945    1.5787 C.3     1  UNL1       -0.0065
     28 C          -5.4594    0.6119    1.7420 C.3     1  UNL1        0.0315
     29 C          -2.0133    0.1266    1.3042 C.ar    1  UNL1       -0.0322
     30 N           3.0247    1.0683    0.3583 N.ar    1  UNL1       -0.2467
     31 C           4.2751    1.4345    0.0711 C.ar    1  UNL1        0.0701
     32 H          10.5944    1.3842   -4.3522 H       1  UNL1        0.0362
     33 H          11.0137    1.8544   -2.6673 H       1  UNL1        0.0362
     34 H          11.2931    0.0958   -3.2054 H       1  UNL1        0.0362
     35 H           6.2826   -0.3049   -2.8370 H       1  UNL1        0.0837
     36 H           7.0327   -1.2007   -1.5210 H       1  UNL1        0.0837
     37 H           4.9558   -1.3641   -1.6525 H       1  UNL1        0.0655
     38 H           2.4600   -1.7403   -1.0058 H       1  UNL1        0.0641
     39 H           0.7469    0.3659    2.4915 H       1  UNL1        0.1552
     40 H          -0.4238   -2.6473    2.4013 H       1  UNL1        0.0637
     41 H          -2.6786   -3.5563    2.2362 H       1  UNL1        0.0647
     42 H          -2.9333    1.8509   -0.2977 H       1  UNL1        0.0643
     43 H          -3.3613    2.2522    1.4142 H       1  UNL1        0.0643
     44 H          -7.1952   -1.0620   -2.5321 H       1  UNL1        0.1466
     45 H          -5.4522   -1.2559   -2.7264 H       1  UNL1        0.1466
     46 H          -7.1472   -0.6901    2.3296 H       1  UNL1        0.0737
     47 H          -6.9934    1.9097    0.6448 H       1  UNL1        0.0306
     48 H          -7.1245    1.8862    2.4523 H       1  UNL1        0.0306
     49 H          -5.0775    0.5855    2.8154 H       1  UNL1        0.0365
     50 H          -1.7563    1.1575    1.0859 H       1  UNL1        0.0640
     51 H           4.7898    2.3183    0.3545 H       1  UNL1        0.0867
@<TRIPOS>BOND
     1     1     2    1
     2     2     3    3
     3     3     4    1
     4     4     5    1
     5     5     6    1
     6     6     7   ar
     7     7     8   ar
     8     8     9   ar
     9     9    10    1
    10    10    11    2
    11    10    12   am
    12    12    13    1
    13    13    14   ar
    14    14    15   ar
    15    15    16   ar
    16    16    17    1
    17    16    18   ar
    18    18    19    1
    19    19    20    1
    20    20    21    1
    21    19    22    1
    22    22    23    2
    23    23    24    1
    24    23    25    1
    25    25    26    1
    26    26    27    1
    27    27    28    1
    28    18    29   ar
    29     9    30   ar
    30    30    31   ar
    31    31     6   ar
    32    29    13   ar
    33    28    19    1
    34    28    26    1
    35     1    32    1
    36     1    33    1
    37     1    34    1
    38     4    35    1
    39     4    36    1
    40     7    37    1
    41     8    38    1
    42    12    39    1
    43    14    40    1
    44    15    41    1
    45    20    42    1
    46    20    43    1
    47    24    44    1
    48    24    45    1
    49    26    46    1
    50    27    47    1
    51    27    48    1
    52    28    49    1
    53    29    50    1
    54    31    51    1
