@<TRIPOS>MOLECULE
*****
 54 56 0 0 0
SMALL
GASTEIGER

@<TRIPOS>ATOM
      1 C          -5.0551    0.8457    1.4245 C.3     1  UNL1       -0.0524
      2 C          -4.0054   -0.2098    1.1424 C.3     1  UNL1       -0.0040
      3 N          -2.9705    0.3797    0.3183 N.3     1  UNL1       -0.3028
      4 C          -3.5723    0.6589   -0.9740 C.3     1  UNL1       -0.0040
      5 C          -2.6419    1.2954   -1.9549 C.3     1  UNL1       -0.0524
      6 C          -1.8330   -0.5128    0.1710 C.3     1  UNL1        0.0003
      7 C          -1.0505   -0.6925    1.4501 C.3     1  UNL1       -0.0244
      8 C           0.1117   -1.5862    1.3720 C.3     1  UNL1        0.0137
      9 N           1.1689   -1.2878    0.4243 N.pl3   1  UNL1       -0.3262
     10 C           1.9980   -0.1794    0.8005 C.3     1  UNL1        0.0315
     11 C           1.2764    1.1082    1.1091 C.3     1  UNL1       -0.0085
     12 C           2.3580    2.1685    1.0639 C.ar    1  UNL1       -0.0424
     13 C           2.4938    3.4303    1.6327 C.ar    1  UNL1       -0.0583
     14 C           3.6442    4.1807    1.4210 C.ar    1  UNL1       -0.0615
     15 C           4.6353    3.6359    0.6369 C.ar    1  UNL1       -0.0615
     16 C           4.5118    2.4019    0.0755 C.ar    1  UNL1       -0.0583
     17 C           3.3637    1.6630    0.2904 C.ar    1  UNL1       -0.0424
     18 C           2.9915    0.2867   -0.2344 C.3     1  UNL1       -0.0085
     19 C           1.1651   -2.1654   -0.7216 C.ar    1  UNL1        0.0299
     20 C           2.0482   -2.2140   -1.7416 C.ar    1  UNL1       -0.0407
     21 C           2.0286   -3.0158   -2.8523 C.ar    1  UNL1       -0.0600
     22 C           0.9807   -3.9069   -2.9804 C.ar    1  UNL1       -0.0616
     23 C           0.0287   -3.9287   -1.9836 C.ar    1  UNL1       -0.0600
     24 C           0.1519   -3.0762   -0.9128 C.ar    1  UNL1       -0.0407
     25 H          -4.6419    1.8525    1.5380 H       1  UNL1        0.0242
     26 H          -5.5688    0.5940    2.3879 H       1  UNL1        0.0242
     27 H          -5.8852    0.7901    0.6591 H       1  UNL1        0.0242
     28 H          -4.5234   -1.0031    0.5752 H       1  UNL1        0.0424
     29 H          -3.6442   -0.5356    2.1375 H       1  UNL1        0.0424
     30 H          -4.4048    1.3656   -0.7789 H       1  UNL1        0.0424
     31 H          -3.9371   -0.3258   -1.3525 H       1  UNL1        0.0424
     32 H          -2.0924    0.5045   -2.5102 H       1  UNL1        0.0242
     33 H          -3.2956    1.8022   -2.7245 H       1  UNL1        0.0242
     34 H          -1.9759    2.0487   -1.5160 H       1  UNL1        0.0242
     35 H          -2.1978   -1.5131   -0.1508 H       1  UNL1        0.0427
     36 H          -1.1523   -0.1463   -0.6182 H       1  UNL1        0.0427
     37 H          -0.9934    0.2546    1.9618 H       1  UNL1        0.0293
     38 H          -1.7934   -1.2858    2.1160 H       1  UNL1        0.0293
     39 H          -0.1865   -2.6385    1.4238 H       1  UNL1        0.0464
     40 H           0.6234   -1.4647    2.4209 H       1  UNL1        0.0464
     41 H           2.6160   -0.4461    1.7163 H       1  UNL1        0.0506
     42 H           0.4452    1.3588    0.4721 H       1  UNL1        0.0331
     43 H           1.0353    1.0847    2.2213 H       1  UNL1        0.0331
     44 H           1.6546    3.7591    2.2302 H       1  UNL1        0.0620
     45 H           3.6564    5.1557    1.9057 H       1  UNL1        0.0618
     46 H           5.5153    4.2832    0.5117 H       1  UNL1        0.0618
     47 H           5.3439    2.0719   -0.5175 H       1  UNL1        0.0620
     48 H           2.5358    0.5266   -1.2181 H       1  UNL1        0.0331
     49 H           3.9131   -0.3079   -0.2520 H       1  UNL1        0.0331
     50 H           2.9104   -1.5992   -1.7704 H       1  UNL1        0.0636
     51 H           2.7540   -3.0204   -3.6397 H       1  UNL1        0.0618
     52 H           0.9136   -4.5606   -3.8315 H       1  UNL1        0.0618
     53 H          -0.7715   -4.6387   -2.1252 H       1  UNL1        0.0618
     54 H          -0.6811   -3.2461   -0.2490 H       1  UNL1        0.0636
@<TRIPOS>BOND
     1     1     2    1
     2     2     3    1
     3     3     4    1
     4     4     5    1
     5     3     6    1
     6     6     7    1
     7     7     8    1
     8     8     9    1
     9     9    10    1
    10    10    11    1
    11    11    12    1
    12    12    13   ar
    13    13    14   ar
    14    14    15   ar
    15    15    16   ar
    16    16    17   ar
    17    17    18    1
    18     9    19    1
    19    19    20   ar
    20    20    21   ar
    21    21    22   ar
    22    22    23   ar
    23    23    24   ar
    24    18    10    1
    25    24    19   ar
    26    17    12   ar
    27     1    25    1
    28     1    26    1
    29     1    27    1
    30     2    28    1
    31     2    29    1
    32     4    30    1
    33     4    31    1
    34     5    32    1
    35     5    33    1
    36     5    34    1
    37     6    35    1
    38     6    36    1
    39     7    37    1
    40     7    38    1
    41     8    39    1
    42     8    40    1
    43    10    41    1
    44    11    42    1
    45    11    43    1
    46    13    44    1
    47    14    45    1
    48    15    46    1
    49    16    47    1
    50    18    48    1
    51    18    49    1
    52    20    50    1
    53    21    51    1
    54    22    52    1
    55    23    53    1
    56    24    54    1
