@<TRIPOS>MOLECULE
*****
 50 53 0 0 0
SMALL
GASTEIGER

@<TRIPOS>ATOM
      1 C          -2.3912    0.6036   -1.9933 C.3     1  UNL1        0.0435
      2 N          -3.7422    0.4835   -2.5097 N.3     1  UNL1       -0.3242
      3 C          -1.6087   -0.6778   -2.2091 C.3     1  UNL1        0.1050
      4 O          -0.3323   -0.5989   -1.7244 O.3     1  UNL1       -0.4889
      5 C           0.7321    0.1642   -2.0075 C.ar    1  UNL1        0.1391
      6 C           0.9901    1.1593   -2.8930 C.ar    1  UNL1        0.0692
      7 N           2.1482    1.8014   -3.0077 N.ar    1  UNL1       -0.2591
      8 C           3.1825    1.4853   -2.2121 C.ar    1  UNL1        0.0349
      9 C           3.0491    0.4738   -1.2529 C.ar    1  UNL1       -0.0034
     10 C           4.1904    0.1522   -0.4040 C.2     1  UNL1       -0.0525
     11 C           4.3081   -0.7406    0.5423 C.2     1  UNL1       -0.0539
     12 C           5.4793   -1.0212    1.3644 C.ar    1  UNL1       -0.0222
     13 C           6.6746   -0.3445    1.2499 C.ar    1  UNL1       -0.0364
     14 C           7.7951   -0.5942    2.0151 C.ar    1  UNL1        0.0281
     15 N           7.7214   -1.5700    2.9441 N.ar    1  UNL1       -0.2632
     16 C           6.5583   -2.2559    3.0826 C.ar    1  UNL1        0.0281
     17 C           5.4346   -2.0110    2.3207 C.ar    1  UNL1       -0.0364
     18 C           1.8166   -0.1443   -1.1970 C.ar    1  UNL1       -0.0098
     19 C          -2.3172    1.0742   -0.5728 C.3     1  UNL1       -0.0073
     20 C          -2.9843    0.2319    0.4144 C.ar    1  UNL1       -0.0208
     21 C          -2.3412   -0.6659    1.2513 C.ar    1  UNL1        0.0060
     22 N          -3.2353   -1.3109    2.0504 N.ar    1  UNL1       -0.3604
     23 C          -4.4812   -0.8502    1.7549 C.ar    1  UNL1        0.0467
     24 C          -4.3096    0.0895    0.7558 C.ar    1  UNL1        0.0029
     25 C          -5.4399    0.7163    0.2782 C.ar    1  UNL1       -0.0523
     26 C          -6.7153    0.4562    0.7400 C.ar    1  UNL1       -0.0611
     27 C          -6.8731   -0.4840    1.7370 C.ar    1  UNL1       -0.0598
     28 C          -5.7506   -1.1372    2.2442 C.ar    1  UNL1       -0.0378
     29 H          -1.9150    1.3912   -2.6085 H       1  UNL1        0.0495
     30 H          -3.9126    1.0688   -3.3307 H       1  UNL1        0.1186
     31 H          -4.0554   -0.5035   -2.6042 H       1  UNL1        0.1186
     32 H          -1.6471   -0.9159   -3.3173 H       1  UNL1        0.0712
     33 H          -2.1722   -1.5565   -1.7685 H       1  UNL1        0.0712
     34 H           0.1924    1.4307   -3.5503 H       1  UNL1        0.0867
     35 H           4.1229    2.0094   -2.3083 H       1  UNL1        0.0835
     36 H           5.1117    0.7343   -0.5589 H       1  UNL1        0.0624
     37 H           3.4139   -1.3274    0.7162 H       1  UNL1        0.0624
     38 H           6.7910    0.4449    0.5250 H       1  UNL1        0.0639
     39 H           8.7150   -0.0511    1.9053 H       1  UNL1        0.0830
     40 H           6.5486   -3.0417    3.8549 H       1  UNL1        0.0830
     41 H           4.5412   -2.5865    2.4743 H       1  UNL1        0.0639
     42 H           1.8095   -0.9213   -0.4170 H       1  UNL1        0.0661
     43 H          -1.2637    1.2863   -0.3525 H       1  UNL1        0.0330
     44 H          -2.8184    2.0875   -0.5576 H       1  UNL1        0.0330
     45 H          -1.2978   -0.8958    1.3366 H       1  UNL1        0.0810
     46 H          -3.0466   -2.0379    2.7757 H       1  UNL1        0.1653
     47 H          -5.3593    1.4534   -0.4892 H       1  UNL1        0.0624
     48 H          -7.5985    0.9467    0.3651 H       1  UNL1        0.0618
     49 H          -7.8756   -0.7059    2.1192 H       1  UNL1        0.0618
     50 H          -5.8424   -1.8805    3.0288 H       1  UNL1        0.0638
@<TRIPOS>BOND
     1     1     2    1
     2     1     3    1
     3     3     4    1
     4     4     5    1
     5     5     6   ar
     6     6     7   ar
     7     7     8   ar
     8     8     9   ar
     9     9    10    1
    10    10    11    2
    11    11    12    1
    12    12    13   ar
    13    13    14   ar
    14    14    15   ar
    15    15    16   ar
    16    16    17   ar
    17     9    18   ar
    18     1    19    1
    19    19    20    1
    20    20    21   ar
    21    21    22   ar
    22    22    23   ar
    23    23    24   ar
    24    24    25   ar
    25    25    26   ar
    26    26    27   ar
    27    27    28   ar
    28    18     5   ar
    29    24    20   ar
    30    17    12   ar
    31    28    23   ar
    32     1    29    1
    33     2    30    1
    34     2    31    1
    35     3    32    1
    36     3    33    1
    37     6    34    1
    38     8    35    1
    39    10    36    1
    40    11    37    1
    41    13    38    1
    42    14    39    1
    43    16    40    1
    44    17    41    1
    45    18    42    1
    46    19    43    1
    47    19    44    1
    48    21    45    1
    49    22    46    1
    50    25    47    1
    51    26    48    1
    52    27    49    1
    53    28    50    1
