
     RDKit          3D

 24 25  0  0  0  0  0  0  0  0999 V2000
   -3.0237   -1.5508   -0.0731 N   0  0  0  0  0  0  0  0  0  0  0  0
   -2.2936   -0.3652    0.1758 C   0  0  0  0  0  0  0  0  0  0  0  0
   -2.8867    0.7947    0.6456 C   0  0  0  0  0  0  0  0  0  0  0  0
   -2.2291    1.9802    0.9070 C   0  0  0  0  0  0  0  0  0  0  0  0
   -0.8484    2.0204    0.6809 C   0  0  0  0  0  0  0  0  0  0  0  0
   -0.2588    0.8606    0.2118 C   0  0  0  0  0  0  0  0  0  0  0  0
    1.1225    0.8946   -0.0164 C   0  0  0  0  0  0  0  0  0  0  0  0
    1.8254   -0.2098   -0.4876 C   0  0  0  0  0  0  0  0  0  0  0  0
    1.1406   -1.3922   -0.7434 C   0  0  0  0  0  0  0  0  0  0  0  0
   -0.2223   -1.4265   -0.5184 C   0  0  0  0  0  0  0  0  0  0  0  0
   -0.9127   -0.3291   -0.0517 C   0  0  0  0  0  0  0  0  0  0  0  0
    3.5525   -0.0821   -0.7460 S   0  0  0  0  0  0  0  0  0  0  0  0
    4.3943   -0.5068    0.6451 O   0  0  0  0  0  0  0  0  0  0  0  0
    3.9044   -1.0069   -1.8902 O   0  0  0  0  0  0  0  0  0  0  0  0
    3.9493    1.3069   -1.1560 O   0  0  0  0  0  0  0  0  0  0  0  0
   -2.6152   -2.3658    0.4374 H   0  0  0  0  0  0  0  0  0  0  0  0
   -3.8745   -1.6545   -0.6842 H   0  0  0  0  0  0  0  0  0  0  0  0
   -3.9668    0.8103    0.8374 H   0  0  0  0  0  0  0  0  0  0  0  0
   -2.7541    2.8462    1.2720 H   0  0  0  0  0  0  0  0  0  0  0  0
   -0.2711    2.9064    0.8615 H   0  0  0  0  0  0  0  0  0  0  0  0
    1.6691    1.8262    0.1838 H   0  0  0  0  0  0  0  0  0  0  0  0
    1.6734   -2.2649   -1.1118 H   0  0  0  0  0  0  0  0  0  0  0  0
   -0.8123   -2.3292   -0.7021 H   0  0  0  0  0  0  0  0  0  0  0  0
    3.7378   -0.7627    1.3226 H   0  0  0  0  0  0  0  0  0  0  0  0
  1  2  1  0
  2  3  2  0
  3  4  1  0
  4  5  2  0
  5  6  1  0
  6  7  2  0
  7  8  1  0
  8  9  2  0
  9 10  1  0
 10 11  2  0
  8 12  1  0
 12 13  1  0
 12 14  2  0
 12 15  2  0
 11  2  1  0
 11  6  1  0
  1 16  1  0
  1 17  1  0
  3 18  1  0
  4 19  1  0
  5 20  1  0
  7 21  1  0
  9 22  1  0
 10 23  1  0
 13 24  1  0
M  END
$$$$
