@<TRIPOS>MOLECULE
*****
 24 25 0 0 0
SMALL
GASTEIGER

@<TRIPOS>ATOM
      1 N          -3.0237   -1.5508   -0.0731 N.pl3   1  UNL1       -0.3575
      2 C          -2.2936   -0.3652    0.1758 C.ar    1  UNL1        0.0324
      3 C          -2.8867    0.7947    0.6456 C.ar    1  UNL1       -0.0404
      4 C          -2.2291    1.9802    0.9070 C.ar    1  UNL1       -0.0594
      5 C          -0.8484    2.0204    0.6809 C.ar    1  UNL1       -0.0539
      6 C          -0.2588    0.8606    0.2118 C.ar    1  UNL1       -0.0143
      7 C           1.1225    0.8946   -0.0164 C.ar    1  UNL1       -0.0266
      8 C           1.8254   -0.2098   -0.4876 C.ar    1  UNL1        0.1174
      9 C           1.1406   -1.3922   -0.7434 C.ar    1  UNL1       -0.0337
     10 C          -0.2223   -1.4265   -0.5184 C.ar    1  UNL1       -0.0504
     11 C          -0.9127   -0.3291   -0.0517 C.ar    1  UNL1        0.0029
     12 S           3.5525   -0.0821   -0.7460 S.O2    1  UNL1        0.1096
     13 O           4.3943   -0.5068    0.6451 O.3     1  UNL1       -0.2498
     14 O           3.9044   -1.0069   -1.8902 O.2     1  UNL1       -0.1421
     15 O           3.9493    1.3069   -1.1560 O.2     1  UNL1       -0.1421
     16 H          -2.6152   -2.3658    0.4374 H       1  UNL1        0.1423
     17 H          -3.8745   -1.6545   -0.6842 H       1  UNL1        0.1423
     18 H          -3.9668    0.8103    0.8374 H       1  UNL1        0.0636
     19 H          -2.7541    2.8462    1.2720 H       1  UNL1        0.0618
     20 H          -0.2711    2.9064    0.8615 H       1  UNL1        0.0624
     21 H           1.6691    1.8262    0.1838 H       1  UNL1        0.0643
     22 H           1.6734   -2.2649   -1.1118 H       1  UNL1        0.0637
     23 H          -0.8123   -2.3292   -0.7021 H       1  UNL1        0.0625
     24 H           3.7378   -0.7627    1.3226 H       1  UNL1        0.2449
@<TRIPOS>BOND
     1     1     2    1
     2     2     3   ar
     3     3     4   ar
     4     4     5   ar
     5     5     6   ar
     6     6     7   ar
     7     7     8   ar
     8     8     9   ar
     9     9    10   ar
    10    10    11   ar
    11     8    12    1
    12    12    13    1
    13    12    14    2
    14    12    15    2
    15    11     2   ar
    16    11     6   ar
    17     1    16    1
    18     1    17    1
    19     3    18    1
    20     4    19    1
    21     5    20    1
    22     7    21    1
    23     9    22    1
    24    10    23    1
    25    13    24    1
