
     RDKit          3D

 72 76  0  0  0  0  0  0  0  0999 V2000
    2.5367    0.0086    1.3999 N   0  0  0  0  0  0  0  0  0  0  0  0
    2.5675   -0.1388   -0.0437 C   0  0  0  0  0  0  0  0  0  0  0  0
    1.1555   -0.0165   -0.5202 C   0  0  0  0  0  0  0  0  0  0  0  0
    0.9780   -0.1887   -1.7744 O   0  0  0  0  0  0  0  0  0  0  0  0
    0.0888    0.2696    0.3474 N   0  0  0  0  0  0  0  0  0  0  0  0
   -1.2953    0.3804   -0.1774 C   0  0  0  0  0  0  0  0  0  0  0  0
   -2.0344   -0.6822    0.5670 C   0  0  0  0  0  0  0  0  0  0  0  0
   -3.4709   -0.8903    0.2801 C   0  0  0  0  0  0  0  0  0  0  0  0
   -4.3187    0.2618    0.6198 C   0  0  0  0  0  0  0  0  0  0  0  0
   -5.7356    0.0479    0.3628 N   0  0  0  0  0  0  0  0  0  0  0  0
   -6.3225   -0.8930    1.2337 C   0  0  0  0  0  0  0  0  0  0  0  0
   -7.3303   -1.8105    0.6213 C   0  0  0  0  0  0  0  0  0  0  0  0
   -8.2025   -1.1780   -0.4170 C   0  0  0  0  0  0  0  0  0  0  0  0
   -7.5490   -0.0373   -1.1460 C   0  0  0  0  0  0  0  0  0  0  0  0
   -6.0258   -0.1122   -1.0364 C   0  0  0  0  0  0  0  0  0  0  0  0
   -1.7076    1.7697    0.0283 C   0  0  0  0  0  0  0  0  0  0  0  0
   -1.6946    2.3934    1.2577 C   0  0  0  0  0  0  0  0  0  0  0  0
   -2.0384    3.7218    1.4170 C   0  0  0  0  0  0  0  0  0  0  0  0
   -2.4111    4.4694    0.3218 C   0  0  0  0  0  0  0  0  0  0  0  0
   -2.8489    6.1705    0.5366 Cl  0  0  0  0  0  0  0  0  0  0  0  0
   -2.4383    3.8926   -0.9142 C   0  0  0  0  0  0  0  0  0  0  0  0
   -2.0936    2.5700   -1.0579 C   0  0  0  0  0  0  0  0  0  0  0  0
    3.3457    1.0166   -0.6183 C   0  0  0  0  0  0  0  0  0  0  0  0
    4.8124    0.8001   -0.6889 C   0  0  0  0  0  0  0  0  0  0  0  0
    5.1891   -0.5478   -1.0906 N   0  0  0  0  0  0  0  0  0  0  0  0
    6.5306   -0.9986   -1.0223 C   0  0  0  0  0  0  0  0  0  0  0  0
    7.1599   -1.3192   -2.1425 N   0  0  0  0  0  0  0  0  0  0  0  0
    8.4367   -1.7438   -2.1570 C   0  0  0  0  0  0  0  0  0  0  0  0
    9.0910   -1.8445   -0.9908 N   0  0  0  0  0  0  0  0  0  0  0  0
    8.5101   -1.5354    0.1771 C   0  0  0  0  0  0  0  0  0  0  0  0
    8.9447   -1.5531    1.4681 N   0  0  0  0  0  0  0  0  0  0  0  0
    7.9465   -1.1448    2.2629 C   0  0  0  0  0  0  0  0  0  0  0  0
    6.8440   -0.8545    1.4972 C   0  0  0  0  0  0  0  0  0  0  0  0
    7.1871   -1.0959    0.1855 C   0  0  0  0  0  0  0  0  0  0  0  0
    4.1142   -1.3983   -1.5637 C   0  0  0  0  0  0  0  0  0  0  0  0
    3.0681   -1.4724   -0.4820 C   0  0  0  0  0  0  0  0  0  0  0  0
    2.7826   -0.9111    1.8024 H   0  0  0  0  0  0  0  0  0  0  0  0
    3.1369    0.7788    1.7206 H   0  0  0  0  0  0  0  0  0  0  0  0
    0.2694    0.4022    1.3502 H   0  0  0  0  0  0  0  0  0  0  0  0
   -1.2546    0.1461   -1.2640 H   0  0  0  0  0  0  0  0  0  0  0  0
   -1.9206   -0.4733    1.6967 H   0  0  0  0  0  0  0  0  0  0  0  0
   -1.4842   -1.6794    0.4789 H   0  0  0  0  0  0  0  0  0  0  0  0
   -3.5818   -1.2254   -0.7915 H   0  0  0  0  0  0  0  0  0  0  0  0
   -3.7760   -1.8054    0.8756 H   0  0  0  0  0  0  0  0  0  0  0  0
   -4.0735    1.2229    0.2044 H   0  0  0  0  0  0  0  0  0  0  0  0
   -4.2602    0.3915    1.7444 H   0  0  0  0  0  0  0  0  0  0  0  0
   -5.5383   -1.4742    1.7499 H   0  0  0  0  0  0  0  0  0  0  0  0
   -6.8057   -0.2973    2.0698 H   0  0  0  0  0  0  0  0  0  0  0  0
   -6.8434   -2.7252    0.2240 H   0  0  0  0  0  0  0  0  0  0  0  0
   -8.0026   -2.1579    1.4443 H   0  0  0  0  0  0  0  0  0  0  0  0
   -9.1549   -0.8114    0.0208 H   0  0  0  0  0  0  0  0  0  0  0  0
   -8.4810   -1.9372   -1.1772 H   0  0  0  0  0  0  0  0  0  0  0  0
   -7.8684    0.0397   -2.1946 H   0  0  0  0  0  0  0  0  0  0  0  0
   -7.8332    0.9189   -0.6386 H   0  0  0  0  0  0  0  0  0  0  0  0
   -5.6513    0.7791   -1.5694 H   0  0  0  0  0  0  0  0  0  0  0  0
   -5.6620   -1.0725   -1.4500 H   0  0  0  0  0  0  0  0  0  0  0  0
   -1.4020    1.8104    2.1266 H   0  0  0  0  0  0  0  0  0  0  0  0
   -2.0193    4.1830    2.3836 H   0  0  0  0  0  0  0  0  0  0  0  0
   -2.7366    4.5102   -1.7556 H   0  0  0  0  0  0  0  0  0  0  0  0
   -2.1121    2.1078   -2.0229 H   0  0  0  0  0  0  0  0  0  0  0  0
    2.9302    1.3208   -1.6138 H   0  0  0  0  0  0  0  0  0  0  0  0
    3.1515    1.8987    0.0411 H   0  0  0  0  0  0  0  0  0  0  0  0
    5.2059    1.4514   -1.5295 H   0  0  0  0  0  0  0  0  0  0  0  0
    5.3704    1.1629    0.1963 H   0  0  0  0  0  0  0  0  0  0  0  0
    8.9138   -1.9966   -3.1111 H   0  0  0  0  0  0  0  0  0  0  0  0
    9.9146   -1.8464    1.7552 H   0  0  0  0  0  0  0  0  0  0  0  0
    8.0050   -1.0589    3.3415 H   0  0  0  0  0  0  0  0  0  0  0  0
    5.8785   -0.5043    1.8269 H   0  0  0  0  0  0  0  0  0  0  0  0
    3.6418   -0.9123   -2.4387 H   0  0  0  0  0  0  0  0  0  0  0  0
    4.5012   -2.4051   -1.7872 H   0  0  0  0  0  0  0  0  0  0  0  0
    2.2478   -2.1619   -0.8412 H   0  0  0  0  0  0  0  0  0  0  0  0
    3.5226   -1.9851    0.3913 H   0  0  0  0  0  0  0  0  0  0  0  0
  1  2  1  0
  2  3  1  0
  3  4  2  0
  3  5  1  0
  5  6  1  0
  6  7  1  0
  7  8  1  0
  8  9  1  0
  9 10  1  0
 10 11  1  0
 11 12  1  0
 12 13  1  0
 13 14  1  0
 14 15  1  0
  6 16  1  0
 16 17  2  0
 17 18  1  0
 18 19  2  0
 19 20  1  0
 19 21  1  0
 21 22  2  0
  2 23  1  0
 23 24  1  0
 24 25  1  0
 25 26  1  0
 26 27  2  0
 27 28  1  0
 28 29  2  0
 29 30  1  0
 30 31  1  0
 31 32  1  0
 32 33  2  0
 33 34  1  0
 25 35  1  0
 35 36  1  0
 36  2  1  0
 15 10  1  0
 22 16  1  0
 34 26  1  0
 34 30  2  0
  1 37  1  0
  1 38  1  0
  5 39  1  0
  6 40  1  0
  7 41  1  0
  7 42  1  0
  8 43  1  0
  8 44  1  0
  9 45  1  0
  9 46  1  0
 11 47  1  0
 11 48  1  0
 12 49  1  0
 12 50  1  0
 13 51  1  0
 13 52  1  0
 14 53  1  0
 14 54  1  0
 15 55  1  0
 15 56  1  0
 17 57  1  0
 18 58  1  0
 21 59  1  0
 22 60  1  0
 23 61  1  0
 23 62  1  0
 24 63  1  0
 24 64  1  0
 28 65  1  0
 31 66  1  0
 32 67  1  0
 33 68  1  0
 35 69  1  0
 35 70  1  0
 36 71  1  0
 36 72  1  0
M  END
$$$$
