@<TRIPOS>MOLECULE
*****
 72 76 0 0 0
SMALL
GASTEIGER

@<TRIPOS>ATOM
      1 N           2.5367    0.0086    1.3999 N.3     1  UNL1       -0.3173
      2 C           2.5675   -0.1388   -0.0437 C.3     1  UNL1        0.0965
      3 C           1.1555   -0.0165   -0.5202 C.2     1  UNL1        0.2336
      4 O           0.9780   -0.1887   -1.7744 O.2     1  UNL1       -0.2738
      5 N           0.0888    0.2696    0.3474 N.am    1  UNL1       -0.3070
      6 C          -1.2953    0.3804   -0.1774 C.3     1  UNL1        0.0484
      7 C          -2.0344   -0.6822    0.5670 C.3     1  UNL1       -0.0292
      8 C          -3.4709   -0.8903    0.2801 C.3     1  UNL1       -0.0382
      9 C          -4.3187    0.2618    0.6198 C.3     1  UNL1       -0.0010
     10 N          -5.7356    0.0479    0.3628 N.3     1  UNL1       -0.3023
     11 C          -6.3225   -0.8930    1.2337 C.3     1  UNL1       -0.0011
     12 C          -7.3303   -1.8105    0.6213 C.3     1  UNL1       -0.0402
     13 C          -8.2025   -1.1780   -0.4170 C.3     1  UNL1       -0.0507
     14 C          -7.5490   -0.0373   -1.1460 C.3     1  UNL1       -0.0402
     15 C          -6.0258   -0.1122   -1.0364 C.3     1  UNL1       -0.0011
     16 C          -1.7076    1.7697    0.0283 C.ar    1  UNL1       -0.0271
     17 C          -1.6946    2.3934    1.2577 C.ar    1  UNL1       -0.0554
     18 C          -2.0384    3.7218    1.4170 C.ar    1  UNL1       -0.0431
     19 C          -2.4111    4.4694    0.3218 C.ar    1  UNL1        0.0410
     20 CL         -2.8489    6.1705    0.5366 Cl      1  UNL1       -0.0835
     21 C          -2.4383    3.8926   -0.9142 C.ar    1  UNL1       -0.0431
     22 C          -2.0936    2.5700   -1.0579 C.ar    1  UNL1       -0.0554
     23 C           3.3457    1.0166   -0.6183 C.3     1  UNL1       -0.0104
     24 C           4.8124    0.8001   -0.6889 C.3     1  UNL1        0.0156
     25 N           5.1891   -0.5478   -1.0906 N.pl3   1  UNL1       -0.3144
     26 C           6.5306   -0.9986   -1.0223 C.ar    1  UNL1        0.1337
     27 N           7.1599   -1.3192   -2.1425 N.ar    1  UNL1       -0.2200
     28 C           8.4367   -1.7438   -2.1570 C.ar    1  UNL1        0.1204
     29 N           9.0910   -1.8445   -0.9908 N.ar    1  UNL1       -0.2178
     30 C           8.5101   -1.5354    0.1771 C.ar    1  UNL1        0.1432
     31 N           8.9447   -1.5531    1.4681 N.ar    1  UNL1       -0.3457
     32 C           7.9465   -1.1448    2.2629 C.ar    1  UNL1        0.0042
     33 C           6.8440   -0.8545    1.4972 C.ar    1  UNL1       -0.0318
     34 C           7.1871   -1.0959    0.1855 C.ar    1  UNL1        0.0585
     35 C           4.1142   -1.3983   -1.5637 C.3     1  UNL1        0.0156
     36 C           3.0681   -1.4724   -0.4820 C.3     1  UNL1       -0.0104
     37 H           2.7826   -0.9111    1.8024 H       1  UNL1        0.1192
     38 H           3.1369    0.7788    1.7206 H       1  UNL1        0.1192
     39 H           0.2694    0.4022    1.3502 H       1  UNL1        0.1493
     40 H          -1.2546    0.1461   -1.2640 H       1  UNL1        0.0548
     41 H          -1.9206   -0.4733    1.6967 H       1  UNL1        0.0287
     42 H          -1.4842   -1.6794    0.4789 H       1  UNL1        0.0287
     43 H          -3.5818   -1.2254   -0.7915 H       1  UNL1        0.0278
     44 H          -3.7760   -1.8054    0.8756 H       1  UNL1        0.0278
     45 H          -4.0735    1.2229    0.2044 H       1  UNL1        0.0426
     46 H          -4.2602    0.3915    1.7444 H       1  UNL1        0.0426
     47 H          -5.5383   -1.4742    1.7499 H       1  UNL1        0.0426
     48 H          -6.8057   -0.2973    2.0698 H       1  UNL1        0.0426
     49 H          -6.8434   -2.7252    0.2240 H       1  UNL1        0.0278
     50 H          -8.0026   -2.1579    1.4443 H       1  UNL1        0.0278
     51 H          -9.1549   -0.8114    0.0208 H       1  UNL1        0.0266
     52 H          -8.4810   -1.9372   -1.1772 H       1  UNL1        0.0266
     53 H          -7.8684    0.0397   -2.1946 H       1  UNL1        0.0278
     54 H          -7.8332    0.9189   -0.6386 H       1  UNL1        0.0278
     55 H          -5.6513    0.7791   -1.5694 H       1  UNL1        0.0426
     56 H          -5.6620   -1.0725   -1.4500 H       1  UNL1        0.0426
     57 H          -1.4020    1.8104    2.1266 H       1  UNL1        0.0621
     58 H          -2.0193    4.1830    2.3836 H       1  UNL1        0.0632
     59 H          -2.7366    4.5102   -1.7556 H       1  UNL1        0.0632
     60 H          -2.1121    2.1078   -2.0229 H       1  UNL1        0.0621
     61 H           2.9302    1.3208   -1.6138 H       1  UNL1        0.0303
     62 H           3.1515    1.8987    0.0411 H       1  UNL1        0.0303
     63 H           5.2059    1.4514   -1.5295 H       1  UNL1        0.0465
     64 H           5.3704    1.1629    0.1963 H       1  UNL1        0.0465
     65 H           8.9138   -1.9966   -3.1111 H       1  UNL1        0.1048
     66 H           9.9146   -1.8464    1.7552 H       1  UNL1        0.1668
     67 H           8.0050   -1.0589    3.3415 H       1  UNL1        0.0807
     68 H           5.8785   -0.5043    1.8269 H       1  UNL1        0.0640
     69 H           3.6418   -0.9123   -2.4387 H       1  UNL1        0.0465
     70 H           4.5012   -2.4051   -1.7872 H       1  UNL1        0.0465
     71 H           2.2478   -2.1619   -0.8412 H       1  UNL1        0.0303
     72 H           3.5226   -1.9851    0.3913 H       1  UNL1        0.0303
@<TRIPOS>BOND
     1     1     2    1
     2     2     3    1
     3     3     4    2
     4     3     5   am
     5     5     6    1
     6     6     7    1
     7     7     8    1
     8     8     9    1
     9     9    10    1
    10    10    11    1
    11    11    12    1
    12    12    13    1
    13    13    14    1
    14    14    15    1
    15     6    16    1
    16    16    17   ar
    17    17    18   ar
    18    18    19   ar
    19    19    20    1
    20    19    21   ar
    21    21    22   ar
    22     2    23    1
    23    23    24    1
    24    24    25    1
    25    25    26    1
    26    26    27   ar
    27    27    28   ar
    28    28    29   ar
    29    29    30   ar
    30    30    31   ar
    31    31    32   ar
    32    32    33   ar
    33    33    34   ar
    34    25    35    1
    35    35    36    1
    36    36     2    1
    37    15    10    1
    38    22    16   ar
    39    34    26   ar
    40    34    30   ar
    41     1    37    1
    42     1    38    1
    43     5    39    1
    44     6    40    1
    45     7    41    1
    46     7    42    1
    47     8    43    1
    48     8    44    1
    49     9    45    1
    50     9    46    1
    51    11    47    1
    52    11    48    1
    53    12    49    1
    54    12    50    1
    55    13    51    1
    56    13    52    1
    57    14    53    1
    58    14    54    1
    59    15    55    1
    60    15    56    1
    61    17    57    1
    62    18    58    1
    63    21    59    1
    64    22    60    1
    65    23    61    1
    66    23    62    1
    67    24    63    1
    68    24    64    1
    69    28    65    1
    70    31    66    1
    71    32    67    1
    72    33    68    1
    73    35    69    1
    74    35    70    1
    75    36    71    1
    76    36    72    1
