@<TRIPOS>MOLECULE
*****
 91 92 0 0 0
SMALL
GASTEIGER

@<TRIPOS>ATOM
      1 C           1.6900    2.5383    4.5750 C.3     1  UNL1       -0.0559
      2 C           0.4255    1.9122    4.0305 C.3     1  UNL1        0.0133
      3 C           0.1114    0.7480    4.9846 C.3     1  UNL1       -0.0559
      4 C           0.6431    1.3628    2.6783 C.2     1  UNL1        0.1570
      5 O           1.7122    1.7936    3.0451 O.2     1  UNL1       -0.2956
      6 C           0.2994    0.7023    1.3902 C.3     1  UNL1        0.1503
      7 C          -0.6373    1.6793    0.7090 C.2     1  UNL1        0.1219
      8 O          -0.7609    3.0125    1.1699 O.2     1  UNL1       -0.5092
      9 C          -1.3782    1.3277   -0.3343 C.2     1  UNL1        0.0383
     10 C          -1.7594    2.2814   -1.4174 C.3     1  UNL1       -0.0027
     11 C          -3.2427    2.3956   -1.4916 C.2     1  UNL1       -0.0808
     12 C          -4.1692    2.2056   -2.3933 C.2     1  UNL1       -0.0793
     13 C          -4.0627    1.7649   -3.8006 C.3     1  UNL1       -0.0440
     14 C          -5.5797    2.4457   -2.0330 C.3     1  UNL1       -0.0440
     15 C          -1.8115   -0.0859   -0.3400 C.2     1  UNL1        0.1762
     16 O          -2.7568   -0.4218   -1.0985 O.2     1  UNL1       -0.2912
     17 C          -1.1632   -1.1376    0.5284 C.3     1  UNL1        0.0963
     18 C          -2.2242   -2.1481    0.8773 C.3     1  UNL1       -0.0150
     19 C          -2.7664   -2.7649   -0.3276 C.2     1  UNL1       -0.0839
     20 C          -3.9735   -2.8756   -0.8706 C.2     1  UNL1       -0.0796
     21 C          -5.2478   -2.3406   -0.3358 C.3     1  UNL1       -0.0440
     22 C          -4.1203   -3.6059   -2.1546 C.3     1  UNL1       -0.0440
     23 C           0.0162   -1.7384   -0.1503 C.3     1  UNL1       -0.0295
     24 C           1.3532   -1.3103    0.3892 C.3     1  UNL1       -0.0292
     25 C           1.8410   -2.1783    1.4985 C.3     1  UNL1       -0.0311
     26 C           1.9879   -3.6182    1.0515 C.2     1  UNL1       -0.0850
     27 C           3.1556   -4.2427    1.0873 C.2     1  UNL1       -0.0796
     28 C           4.3754   -3.4915    1.5885 C.3     1  UNL1       -0.0440
     29 C           3.3930   -5.6510    0.6707 C.3     1  UNL1       -0.0440
     30 C           1.4215    0.1879    0.6205 C.3     1  UNL1       -0.0025
     31 C           2.7753    0.3809    1.3189 C.3     1  UNL1       -0.0576
     32 C           1.6279    0.7240   -0.7885 C.3     1  UNL1       -0.0422
     33 C           1.8917    2.1419   -0.9847 C.3     1  UNL1       -0.0340
     34 C           2.0889    2.4458   -2.4652 C.2     1  UNL1       -0.0853
     35 C           3.2036    2.9622   -2.9882 C.2     1  UNL1       -0.0796
     36 C           3.2788    3.2188   -4.4690 C.3     1  UNL1       -0.0440
     37 C           4.3678    3.2845   -2.1298 C.3     1  UNL1       -0.0440
     38 C          -0.6855   -0.4172    1.7495 C.2     1  UNL1        0.1683
     39 O          -1.1511   -0.8292    2.8230 O.2     1  UNL1       -0.2948
     40 H           2.1112    3.3468    3.9691 H       1  UNL1        0.0236
     41 H           1.4471    2.8774    5.6145 H       1  UNL1        0.0236
     42 H           2.4802    1.7716    4.7172 H       1  UNL1        0.0236
     43 H          -0.4302    2.6200    4.0742 H       1  UNL1        0.0372
     44 H           0.4884    1.0099    6.0212 H       1  UNL1        0.0236
     45 H           0.6868   -0.1634    4.7317 H       1  UNL1        0.0236
     46 H          -0.9668    0.6007    5.1361 H       1  UNL1        0.0236
     47 H          -0.7260    3.7839    0.5353 H       1  UNL1        0.2917
     48 H          -1.2345    3.2320   -1.3252 H       1  UNL1        0.0358
     49 H          -1.4502    1.8409   -2.3952 H       1  UNL1        0.0358
     50 H          -3.5042    2.7271   -0.4968 H       1  UNL1        0.0575
     51 H          -4.6825    2.4030   -4.4813 H       1  UNL1        0.0274
     52 H          -4.4984    0.7465   -3.8766 H       1  UNL1        0.0274
     53 H          -3.0311    1.8473   -4.1987 H       1  UNL1        0.0274
     54 H          -6.0906    1.4556   -1.8471 H       1  UNL1        0.0274
     55 H          -6.1431    3.0212   -2.7680 H       1  UNL1        0.0274
     56 H          -5.6706    2.9658   -1.0385 H       1  UNL1        0.0274
     57 H          -3.0592   -1.5582    1.3429 H       1  UNL1        0.0321
     58 H          -1.8802   -2.8721    1.6439 H       1  UNL1        0.0321
     59 H          -1.9110   -3.2032   -0.8201 H       1  UNL1        0.0572
     60 H          -5.9359   -3.1419    0.0201 H       1  UNL1        0.0274
     61 H          -5.1143   -1.5762    0.4566 H       1  UNL1        0.0274
     62 H          -5.7982   -1.8294   -1.1765 H       1  UNL1        0.0274
     63 H          -3.2765   -4.3111   -2.3027 H       1  UNL1        0.0274
     64 H          -5.0653   -4.2245   -2.1542 H       1  UNL1        0.0274
     65 H          -4.1876   -2.8491   -2.9653 H       1  UNL1        0.0274
     66 H          -0.0064   -1.6196   -1.2571 H       1  UNL1        0.0282
     67 H          -0.0530   -2.8531   -0.0031 H       1  UNL1        0.0282
     68 H           2.0989   -1.5112   -0.4606 H       1  UNL1        0.0310
     69 H           1.0742   -2.2257    2.2872 H       1  UNL1        0.0310
     70 H           2.7758   -1.9062    1.9743 H       1  UNL1        0.0310
     71 H           1.2013   -4.2526    0.6816 H       1  UNL1        0.0572
     72 H           5.2686   -4.1190    1.6155 H       1  UNL1        0.0274
     73 H           4.1279   -3.2549    2.6668 H       1  UNL1        0.0274
     74 H           4.4857   -2.5425    1.0729 H       1  UNL1        0.0274
     75 H           2.4965   -6.1165    0.2300 H       1  UNL1        0.0274
     76 H           4.2448   -5.7490   -0.0388 H       1  UNL1        0.0274
     77 H           3.6715   -6.2995    1.5270 H       1  UNL1        0.0274
     78 H           3.4893   -0.2335    0.7341 H       1  UNL1        0.0236
     79 H           2.7378   -0.0303    2.3354 H       1  UNL1        0.0236
     80 H           3.1505    1.4142    1.2416 H       1  UNL1        0.0236
     81 H           2.4999    0.1593   -1.2424 H       1  UNL1        0.0274
     82 H           0.7867    0.4332   -1.4778 H       1  UNL1        0.0274
     83 H           2.7946    2.5572   -0.5099 H       1  UNL1        0.0308
     84 H           1.0634    2.8157   -0.7085 H       1  UNL1        0.0308
     85 H           1.2457    2.2166   -3.1086 H       1  UNL1        0.0571
     86 H           2.6281    2.4652   -4.9341 H       1  UNL1        0.0274
     87 H           2.9617    4.2598   -4.6723 H       1  UNL1        0.0274
     88 H           4.3506    3.1190   -4.7458 H       1  UNL1        0.0274
     89 H           4.3006    4.2672   -1.6298 H       1  UNL1        0.0274
     90 H           4.6080    2.4655   -1.4151 H       1  UNL1        0.0274
     91 H           5.2716    3.3616   -2.7918 H       1  UNL1        0.0274
@<TRIPOS>BOND
     1     1     2    1
     2     2     3    1
     3     2     4    1
     4     4     5    2
     5     6     4    1
     6     6     7    1
     7     7     8    1
     8     7     9    2
     9     9    10    1
    10    10    11    1
    11    11    12    2
    12    12    13    1
    13    12    14    1
    14     9    15    1
    15    15    16    2
    16    15    17    1
    17    17    18    1
    18    18    19    1
    19    19    20    2
    20    20    21    1
    21    20    22    1
    22    17    23    1
    23    23    24    1
    24    24    25    1
    25    25    26    1
    26    26    27    2
    27    27    28    1
    28    27    29    1
    29    24    30    1
    30    30    31    1
    31    30    32    1
    32    32    33    1
    33    33    34    1
    34    34    35    2
    35    35    36    1
    36    35    37    1
    37    17    38    1
    38    38    39    2
    39    30     6    1
    40    38     6    1
    41     1    40    1
    42     1    41    1
    43     1    42    1
    44     2    43    1
    45     3    44    1
    46     3    45    1
    47     3    46    1
    48     8    47    1
    49    10    48    1
    50    10    49    1
    51    11    50    1
    52    13    51    1
    53    13    52    1
    54    13    53    1
    55    14    54    1
    56    14    55    1
    57    14    56    1
    58    18    57    1
    59    18    58    1
    60    19    59    1
    61    21    60    1
    62    21    61    1
    63    21    62    1
    64    22    63    1
    65    22    64    1
    66    22    65    1
    67    23    66    1
    68    23    67    1
    69    24    68    1
    70    25    69    1
    71    25    70    1
    72    26    71    1
    73    28    72    1
    74    28    73    1
    75    28    74    1
    76    29    75    1
    77    29    76    1
    78    29    77    1
    79    31    78    1
    80    31    79    1
    81    31    80    1
    82    32    81    1
    83    32    82    1
    84    33    83    1
    85    33    84    1
    86    34    85    1
    87    36    86    1
    88    36    87    1
    89    36    88    1
    90    37    89    1
    91    37    90    1
    92    37    91    1
