
     RDKit          3D

 91 92  0  0  0  0  0  0  0  0999 V2000
    1.6900    2.5383    4.5750 C   0  0  0  0  0  0  0  0  0  0  0  0
    0.4255    1.9122    4.0305 C   0  0  0  0  0  0  0  0  0  0  0  0
    0.1114    0.7480    4.9846 C   0  0  0  0  0  0  0  0  0  0  0  0
    0.6431    1.3628    2.6783 C   0  0  0  0  0  0  0  0  0  0  0  0
    1.7122    1.7936    3.0451 O   0  0  0  0  0  0  0  0  0  0  0  0
    0.2994    0.7023    1.3902 C   0  0  1  0  0  0  0  0  0  0  0  0
   -0.6373    1.6793    0.7090 C   0  0  0  0  0  0  0  0  0  0  0  0
   -0.7609    3.0125    1.1699 O   0  0  0  0  0  0  0  0  0  0  0  0
   -1.3782    1.3277   -0.3343 C   0  0  0  0  0  0  0  0  0  0  0  0
   -1.7594    2.2814   -1.4174 C   0  0  0  0  0  0  0  0  0  0  0  0
   -3.2427    2.3956   -1.4916 C   0  0  0  0  0  0  0  0  0  0  0  0
   -4.1692    2.2056   -2.3933 C   0  0  0  0  0  0  0  0  0  0  0  0
   -4.0627    1.7649   -3.8006 C   0  0  0  0  0  0  0  0  0  0  0  0
   -5.5797    2.4457   -2.0330 C   0  0  0  0  0  0  0  0  0  0  0  0
   -1.8115   -0.0859   -0.3400 C   0  0  0  0  0  0  0  0  0  0  0  0
   -2.7568   -0.4218   -1.0985 O   0  0  0  0  0  0  0  0  0  0  0  0
   -1.1632   -1.1376    0.5284 C   0  0  1  0  0  0  0  0  0  0  0  0
   -2.2242   -2.1481    0.8773 C   0  0  0  0  0  0  0  0  0  0  0  0
   -2.7664   -2.7649   -0.3276 C   0  0  0  0  0  0  0  0  0  0  0  0
   -3.9735   -2.8756   -0.8706 C   0  0  0  0  0  0  0  0  0  0  0  0
   -5.2478   -2.3406   -0.3358 C   0  0  0  0  0  0  0  0  0  0  0  0
   -4.1203   -3.6059   -2.1546 C   0  0  0  0  0  0  0  0  0  0  0  0
    0.0162   -1.7384   -0.1503 C   0  0  0  0  0  0  0  0  0  0  0  0
    1.3532   -1.3103    0.3892 C   0  0  2  0  0  0  0  0  0  0  0  0
    1.8410   -2.1783    1.4985 C   0  0  0  0  0  0  0  0  0  0  0  0
    1.9879   -3.6182    1.0515 C   0  0  0  0  0  0  0  0  0  0  0  0
    3.1556   -4.2427    1.0873 C   0  0  0  0  0  0  0  0  0  0  0  0
    4.3754   -3.4915    1.5885 C   0  0  0  0  0  0  0  0  0  0  0  0
    3.3930   -5.6510    0.6707 C   0  0  0  0  0  0  0  0  0  0  0  0
    1.4215    0.1879    0.6205 C   0  0  2  0  0  0  0  0  0  0  0  0
    2.7753    0.3809    1.3189 C   0  0  0  0  0  0  0  0  0  0  0  0
    1.6279    0.7240   -0.7885 C   0  0  0  0  0  0  0  0  0  0  0  0
    1.8917    2.1419   -0.9847 C   0  0  0  0  0  0  0  0  0  0  0  0
    2.0889    2.4458   -2.4652 C   0  0  0  0  0  0  0  0  0  0  0  0
    3.2036    2.9622   -2.9882 C   0  0  0  0  0  0  0  0  0  0  0  0
    3.2788    3.2188   -4.4690 C   0  0  0  0  0  0  0  0  0  0  0  0
    4.3678    3.2845   -2.1298 C   0  0  0  0  0  0  0  0  0  0  0  0
   -0.6855   -0.4172    1.7495 C   0  0  0  0  0  0  0  0  0  0  0  0
   -1.1511   -0.8292    2.8230 O   0  0  0  0  0  0  0  0  0  0  0  0
    2.1112    3.3468    3.9691 H   0  0  0  0  0  0  0  0  0  0  0  0
    1.4471    2.8774    5.6145 H   0  0  0  0  0  0  0  0  0  0  0  0
    2.4802    1.7716    4.7172 H   0  0  0  0  0  0  0  0  0  0  0  0
   -0.4302    2.6200    4.0742 H   0  0  0  0  0  0  0  0  0  0  0  0
    0.4884    1.0099    6.0212 H   0  0  0  0  0  0  0  0  0  0  0  0
    0.6868   -0.1634    4.7317 H   0  0  0  0  0  0  0  0  0  0  0  0
   -0.9668    0.6007    5.1361 H   0  0  0  0  0  0  0  0  0  0  0  0
   -0.7260    3.7839    0.5353 H   0  0  0  0  0  0  0  0  0  0  0  0
   -1.2345    3.2320   -1.3252 H   0  0  0  0  0  0  0  0  0  0  0  0
   -1.4502    1.8409   -2.3952 H   0  0  0  0  0  0  0  0  0  0  0  0
   -3.5042    2.7271   -0.4968 H   0  0  0  0  0  0  0  0  0  0  0  0
   -4.6825    2.4030   -4.4813 H   0  0  0  0  0  0  0  0  0  0  0  0
   -4.4984    0.7465   -3.8766 H   0  0  0  0  0  0  0  0  0  0  0  0
   -3.0311    1.8473   -4.1987 H   0  0  0  0  0  0  0  0  0  0  0  0
   -6.0906    1.4556   -1.8471 H   0  0  0  0  0  0  0  0  0  0  0  0
   -6.1431    3.0212   -2.7680 H   0  0  0  0  0  0  0  0  0  0  0  0
   -5.6706    2.9658   -1.0385 H   0  0  0  0  0  0  0  0  0  0  0  0
   -3.0592   -1.5582    1.3429 H   0  0  0  0  0  0  0  0  0  0  0  0
   -1.8802   -2.8721    1.6439 H   0  0  0  0  0  0  0  0  0  0  0  0
   -1.9110   -3.2032   -0.8201 H   0  0  0  0  0  0  0  0  0  0  0  0
   -5.9359   -3.1419    0.0201 H   0  0  0  0  0  0  0  0  0  0  0  0
   -5.1143   -1.5762    0.4566 H   0  0  0  0  0  0  0  0  0  0  0  0
   -5.7982   -1.8294   -1.1765 H   0  0  0  0  0  0  0  0  0  0  0  0
   -3.2765   -4.3111   -2.3027 H   0  0  0  0  0  0  0  0  0  0  0  0
   -5.0653   -4.2245   -2.1542 H   0  0  0  0  0  0  0  0  0  0  0  0
   -4.1876   -2.8491   -2.9653 H   0  0  0  0  0  0  0  0  0  0  0  0
   -0.0064   -1.6196   -1.2571 H   0  0  0  0  0  0  0  0  0  0  0  0
   -0.0530   -2.8531   -0.0031 H   0  0  0  0  0  0  0  0  0  0  0  0
    2.0989   -1.5112   -0.4606 H   0  0  0  0  0  0  0  0  0  0  0  0
    1.0742   -2.2257    2.2872 H   0  0  0  0  0  0  0  0  0  0  0  0
    2.7758   -1.9062    1.9743 H   0  0  0  0  0  0  0  0  0  0  0  0
    1.2013   -4.2526    0.6816 H   0  0  0  0  0  0  0  0  0  0  0  0
    5.2686   -4.1190    1.6155 H   0  0  0  0  0  0  0  0  0  0  0  0
    4.1279   -3.2549    2.6668 H   0  0  0  0  0  0  0  0  0  0  0  0
    4.4857   -2.5425    1.0729 H   0  0  0  0  0  0  0  0  0  0  0  0
    2.4965   -6.1165    0.2300 H   0  0  0  0  0  0  0  0  0  0  0  0
    4.2448   -5.7490   -0.0388 H   0  0  0  0  0  0  0  0  0  0  0  0
    3.6715   -6.2995    1.5270 H   0  0  0  0  0  0  0  0  0  0  0  0
    3.4893   -0.2335    0.7341 H   0  0  0  0  0  0  0  0  0  0  0  0
    2.7378   -0.0303    2.3354 H   0  0  0  0  0  0  0  0  0  0  0  0
    3.1505    1.4142    1.2416 H   0  0  0  0  0  0  0  0  0  0  0  0
    2.4999    0.1593   -1.2424 H   0  0  0  0  0  0  0  0  0  0  0  0
    0.7867    0.4332   -1.4778 H   0  0  0  0  0  0  0  0  0  0  0  0
    2.7946    2.5572   -0.5099 H   0  0  0  0  0  0  0  0  0  0  0  0
    1.0634    2.8157   -0.7085 H   0  0  0  0  0  0  0  0  0  0  0  0
    1.2457    2.2166   -3.1086 H   0  0  0  0  0  0  0  0  0  0  0  0
    2.6281    2.4652   -4.9341 H   0  0  0  0  0  0  0  0  0  0  0  0
    2.9617    4.2598   -4.6723 H   0  0  0  0  0  0  0  0  0  0  0  0
    4.3506    3.1190   -4.7458 H   0  0  0  0  0  0  0  0  0  0  0  0
    4.3006    4.2672   -1.6298 H   0  0  0  0  0  0  0  0  0  0  0  0
    4.6080    2.4655   -1.4151 H   0  0  0  0  0  0  0  0  0  0  0  0
    5.2716    3.3616   -2.7918 H   0  0  0  0  0  0  0  0  0  0  0  0
  1  2  1  0
  2  3  1  0
  2  4  1  0
  4  5  2  0
  6  4  1  1
  6  7  1  0
  7  8  1  0
  7  9  2  0
  9 10  1  0
 10 11  1  0
 11 12  2  3
 12 13  1  0
 12 14  1  0
  9 15  1  0
 15 16  2  0
 15 17  1  0
 17 18  1  1
 18 19  1  0
 19 20  2  3
 20 21  1  0
 20 22  1  0
 17 23  1  0
 23 24  1  0
 24 25  1  0
 25 26  1  0
 26 27  2  3
 27 28  1  0
 27 29  1  0
 24 30  1  0
 30 31  1  1
 30 32  1  0
 32 33  1  0
 33 34  1  0
 34 35  2  3
 35 36  1  0
 35 37  1  0
 17 38  1  0
 38 39  2  0
 30  6  1  0
 38  6  1  0
  1 40  1  0
  1 41  1  0
  1 42  1  0
  2 43  1  0
  3 44  1  0
  3 45  1  0
  3 46  1  0
  8 47  1  0
 10 48  1  0
 10 49  1  0
 11 50  1  0
 13 51  1  0
 13 52  1  0
 13 53  1  0
 14 54  1  0
 14 55  1  0
 14 56  1  0
 18 57  1  0
 18 58  1  0
 19 59  1  0
 21 60  1  0
 21 61  1  0
 21 62  1  0
 22 63  1  0
 22 64  1  0
 22 65  1  0
 23 66  1  0
 23 67  1  0
 24 68  1  6
 25 69  1  0
 25 70  1  0
 26 71  1  0
 28 72  1  0
 28 73  1  0
 28 74  1  0
 29 75  1  0
 29 76  1  0
 29 77  1  0
 31 78  1  0
 31 79  1  0
 31 80  1  0
 32 81  1  0
 32 82  1  0
 33 83  1  0
 33 84  1  0
 34 85  1  0
 36 86  1  0
 36 87  1  0
 36 88  1  0
 37 89  1  0
 37 90  1  0
 37 91  1  0
M  END
$$$$
