@<TRIPOS>MOLECULE
*****
 21 22 0 0 0
SMALL
GASTEIGER

@<TRIPOS>ATOM
      1 O          -4.8091    0.8229   -0.4784 O.co2   1  UNL1       -0.5760
      2 N          -3.9681    0.0041    0.2371 N.pl3   1  UNL1        0.0796
      3 O          -4.5644   -0.7772    1.0047 O.2     1  UNL1        0.0414
      4 C          -2.5459    0.0374    0.1196 C.ar    1  UNL1        0.2732
      5 C          -1.8290   -0.8368    0.8945 C.ar    1  UNL1        0.0162
      6 C          -0.4552   -0.8184    0.7939 C.ar    1  UNL1       -0.0461
      7 C           0.1640    0.0754   -0.0805 C.ar    1  UNL1        0.0025
      8 C          -0.6238    0.9280   -0.8310 C.ar    1  UNL1       -0.0461
      9 C          -2.0030    0.9450   -0.7631 C.ar    1  UNL1        0.0162
     10 C           1.6168    0.1300   -0.2199 C.ar    1  UNL1        0.0925
     11 N           2.4212    0.9012   -0.9908 N.ar    1  UNL1       -0.1739
     12 N           3.6913    0.5875   -0.7742 N.ar    1  UNL1       -0.2842
     13 C           3.7855   -0.3963    0.1412 C.ar    1  UNL1        0.0229
     14 C           2.4860   -0.6881    0.4933 C.ar    1  UNL1       -0.0165
     15 H          -2.2902   -1.5287    1.5703 H       1  UNL1        0.0685
     16 H           0.1820   -1.4735    1.3685 H       1  UNL1        0.0626
     17 H          -0.1311    1.6305   -1.5187 H       1  UNL1        0.0626
     18 H          -2.6018    1.6137   -1.3529 H       1  UNL1        0.0685
     19 H           4.4885    1.0709   -1.2751 H       1  UNL1        0.1882
     20 H           4.7475   -0.7885    0.4500 H       1  UNL1        0.0824
     21 H           2.2388   -1.4394    1.2117 H       1  UNL1        0.0654
@<TRIPOS>UNITY_ATOM_ATTR
1 1
charge -1
2 1
charge 1
@<TRIPOS>BOND
     1     1     2    1
     2     2     3    2
     3     2     4    1
     4     4     5   ar
     5     5     6   ar
     6     6     7   ar
     7     7     8   ar
     8     8     9   ar
     9     7    10    1
    10    10    11   ar
    11    11    12   ar
    12    12    13   ar
    13    13    14   ar
    14     9     4   ar
    15    14    10   ar
    16     5    15    1
    17     6    16    1
    18     8    17    1
    19     9    18    1
    20    12    19    1
    21    13    20    1
    22    14    21    1
