
     RDKit          3D

 33 35  0  0  0  0  0  0  0  0999 V2000
    2.7055    0.3224   -0.1244 C   0  0  1  0  0  0  0  0  0  0  0  0
    3.3954   -0.1906   -1.3708 C   0  0  0  0  0  0  0  0  0  0  0  0
    3.5821    0.8261   -2.2923 O   0  0  0  0  0  0  0  0  0  0  0  0
    1.4704    0.8423   -0.4772 O   0  0  0  0  0  0  0  0  0  0  0  0
    0.5754    0.4899    0.5243 C   0  0  1  0  0  0  0  0  0  0  0  0
   -0.7533    0.6358    0.0054 N   0  0  0  0  0  0  0  0  0  0  0  0
   -1.3448    1.9161   -0.4087 C   0  0  0  0  0  0  0  0  0  0  0  0
   -2.7195    1.7328    0.0270 N   0  0  0  0  0  0  0  0  0  0  0  0
   -2.9763    0.3351   -0.2084 C   0  0  0  0  0  0  0  0  0  0  0  0
   -1.7582   -0.3474   -0.2222 C   0  0  0  0  0  0  0  0  0  0  0  0
   -1.6397   -1.6742   -0.4184 N   0  0  0  0  0  0  0  0  0  0  0  0
   -2.7909   -2.3686   -0.6123 C   0  0  0  0  0  0  0  0  0  0  0  0
   -4.0148   -1.7740   -0.6125 N   0  0  0  0  0  0  0  0  0  0  0  0
   -4.1242   -0.4346   -0.4137 C   0  0  0  0  0  0  0  0  0  0  0  0
   -5.3552    0.2166   -0.4056 O   0  0  0  0  0  0  0  0  0  0  0  0
    0.9760   -0.9021    0.8835 C   0  0  2  0  0  0  0  0  0  0  0  0
    0.5958   -1.2733    2.1590 O   0  0  0  0  0  0  0  0  0  0  0  0
    2.4892   -0.7953    0.8489 C   0  0  2  0  0  0  0  0  0  0  0  0
    2.9638   -0.3324    2.0986 O   0  0  0  0  0  0  0  0  0  0  0  0
    3.3318    1.1444    0.2682 H   0  0  0  0  0  0  0  0  0  0  0  0
    2.7728   -0.9836   -1.8791 H   0  0  0  0  0  0  0  0  0  0  0  0
    4.3653   -0.6632   -1.1216 H   0  0  0  0  0  0  0  0  0  0  0  0
    3.9347    1.6200   -1.8021 H   0  0  0  0  0  0  0  0  0  0  0  0
    0.8032    1.1362    1.3842 H   0  0  0  0  0  0  0  0  0  0  0  0
   -1.3241    1.8886   -1.5212 H   0  0  0  0  0  0  0  0  0  0  0  0
   -0.8470    2.7823    0.0349 H   0  0  0  0  0  0  0  0  0  0  0  0
   -3.4494    2.3820    0.4318 H   0  0  0  0  0  0  0  0  0  0  0  0
   -2.8446   -3.4451   -0.7828 H   0  0  0  0  0  0  0  0  0  0  0  0
   -5.6104    0.9349    0.2621 H   0  0  0  0  0  0  0  0  0  0  0  0
    0.6852   -1.6538    0.1211 H   0  0  0  0  0  0  0  0  0  0  0  0
    1.3501   -1.1970    2.7893 H   0  0  0  0  0  0  0  0  0  0  0  0
    2.9625   -1.7336    0.5634 H   0  0  0  0  0  0  0  0  0  0  0  0
    2.5933    0.5630    2.2714 H   0  0  0  0  0  0  0  0  0  0  0  0
  1  2  1  0
  2  3  1  0
  1  4  1  0
  4  5  1  0
  5  6  1  0
  6  7  1  0
  7  8  1  0
  8  9  1  0
  9 10  2  0
 10 11  1  0
 11 12  2  0
 12 13  1  0
 13 14  2  0
 14 15  1  0
  5 16  1  0
 16 17  1  0
 16 18  1  0
 18 19  1  0
 18  1  1  0
 10  6  1  0
 14  9  1  0
  1 20  1  1
  2 21  1  0
  2 22  1  0
  3 23  1  0
  5 24  1  1
  7 25  1  0
  7 26  1  0
  8 27  1  0
 12 28  1  0
 15 29  1  0
 16 30  1  6
 17 31  1  0
 18 32  1  6
 19 33  1  0
M  END
$$$$
