@<TRIPOS>MOLECULE
*****
 33 35 0 0 0
SMALL
GASTEIGER

@<TRIPOS>ATOM
      1 C4*         2.7055    0.3224   -0.1244 C.3     1    I1        0.1124
      2 C5*         3.3954   -0.1906   -1.3708 C.3     1    I1        0.0730
      3 O5*         3.5821    0.8261   -2.2923 O.3     1    I1       -0.3924
      4 O4*         1.4704    0.8423   -0.4772 O.3     1    I1       -0.3478
      5 C1*         0.5754    0.4899    0.5243 C.3     1    I1        0.1564
      6 N9         -0.7533    0.6358    0.0054 N.pl3   1    I1       -0.2698
      7 C8         -1.3448    1.9161   -0.4087 C.3     1    I1        0.0800
      8 N7         -2.7195    1.7328    0.0270 N.pl3   1    I1       -0.3214
      9 C5         -2.9763    0.3351   -0.2084 C.ar    1    I1        0.1311
     10 C4         -1.7582   -0.3474   -0.2222 C.ar    1    I1        0.1525
     11 N3         -1.6397   -1.6742   -0.4184 N.ar    1    I1       -0.2185
     12 C2         -2.7909   -2.3686   -0.6123 C.ar    1    I1        0.1220
     13 N1         -4.0148   -1.7740   -0.6125 N.ar    1    I1       -0.1999
     14 C6         -4.1242   -0.4346   -0.4137 C.ar    1    I1        0.2388
     15 O6         -5.3552    0.2166   -0.4056 O.3     1    I1       -0.4910
     16 C2*         0.9760   -0.9021    0.8835 C.3     1    I1        0.1263
     17 O2*         0.5958   -1.2733    2.1590 O.3     1    I1       -0.3849
     18 C3*         2.4892   -0.7953    0.8489 C.3     1    I1        0.1133
     19 O3*         2.9638   -0.3324    2.0986 O.3     1    I1       -0.3864
     20 H4*         3.3318    1.1444    0.2682 H       1    I1        0.0646
     21 H5*1        2.7728   -0.9836   -1.8791 H       1    I1        0.0584
     22 H5*2        4.3653   -0.6632   -1.1216 H       1    I1        0.0584
     23 H5*         3.9347    1.6200   -1.8021 H       1    I1        0.2095
     24 H1*         0.8032    1.1362    1.3842 H       1    I1        0.0837
     25 H81        -1.3241    1.8886   -1.5212 H       1    I1        0.0672
     26 H82        -0.8470    2.7823    0.0349 H       1    I1        0.0672
     27 H7         -3.4494    2.3820    0.4318 H       1    I1        0.1478
     28 H2         -2.8446   -3.4451   -0.7828 H       1    I1        0.1049
     29 H6         -5.6104    0.9349    0.2621 H       1    I1        0.2938
     30 H2*         0.6852   -1.6538    0.1211 H       1    I1        0.0663
     31 H2*         1.3501   -1.1970    2.7893 H       1    I1        0.2101
     32 H3*         2.9625   -1.7336    0.5634 H       1    I1        0.0647
     33 H3*         2.5933    0.5630    2.2714 H       1    I1        0.2100
@<TRIPOS>BOND
     1     1     2    1
     2     2     3    1
     3     1     4    1
     4     4     5    1
     5     5     6    1
     6     6     7    1
     7     7     8    1
     8     8     9    1
     9     9    10   ar
    10    10    11   ar
    11    11    12   ar
    12    12    13   ar
    13    13    14   ar
    14    14    15    1
    15     5    16    1
    16    16    17    1
    17    16    18    1
    18    18    19    1
    19    18     1    1
    20    10     6    1
    21    14     9   ar
    22     1    20    1
    23     2    21    1
    24     2    22    1
    25     3    23    1
    26     5    24    1
    27     7    25    1
    28     7    26    1
    29     8    27    1
    30    12    28    1
    31    15    29    1
    32    16    30    1
    33    17    31    1
    34    18    32    1
    35    19    33    1
