@<TRIPOS>MOLECULE
*****
 42 43 0 0 0
SMALL
GASTEIGER

@<TRIPOS>ATOM
      1 C          -1.6075   -0.1211   -0.7377 C.3     1  UNL1        0.0943
      2 C          -2.6585    0.4574   -1.6525 C.3     1  UNL1        0.1157
      3 O          -3.8622    0.7977   -1.0533 O.3     1  UNL1       -0.4894
      4 C          -4.7877    0.0514   -0.4051 C.ar    1  UNL1        0.1208
      5 C          -5.8198    0.8935    0.0228 C.ar    1  UNL1       -0.0172
      6 C          -6.9246    0.4020    0.7253 C.ar    1  UNL1       -0.0230
      7 C          -7.0112   -0.9502    1.0107 C.ar    1  UNL1        0.1236
      8 F          -8.0456   -1.5171    1.6862 F       1  UNL1       -0.2055
      9 C          -6.0134   -1.7951    0.6017 C.ar    1  UNL1       -0.0230
     10 C          -4.9498   -1.2715   -0.0834 C.ar    1  UNL1       -0.0172
     11 C          -1.2121    0.9731    0.2421 C.3     1  UNL1       -0.0201
     12 C          -0.1944    1.7265   -0.5756 C.3     1  UNL1       -0.0129
     13 C           0.4163    0.6237   -1.3936 C.3     1  UNL1        0.1195
     14 O          -0.4576   -0.4216   -1.4527 O.3     1  UNL1       -0.3575
     15 C           1.6526    0.2071   -0.6857 C.1     1  UNL1       -0.0706
     16 C           2.6586   -0.1467   -0.1253 C.1     1  UNL1       -0.0978
     17 C           3.9013   -0.5705    0.5439 C.3     1  UNL1        0.0293
     18 C           5.0572   -0.4652   -0.4161 C.3     1  UNL1        0.0613
     19 N           6.3223   -0.8541    0.1159 N.3     1  UNL1       -0.2067
     20 O           6.9966   -1.9569   -0.2877 O.3     1  UNL1       -0.2829
     21 C           6.8806   -0.0324    1.1127 C.2     1  UNL1        0.3083
     22 O           7.4054   -0.7213    2.2098 O.2     1  UNL1       -0.4788
     23 N           7.0141    1.2492    1.2331 N.2     1  UNL1       -0.2493
     24 H          -1.9949   -1.0040   -0.2463 H       1  UNL1        0.0630
     25 H          -2.2755    1.3955   -2.1461 H       1  UNL1        0.0723
     26 H          -2.8920   -0.2480   -2.4894 H       1  UNL1        0.0723
     27 H          -5.9308    1.9642   -0.1040 H       1  UNL1        0.0655
     28 H          -7.7575    0.9750    1.0867 H       1  UNL1        0.0647
     29 H          -6.0120   -2.8479    0.7866 H       1  UNL1        0.0647
     30 H          -4.1406   -1.8779   -0.4409 H       1  UNL1        0.0655
     31 H          -2.0775    1.6069    0.5279 H       1  UNL1        0.0292
     32 H          -0.7133    0.5319    1.1174 H       1  UNL1        0.0292
     33 H          -0.7299    2.3902   -1.2834 H       1  UNL1        0.0301
     34 H           0.5470    2.2694    0.0412 H       1  UNL1        0.0301
     35 H           0.7055    0.9915   -2.4082 H       1  UNL1        0.0734
     36 H           3.9990    0.0152    1.4567 H       1  UNL1        0.0416
     37 H           3.7622   -1.6310    0.8614 H       1  UNL1        0.0416
     38 H           5.1144    0.5950   -0.7554 H       1  UNL1        0.0524
     39 H           4.7560   -1.0541   -1.3280 H       1  UNL1        0.0524
     40 H           6.7603   -2.2398   -1.2153 H       1  UNL1        0.2445
     41 H           7.4499   -0.2939    3.1501 H       1  UNL1        0.2953
     42 H           6.6693    1.9041    0.4907 H       1  UNL1        0.1915
@<TRIPOS>BOND
     1     1     2    1
     2     2     3    1
     3     3     4    1
     4     4     5   ar
     5     5     6   ar
     6     6     7   ar
     7     7     8    1
     8     7     9   ar
     9     9    10   ar
    10     1    11    1
    11    11    12    1
    12    12    13    1
    13    13    14    1
    14    13    15    1
    15    15    16    3
    16    16    17    1
    17    17    18    1
    18    18    19    1
    19    19    20    1
    20    19    21    1
    21    21    22    1
    22    21    23    2
    23    14     1    1
    24    10     4   ar
    25     1    24    1
    26     2    25    1
    27     2    26    1
    28     5    27    1
    29     6    28    1
    30     9    29    1
    31    10    30    1
    32    11    31    1
    33    11    32    1
    34    12    33    1
    35    12    34    1
    36    13    35    1
    37    17    36    1
    38    17    37    1
    39    18    38    1
    40    18    39    1
    41    20    40    1
    42    22    41    1
    43    23    42    1
