@<TRIPOS>MOLECULE
*****
 55 58 0 0 0
SMALL
GASTEIGER

@<TRIPOS>ATOM
      1 C          -3.9017    2.6542   -0.6938 C.3     1  UNL1       -0.0219
      2 C          -2.4619    2.9126   -0.4434 C.ar    1  UNL1        0.0487
      3 C          -1.4862    1.9395   -0.3755 C.ar    1  UNL1        0.0841
      4 C          -1.5396    0.5549   -0.5066 C.ar    1  UNL1        0.2269
      5 O          -2.7599   -0.0024   -0.7488 O.3     1  UNL1       -0.4691
      6 C          -3.0161   -1.3780   -0.9111 C.3     1  UNL1        0.1373
      7 C          -3.6207   -1.5594   -2.2873 C.3     1  UNL1       -0.0241
      8 C          -4.0068   -1.7711    0.1736 C.3     1  UNL1        0.1564
      9 C          -4.3251   -3.2346    0.1620 C.3     1  UNL1        0.0554
     10 N          -4.6559   -3.4775    1.5701 N.am    1  UNL1       -0.2775
     11 C          -4.2169   -2.3441    2.3315 C.2     1  UNL1        0.4008
     12 O          -4.4487   -2.1492    3.5681 O.2     1  UNL1       -0.2265
     13 O          -3.5120   -1.5405    1.4551 O.3     1  UNL1       -0.4418
     14 N          -0.3921   -0.1208   -0.3852 N.ar    1  UNL1       -0.2121
     15 C           0.7915    0.4681   -0.1461 C.ar    1  UNL1        0.0798
     16 C           2.0260   -0.2960   -0.0188 C.ar    1  UNL1        0.0380
     17 C           2.1546   -1.6634   -0.1196 C.ar    1  UNL1        0.0586
     18 N           3.4322   -1.9508    0.0568 N.ar    1  UNL1       -0.1785
     19 N           4.1313   -0.8490    0.2649 N.ar    1  UNL1       -0.2655
     20 C           5.5602   -0.8556    0.4901 C.3     1  UNL1        0.0553
     21 C           6.0513    0.4634    1.0457 C.3     1  UNL1       -0.0403
     22 C           6.2360   -1.0560   -0.8524 C.3     1  UNL1       -0.0403
     23 C           5.9080   -1.9337    1.4678 C.3     1  UNL1       -0.0403
     24 C           3.2892    0.1970    0.2245 C.ar    1  UNL1        0.0353
     25 C           0.8410    1.8401   -0.0167 C.ar    1  UNL1       -0.0076
     26 C          -0.3093    2.6142   -0.1298 C.ar    1  UNL1        0.1001
     27 N          -0.5991    3.9222   -0.0597 N.ar    1  UNL1       -0.1710
     28 N          -1.8966    4.1173   -0.2474 N.ar    1  UNL1       -0.2703
     29 C          -2.5578    5.4272   -0.2358 C.3     1  UNL1        0.0305
     30 H          -4.4343    3.5587   -1.0117 H       1  UNL1        0.0293
     31 H          -3.9612    1.8612   -1.4895 H       1  UNL1        0.0293
     32 H          -4.3347    2.1923    0.2186 H       1  UNL1        0.0293
     33 H          -2.1203   -1.9979   -0.8249 H       1  UNL1        0.0769
     34 H          -3.3531   -2.5356   -2.7280 H       1  UNL1        0.0266
     35 H          -3.2349   -0.7778   -2.9774 H       1  UNL1        0.0266
     36 H          -4.7341   -1.4025   -2.2653 H       1  UNL1        0.0266
     37 H          -4.9636   -1.2205    0.0655 H       1  UNL1        0.0788
     38 H          -3.4934   -3.8886   -0.0939 H       1  UNL1        0.0501
     39 H          -5.2503   -3.4244   -0.4193 H       1  UNL1        0.0501
     40 H          -5.1284   -4.3181    1.9812 H       1  UNL1        0.1521
     41 H           1.3538   -2.3604   -0.3079 H       1  UNL1        0.0854
     42 H           7.1430    0.3376    1.2348 H       1  UNL1        0.0253
     43 H           5.5780    0.6159    2.0347 H       1  UNL1        0.0253
     44 H           5.8961    1.3056    0.3510 H       1  UNL1        0.0253
     45 H           7.3273   -1.2450   -0.7526 H       1  UNL1        0.0253
     46 H           6.1328   -0.0792   -1.3963 H       1  UNL1        0.0253
     47 H           5.7179   -1.8085   -1.4751 H       1  UNL1        0.0253
     48 H           7.0090   -1.9971    1.5991 H       1  UNL1        0.0253
     49 H           5.4825   -1.6516    2.4481 H       1  UNL1        0.0253
     50 H           5.5192   -2.9261    1.2079 H       1  UNL1        0.0253
     51 H           3.5693    1.2529    0.3623 H       1  UNL1        0.0833
     52 H           1.7777    2.3668    0.1780 H       1  UNL1        0.0661
     53 H          -2.2700    5.9177    0.7295 H       1  UNL1        0.0473
     54 H          -3.6552    5.2735   -0.1860 H       1  UNL1        0.0473
     55 H          -2.2880    6.0222   -1.1150 H       1  UNL1        0.0473
@<TRIPOS>BOND
     1     1     2    1
     2     2     3   ar
     3     3     4   ar
     4     4     5    1
     5     5     6    1
     6     6     7    1
     7     6     8    1
     8     8     9    1
     9     9    10    1
    10    10    11   am
    11    11    12    2
    12    11    13    1
    13     4    14   ar
    14    14    15   ar
    15    15    16    1
    16    16    17   ar
    17    17    18   ar
    18    18    19   ar
    19    19    20    1
    20    20    21    1
    21    20    22    1
    22    20    23    1
    23    19    24   ar
    24    15    25   ar
    25    25    26   ar
    26    26    27   ar
    27    27    28   ar
    28    28    29    1
    29    28     2   ar
    30    26     3   ar
    31    13     8    1
    32    24    16   ar
    33     1    30    1
    34     1    31    1
    35     1    32    1
    36     6    33    1
    37     7    34    1
    38     7    35    1
    39     7    36    1
    40     8    37    1
    41     9    38    1
    42     9    39    1
    43    10    40    1
    44    17    41    1
    45    21    42    1
    46    21    43    1
    47    21    44    1
    48    22    45    1
    49    22    46    1
    50    22    47    1
    51    23    48    1
    52    23    49    1
    53    23    50    1
    54    24    51    1
    55    25    52    1
    56    29    53    1
    57    29    54    1
    58    29    55    1
