@<TRIPOS>MOLECULE
*****
 43 47 0 0 0
SMALL
GASTEIGER

@<TRIPOS>ATOM
      1 C          -6.6743    1.9279   -0.1089 C.3     1  UNL1        0.0790
      2 O          -6.6291    0.5327    0.0005 O.3     1  UNL1       -0.4914
      3 C          -5.4477   -0.1742   -0.0358 C.ar    1  UNL1        0.1618
      4 C          -4.1724    0.3280   -0.1773 C.ar    1  UNL1       -0.0086
      5 C          -3.1291   -0.5722   -0.1871 C.ar    1  UNL1       -0.0141
      6 C          -3.3192   -1.9352   -0.0619 C.ar    1  UNL1       -0.0503
      7 C          -4.6109   -2.4435    0.0813 C.ar    1  UNL1       -0.0159
      8 C          -5.6685   -1.5297    0.0912 C.ar    1  UNL1        0.1585
      9 O          -6.8970   -2.1651    0.2395 O.3     1  UNL1       -0.5033
     10 C          -1.7743   -0.0617   -0.3370 C.ar    1  UNL1       -0.0157
     11 C          -1.3918    1.0545   -1.0461 C.ar    1  UNL1       -0.0286
     12 C          -0.0723    1.4280   -1.1102 C.ar    1  UNL1        0.0670
     13 C           0.9322    0.7106   -0.4728 C.ar    1  UNL1        0.0304
     14 C           0.5746   -0.4189    0.2488 C.ar    1  UNL1       -0.0498
     15 C          -0.7600   -0.7611    0.2894 C.ar    1  UNL1       -0.0533
     16 C           2.1385    1.3102   -0.7088 C.ar    1  UNL1        0.1352
     17 N           1.8727    2.3825   -1.4824 N.ar    1  UNL1       -0.1696
     18 N           0.5664    2.4446   -1.7144 N.ar    1  UNL1       -0.2763
     19 C           3.4499    0.8891   -0.2315 C.ar    1  UNL1        0.1600
     20 N           3.7066   -0.1749    0.5339 N.ar    1  UNL1       -0.2261
     21 C           5.0395   -0.2656    0.7876 C.ar    1  UNL1        0.0895
     22 C           5.8744   -1.1102    1.4854 C.ar    1  UNL1       -0.0342
     23 C           7.2219   -0.8383    1.4933 C.ar    1  UNL1       -0.0596
     24 C           7.8272    0.2234    0.8538 C.ar    1  UNL1       -0.0597
     25 C           6.9567    1.0618    0.1549 C.ar    1  UNL1       -0.0362
     26 C           5.6021    0.8122    0.1308 C.ar    1  UNL1        0.0665
     27 N           4.6173    1.5059   -0.4857 N.ar    1  UNL1       -0.3366
     28 H          -7.6904    2.3010   -0.3646 H       1  UNL1        0.0660
     29 H          -6.0302    2.2292   -0.9812 H       1  UNL1        0.0660
     30 H          -6.2914    2.4665    0.7638 H       1  UNL1        0.0660
     31 H          -4.0899    1.3915   -0.2699 H       1  UNL1        0.0661
     32 H          -2.4821   -2.6288   -0.0722 H       1  UNL1        0.0625
     33 H          -4.7053   -3.5160    0.1747 H       1  UNL1        0.0655
     34 H          -7.2507   -2.3102    1.1968 H       1  UNL1        0.2923
     35 H          -2.1824    1.6024   -1.5372 H       1  UNL1        0.0645
     36 H           1.3448   -0.9914    0.7514 H       1  UNL1        0.0625
     37 H          -0.9591   -1.6550    0.8728 H       1  UNL1        0.0624
     38 H           0.1213    3.1889   -2.2898 H       1  UNL1        0.1889
     39 H           5.4369   -1.9490    1.9963 H       1  UNL1        0.0639
     40 H           7.8934   -1.5057    2.0462 H       1  UNL1        0.0618
     41 H           8.8960    0.3867    0.8949 H       1  UNL1        0.0618
     42 H           7.4261    1.9016   -0.3520 H       1  UNL1        0.0639
     43 H           4.7294    2.3691   -1.0603 H       1  UNL1        0.1674
@<TRIPOS>BOND
     1     1     2    1
     2     2     3    1
     3     3     4   ar
     4     4     5   ar
     5     5     6   ar
     6     6     7   ar
     7     7     8   ar
     8     8     9    1
     9     5    10    1
    10    10    11   ar
    11    11    12   ar
    12    12    13   ar
    13    13    14   ar
    14    14    15   ar
    15    13    16   ar
    16    16    17   ar
    17    17    18   ar
    18    16    19    1
    19    19    20   ar
    20    20    21   ar
    21    21    22   ar
    22    22    23   ar
    23    23    24   ar
    24    24    25   ar
    25    25    26   ar
    26    26    27   ar
    27     8     3   ar
    28    15    10   ar
    29    27    19   ar
    30    18    12   ar
    31    26    21   ar
    32     1    28    1
    33     1    29    1
    34     1    30    1
    35     4    31    1
    36     6    32    1
    37     7    33    1
    38     9    34    1
    39    11    35    1
    40    14    36    1
    41    15    37    1
    42    18    38    1
    43    22    39    1
    44    23    40    1
    45    24    41    1
    46    25    42    1
    47    27    43    1
