
     RDKit          3D

 43 47  0  0  0  0  0  0  0  0999 V2000
   -6.6743    1.9279   -0.1089 C   0  0  0  0  0  0  0  0  0  0  0  0
   -6.6291    0.5327    0.0005 O   0  0  0  0  0  0  0  0  0  0  0  0
   -5.4477   -0.1742   -0.0358 C   0  0  0  0  0  0  0  0  0  0  0  0
   -4.1724    0.3280   -0.1773 C   0  0  0  0  0  0  0  0  0  0  0  0
   -3.1291   -0.5722   -0.1871 C   0  0  0  0  0  0  0  0  0  0  0  0
   -3.3192   -1.9352   -0.0619 C   0  0  0  0  0  0  0  0  0  0  0  0
   -4.6109   -2.4435    0.0813 C   0  0  0  0  0  0  0  0  0  0  0  0
   -5.6685   -1.5297    0.0912 C   0  0  0  0  0  0  0  0  0  0  0  0
   -6.8970   -2.1651    0.2395 O   0  0  0  0  0  0  0  0  0  0  0  0
   -1.7743   -0.0617   -0.3370 C   0  0  0  0  0  0  0  0  0  0  0  0
   -1.3918    1.0545   -1.0461 C   0  0  0  0  0  0  0  0  0  0  0  0
   -0.0723    1.4280   -1.1102 C   0  0  0  0  0  0  0  0  0  0  0  0
    0.9322    0.7106   -0.4728 C   0  0  0  0  0  0  0  0  0  0  0  0
    0.5746   -0.4189    0.2488 C   0  0  0  0  0  0  0  0  0  0  0  0
   -0.7600   -0.7611    0.2894 C   0  0  0  0  0  0  0  0  0  0  0  0
    2.1385    1.3102   -0.7088 C   0  0  0  0  0  0  0  0  0  0  0  0
    1.8727    2.3825   -1.4824 N   0  0  0  0  0  0  0  0  0  0  0  0
    0.5664    2.4446   -1.7144 N   0  0  0  0  0  0  0  0  0  0  0  0
    3.4499    0.8891   -0.2315 C   0  0  0  0  0  0  0  0  0  0  0  0
    3.7066   -0.1749    0.5339 N   0  0  0  0  0  0  0  0  0  0  0  0
    5.0395   -0.2656    0.7876 C   0  0  0  0  0  0  0  0  0  0  0  0
    5.8744   -1.1102    1.4854 C   0  0  0  0  0  0  0  0  0  0  0  0
    7.2219   -0.8383    1.4933 C   0  0  0  0  0  0  0  0  0  0  0  0
    7.8272    0.2234    0.8538 C   0  0  0  0  0  0  0  0  0  0  0  0
    6.9567    1.0618    0.1549 C   0  0  0  0  0  0  0  0  0  0  0  0
    5.6021    0.8122    0.1308 C   0  0  0  0  0  0  0  0  0  0  0  0
    4.6173    1.5059   -0.4857 N   0  0  0  0  0  0  0  0  0  0  0  0
   -7.6904    2.3010   -0.3646 H   0  0  0  0  0  0  0  0  0  0  0  0
   -6.0302    2.2292   -0.9812 H   0  0  0  0  0  0  0  0  0  0  0  0
   -6.2914    2.4665    0.7638 H   0  0  0  0  0  0  0  0  0  0  0  0
   -4.0899    1.3915   -0.2699 H   0  0  0  0  0  0  0  0  0  0  0  0
   -2.4821   -2.6288   -0.0722 H   0  0  0  0  0  0  0  0  0  0  0  0
   -4.7053   -3.5160    0.1747 H   0  0  0  0  0  0  0  0  0  0  0  0
   -7.2507   -2.3102    1.1968 H   0  0  0  0  0  0  0  0  0  0  0  0
   -2.1824    1.6024   -1.5372 H   0  0  0  0  0  0  0  0  0  0  0  0
    1.3448   -0.9914    0.7514 H   0  0  0  0  0  0  0  0  0  0  0  0
   -0.9591   -1.6550    0.8728 H   0  0  0  0  0  0  0  0  0  0  0  0
    0.1213    3.1889   -2.2898 H   0  0  0  0  0  0  0  0  0  0  0  0
    5.4369   -1.9490    1.9963 H   0  0  0  0  0  0  0  0  0  0  0  0
    7.8934   -1.5057    2.0462 H   0  0  0  0  0  0  0  0  0  0  0  0
    8.8960    0.3867    0.8949 H   0  0  0  0  0  0  0  0  0  0  0  0
    7.4261    1.9016   -0.3520 H   0  0  0  0  0  0  0  0  0  0  0  0
    4.7294    2.3691   -1.0603 H   0  0  0  0  0  0  0  0  0  0  0  0
  1  2  1  0
  2  3  1  0
  3  4  2  0
  4  5  1  0
  5  6  2  0
  6  7  1  0
  7  8  2  0
  8  9  1  0
  5 10  1  0
 10 11  2  0
 11 12  1  0
 12 13  2  0
 13 14  1  0
 14 15  2  0
 13 16  1  0
 16 17  2  0
 17 18  1  0
 16 19  1  0
 19 20  2  0
 20 21  1  0
 21 22  2  0
 22 23  1  0
 23 24  2  0
 24 25  1  0
 25 26  2  0
 26 27  1  0
  8  3  1  0
 15 10  1  0
 27 19  1  0
 18 12  1  0
 26 21  1  0
  1 28  1  0
  1 29  1  0
  1 30  1  0
  4 31  1  0
  6 32  1  0
  7 33  1  0
  9 34  1  0
 11 35  1  0
 14 36  1  0
 15 37  1  0
 18 38  1  0
 22 39  1  0
 23 40  1  0
 24 41  1  0
 25 42  1  0
 27 43  1  0
M  END
$$$$
