
     RDKit          3D

114116  0  0  0  0  0  0  0  0999 V2000
   10.2747    0.1101   -0.7744 C   0  0  2  0  0  0  0  0  0  0  0  0
    9.5611    0.5028   -1.9004 O   0  0  0  0  0  0  0  0  0  0  0  0
   11.3030   -0.9079   -1.1630 C   0  0  0  0  0  0  0  0  0  0  0  0
   12.3118   -0.4157   -2.1564 C   0  0  0  0  0  0  0  0  0  0  0  0
   13.0705    0.7527   -1.6099 C   0  0  0  0  0  0  0  0  0  0  0  0
   13.8036    0.3933   -0.3284 C   0  0  0  0  0  0  0  0  0  0  0  0
   14.5400    1.6338    0.1474 C   0  0  0  0  0  0  0  0  0  0  0  0
   15.2937    1.3249    1.4309 C   0  0  0  0  0  0  0  0  0  0  0  0
   14.3051    0.8823    2.4997 C   0  0  0  0  0  0  0  0  0  0  0  0
    9.3465   -0.4377    0.2484 C   0  0  0  0  0  0  0  0  0  0  0  0
    8.6126   -1.6016   -0.2695 C   0  0  0  0  0  0  0  0  0  0  0  0
    9.0481   -2.7090   -0.4689 O   0  0  0  0  0  0  0  0  0  0  0  0
    6.8723   -1.4057   -0.6629 S   0  0  0  0  0  0  0  0  0  0  0  0
    6.1044   -2.9199   -1.2395 C   0  0  0  0  0  0  0  0  0  0  0  0
    4.6027   -2.7239   -1.5016 C   0  0  0  0  0  0  0  0  0  0  0  0
    4.3022   -1.7676   -2.4759 N   0  0  0  0  0  0  0  0  0  0  0  0
    3.6803   -0.6862   -2.5254 C   0  0  0  0  0  0  0  0  0  0  0  0
    3.8350   -0.3448   -3.8569 O   0  0  0  0  0  0  0  0  0  0  0  0
    2.8676    0.4352   -1.9440 C   0  0  0  0  0  0  0  0  0  0  0  0
    2.6627    0.1995   -0.4726 C   0  0  0  0  0  0  0  0  0  0  0  0
    1.9714   -1.0045   -0.1719 N   0  0  0  0  0  0  0  0  0  0  0  0
    0.8523   -1.0107    0.4433 C   0  0  0  0  0  0  0  0  0  0  0  0
    1.3391   -2.2399    0.0951 O   0  0  0  0  0  0  0  0  0  0  0  0
   -0.1986   -0.1517    1.0754 C   0  0  2  0  0  0  0  0  0  0  0  0
   -0.3379   -0.5294    2.3956 O   0  0  0  0  0  0  0  0  0  0  0  0
   -1.4892   -0.4303    0.3433 C   0  0  0  0  0  0  0  0  0  0  0  0
   -1.7517   -1.9356    0.5263 C   0  0  0  0  0  0  0  0  0  0  0  0
   -1.4058   -0.1273   -1.1280 C   0  0  0  0  0  0  0  0  0  0  0  0
   -2.6563    0.3402    0.9367 C   0  0  0  0  0  0  0  0  0  0  0  0
   -2.4669    1.7161    0.8932 O   0  0  0  0  0  0  0  0  0  0  0  0
   -3.8628    2.5250    1.4362 P   0  0  0  0  0  0  0  0  0  0  0  0
   -4.2744    3.8257    0.4684 O   0  0  0  0  0  0  0  0  0  0  0  0
   -3.6257    2.9263    2.8689 O   0  0  0  0  0  0  0  0  0  0  0  0
   -5.1664    1.4197    1.4103 O   0  0  0  0  0  0  0  0  0  0  0  0
   -5.8191    1.1607    2.9281 P   0  0  0  0  0  0  0  0  0  0  0  0
   -6.1308    2.5711    3.7723 O   0  0  0  0  0  0  0  0  0  0  0  0
   -4.9133    0.2328    3.7282 O   0  0  0  0  0  0  0  0  0  0  0  0
   -7.2812    0.3220    2.7332 O   0  0  0  0  0  0  0  0  0  0  0  0
   -8.1262    0.9564    1.8570 C   0  0  0  0  0  0  0  0  0  0  0  0
   -9.3911    0.1675    1.6060 C   0  0  1  0  0  0  0  0  0  0  0  0
  -10.1436    0.9441    0.7046 O   0  0  0  0  0  0  0  0  0  0  0  0
  -11.0683   -0.0129    0.2479 C   0  0  1  0  0  0  0  0  0  0  0  0
  -11.9394    0.5227   -0.7575 N   0  0  0  0  0  0  0  0  0  0  0  0
  -11.7770    0.4596   -2.0849 C   0  0  0  0  0  0  0  0  0  0  0  0
  -12.8138    1.0830   -2.6821 N   0  0  0  0  0  0  0  0  0  0  0  0
  -13.6028    1.5219   -1.6956 C   0  0  0  0  0  0  0  0  0  0  0  0
  -14.8007    2.2271   -1.8125 C   0  0  0  0  0  0  0  0  0  0  0  0
  -15.3521    2.5823   -3.0885 N   0  0  0  0  0  0  0  0  0  0  0  0
  -15.4161    2.5589   -0.6389 N   0  0  0  0  0  0  0  0  0  0  0  0
  -14.9117    2.2338    0.5649 C   0  0  0  0  0  0  0  0  0  0  0  0
  -13.7373    1.5435    0.6487 N   0  0  0  0  0  0  0  0  0  0  0  0
  -13.0760    1.1827   -0.4619 C   0  0  0  0  0  0  0  0  0  0  0  0
  -10.1077   -1.0617   -0.2673 C   0  0  2  0  0  0  0  0  0  0  0  0
  -10.6664   -2.2810   -0.5233 O   0  0  0  0  0  0  0  0  0  0  0  0
   -9.0862   -1.0651    0.8496 C   0  0  2  0  0  0  0  0  0  0  0  0
   -9.0394   -2.2438    1.5411 O   0  0  0  0  0  0  0  0  0  0  0  0
   -7.6928   -3.1783    1.3707 P   0  0  0  0  0  0  0  0  0  0  0  0
   -6.2669   -2.4993    1.9736 O   0  0  0  0  0  0  0  0  0  0  0  0
   -7.9029   -4.7697    1.8944 O   0  0  0  0  0  0  0  0  0  0  0  0
   -7.4361   -3.3092   -0.1386 O   0  0  0  0  0  0  0  0  0  0  0  0
   10.7920    1.0425   -0.3834 H   0  0  0  0  0  0  0  0  0  0  0  0
    8.6588    0.7584   -1.6177 H   0  0  0  0  0  0  0  0  0  0  0  0
   10.8127   -1.8244   -1.6034 H   0  0  0  0  0  0  0  0  0  0  0  0
   11.8218   -1.2901   -0.2585 H   0  0  0  0  0  0  0  0  0  0  0  0
   13.0292   -1.2445   -2.3525 H   0  0  0  0  0  0  0  0  0  0  0  0
   11.8161   -0.1208   -3.1040 H   0  0  0  0  0  0  0  0  0  0  0  0
   12.3769    1.5978   -1.4535 H   0  0  0  0  0  0  0  0  0  0  0  0
   13.8274    1.0350   -2.4014 H   0  0  0  0  0  0  0  0  0  0  0  0
   14.5238   -0.4282   -0.5010 H   0  0  0  0  0  0  0  0  0  0  0  0
   13.0726    0.1158    0.4503 H   0  0  0  0  0  0  0  0  0  0  0  0
   13.8329    2.4585    0.2816 H   0  0  0  0  0  0  0  0  0  0  0  0
   15.3045    1.8900   -0.6094 H   0  0  0  0  0  0  0  0  0  0  0  0
   16.0575    0.5636    1.2518 H   0  0  0  0  0  0  0  0  0  0  0  0
   15.7494    2.2670    1.7771 H   0  0  0  0  0  0  0  0  0  0  0  0
   14.8023    0.9510    3.4849 H   0  0  0  0  0  0  0  0  0  0  0  0
   13.4322    1.5413    2.5271 H   0  0  0  0  0  0  0  0  0  0  0  0
   14.0567   -0.1714    2.3044 H   0  0  0  0  0  0  0  0  0  0  0  0
    8.6327    0.3733    0.5744 H   0  0  0  0  0  0  0  0  0  0  0  0
    9.9296   -0.7905    1.1427 H   0  0  0  0  0  0  0  0  0  0  0  0
    6.1434   -3.6622   -0.4112 H   0  0  0  0  0  0  0  0  0  0  0  0
    6.6046   -3.3029   -2.1546 H   0  0  0  0  0  0  0  0  0  0  0  0
    4.2609   -3.7307   -1.9002 H   0  0  0  0  0  0  0  0  0  0  0  0
    4.1631   -2.5635   -0.4986 H   0  0  0  0  0  0  0  0  0  0  0  0
    4.1721   -0.9019   -4.5963 H   0  0  0  0  0  0  0  0  0  0  0  0
    3.4179    1.4049   -2.0843 H   0  0  0  0  0  0  0  0  0  0  0  0
    1.9067    0.5338   -2.4660 H   0  0  0  0  0  0  0  0  0  0  0  0
    3.6554    0.1801    0.0650 H   0  0  0  0  0  0  0  0  0  0  0  0
    2.0937    1.0511   -0.0107 H   0  0  0  0  0  0  0  0  0  0  0  0
    0.9114   -3.1247    0.2855 H   0  0  0  0  0  0  0  0  0  0  0  0
    0.0824    0.9090    0.9572 H   0  0  0  0  0  0  0  0  0  0  0  0
    0.0410    0.1682    2.9820 H   0  0  0  0  0  0  0  0  0  0  0  0
   -1.4991   -2.4431   -0.4386 H   0  0  0  0  0  0  0  0  0  0  0  0
   -2.7963   -2.0889    0.8047 H   0  0  0  0  0  0  0  0  0  0  0  0
   -1.1229   -2.3686    1.3098 H   0  0  0  0  0  0  0  0  0  0  0  0
   -2.4199    0.0581   -1.5449 H   0  0  0  0  0  0  0  0  0  0  0  0
   -0.7539    0.7812   -1.2358 H   0  0  0  0  0  0  0  0  0  0  0  0
   -0.9850   -0.9725   -1.7136 H   0  0  0  0  0  0  0  0  0  0  0  0
   -3.5906    0.1128    0.3646 H   0  0  0  0  0  0  0  0  0  0  0  0
   -2.7924   -0.0113    1.9956 H   0  0  0  0  0  0  0  0  0  0  0  0
   -3.8488    4.6619    0.7248 H   0  0  0  0  0  0  0  0  0  0  0  0
   -7.0845    2.7085    3.9119 H   0  0  0  0  0  0  0  0  0  0  0  0
   -7.5901    0.9547    0.8631 H   0  0  0  0  0  0  0  0  0  0  0  0
   -8.3129    2.0146    2.0992 H   0  0  0  0  0  0  0  0  0  0  0  0
  -10.0167    0.0373    2.4958 H   0  0  0  0  0  0  0  0  0  0  0  0
  -11.6356   -0.3434    1.1310 H   0  0  0  0  0  0  0  0  0  0  0  0
  -10.9882    0.0104   -2.6578 H   0  0  0  0  0  0  0  0  0  0  0  0
  -14.8510    3.4482   -3.3956 H   0  0  0  0  0  0  0  0  0  0  0  0
  -16.1139    2.0989   -3.6504 H   0  0  0  0  0  0  0  0  0  0  0  0
  -15.4609    2.5341    1.4455 H   0  0  0  0  0  0  0  0  0  0  0  0
   -9.7022   -0.6513   -1.2192 H   0  0  0  0  0  0  0  0  0  0  0  0
  -10.2557   -2.6667   -1.3346 H   0  0  0  0  0  0  0  0  0  0  0  0
   -8.1031   -0.9409    0.3392 H   0  0  0  0  0  0  0  0  0  0  0  0
   -6.1134   -2.8519    2.8913 H   0  0  0  0  0  0  0  0  0  0  0  0
   -8.7704   -4.9571    2.2980 H   0  0  0  0  0  0  0  0  0  0  0  0
  1  2  1  0
  1  3  1  0
  3  4  1  0
  4  5  1  0
  5  6  1  0
  6  7  1  0
  7  8  1  0
  8  9  1  0
  1 10  1  0
 10 11  1  0
 11 12  2  0
 11 13  1  0
 13 14  1  0
 14 15  1  0
 15 16  1  0
 16 17  2  3
 17 18  1  0
 17 19  1  0
 19 20  1  0
 20 21  1  0
 21 22  2  3
 22 23  1  0
 22 24  1  0
 24 25  1  0
 24 26  1  0
 26 27  1  0
 26 28  1  0
 26 29  1  0
 29 30  1  0
 30 31  1  0
 31 32  1  0
 31 33  2  0
 31 34  1  0
 34 35  1  0
 35 36  1  0
 35 37  2  0
 35 38  1  0
 38 39  1  0
 39 40  1  0
 40 41  1  0
 41 42  1  0
 42 43  1  0
 43 44  1  0
 44 45  2  0
 45 46  1  0
 46 47  2  0
 47 48  1  0
 47 49  1  0
 49 50  2  0
 50 51  1  0
 51 52  2  0
 42 53  1  0
 53 54  1  0
 53 55  1  0
 55 56  1  0
 56 57  1  0
 57 58  1  0
 57 59  1  0
 57 60  2  0
 55 40  1  0
 52 43  1  0
 52 46  1  0
  1 61  1  1
  2 62  1  0
  3 63  1  0
  3 64  1  0
  4 65  1  0
  4 66  1  0
  5 67  1  0
  5 68  1  0
  6 69  1  0
  6 70  1  0
  7 71  1  0
  7 72  1  0
  8 73  1  0
  8 74  1  0
  9 75  1  0
  9 76  1  0
  9 77  1  0
 10 78  1  0
 10 79  1  0
 14 80  1  0
 14 81  1  0
 15 82  1  0
 15 83  1  0
 18 84  1  0
 19 85  1  0
 19 86  1  0
 20 87  1  0
 20 88  1  0
 23 89  1  0
 24 90  1  1
 25 91  1  0
 27 92  1  0
 27 93  1  0
 27 94  1  0
 28 95  1  0
 28 96  1  0
 28 97  1  0
 29 98  1  0
 29 99  1  0
 32100  1  0
 36101  1  0
 39102  1  0
 39103  1  0
 40104  1  1
 42105  1  1
 44106  1  0
 48107  1  0
 48108  1  0
 50109  1  0
 53110  1  6
 54111  1  0
 55112  1  6
 58113  1  0
 59114  1  0
M  END
$$$$
