@<TRIPOS>MOLECULE
*****
 53 55 0 0 0
SMALL
GASTEIGER

@<TRIPOS>ATOM
      1 C          -9.2861    2.3137   -0.5621 C.2     1  UNL1       -0.0938
      2 C          -8.0080    2.5036   -0.8027 C.2     1  UNL1       -0.0066
      3 C          -7.0443    1.5241   -0.3134 C.2     1  UNL1        0.2405
      4 O          -7.4418    0.5018    0.3340 O.2     1  UNL1       -0.2705
      5 N          -5.6486    1.6357   -0.5149 N.am    1  UNL1       -0.2820
      6 C          -4.7554    0.6343   -0.0072 C.ar    1  UNL1        0.0338
      7 C          -4.2102    0.7070    1.2549 C.ar    1  UNL1       -0.0386
      8 C          -3.3491   -0.2221    1.7920 C.ar    1  UNL1       -0.0336
      9 C          -3.0210   -1.3020    0.9837 C.ar    1  UNL1        0.1056
     10 S          -1.9243   -2.4854    1.6698 S.O2    1  UNL1        0.0609
     11 O          -2.1176   -2.5193    3.1519 O.2     1  UNL1       -0.1528
     12 O          -2.2808   -3.8089    1.1086 O.2     1  UNL1       -0.1528
     13 N          -0.3099   -2.0238    1.3359 N.3     1  UNL1       -0.1736
     14 C           0.0338   -0.7580    1.9156 C.3     1  UNL1        0.0364
     15 C           1.5447   -0.5815    1.8976 C.3     1  UNL1        0.0323
     16 N           2.0099   -0.7221    0.5528 N.am    1  UNL1       -0.2649
     17 C           3.0599    0.1601    0.0817 C.2     1  UNL1        0.4033
     18 O           3.5003    1.0151    0.8836 O.2     1  UNL1       -0.2262
     19 O           3.5730    0.1055   -1.1485 O.3     1  UNL1       -0.4454
     20 C           4.5440    0.8014   -1.8287 C.3     1  UNL1        0.1219
     21 C           5.8935    0.7625   -1.2592 C.ar    1  UNL1        0.0278
     22 C           6.7137   -0.2664   -1.6718 C.ar    1  UNL1       -0.0524
     23 C           7.9582   -0.3965   -1.1425 C.ar    1  UNL1       -0.0585
     24 C           8.4411    0.4603   -0.2050 C.ar    1  UNL1       -0.0236
     25 C           7.6372    1.4930    0.2173 C.ar    1  UNL1        0.1588
     26 F           8.1038    2.3568    1.1526 F       1  UNL1       -0.2025
     27 C           6.3565    1.6390   -0.3190 C.ar    1  UNL1        0.1648
     28 F           5.6425    2.7153    0.1080 F       1  UNL1       -0.2021
     29 C           1.4584   -1.7088   -0.3336 C.3     1  UNL1        0.0323
     30 C           0.0388   -2.0680   -0.0481 C.3     1  UNL1        0.0364
     31 C          -3.5417   -1.4175   -0.2856 C.ar    1  UNL1       -0.0336
     32 C          -4.4121   -0.4490   -0.7877 C.ar    1  UNL1       -0.0386
     33 H          -9.6311    1.4539   -0.0142 H       1  UNL1        0.0536
     34 H         -10.0163    3.0206   -0.9122 H       1  UNL1        0.0536
     35 H          -7.6929    3.3653   -1.3498 H       1  UNL1        0.0663
     36 H          -5.3060    2.4716   -1.0449 H       1  UNL1        0.1551
     37 H          -4.4822    1.5597    1.8641 H       1  UNL1        0.0637
     38 H          -2.9378   -0.1269    2.8032 H       1  UNL1        0.0638
     39 H          -0.3353   -0.7534    2.9593 H       1  UNL1        0.0459
     40 H          -0.4494    0.0382    1.3296 H       1  UNL1        0.0459
     41 H           1.9564   -1.4004    2.5565 H       1  UNL1        0.0479
     42 H           1.7692    0.3807    2.3729 H       1  UNL1        0.0479
     43 H           4.6114    0.4903   -2.9037 H       1  UNL1        0.0750
     44 H           4.1899    1.8855   -1.9264 H       1  UNL1        0.0750
     45 H           6.3693   -0.9827   -2.4242 H       1  UNL1        0.0622
     46 H           8.6136   -1.2005   -1.4579 H       1  UNL1        0.0619
     47 H           9.4446    0.3568    0.2243 H       1  UNL1        0.0647
     48 H           1.4903   -1.3317   -1.3971 H       1  UNL1        0.0479
     49 H           2.1331   -2.6131   -0.3478 H       1  UNL1        0.0479
     50 H          -0.6267   -1.3518   -0.5927 H       1  UNL1        0.0459
     51 H          -0.1607   -3.0578   -0.5053 H       1  UNL1        0.0459
     52 H          -3.2741   -2.2660   -0.8996 H       1  UNL1        0.0638
     53 H          -4.8236   -0.5384   -1.7868 H       1  UNL1        0.0637
@<TRIPOS>BOND
     1     1     2    2
     2     2     3    1
     3     3     4    2
     4     3     5   am
     5     5     6    1
     6     6     7   ar
     7     7     8   ar
     8     8     9   ar
     9     9    10    1
    10    10    11    2
    11    10    12    2
    12    10    13    1
    13    13    14    1
    14    14    15    1
    15    15    16    1
    16    16    17   am
    17    17    18    2
    18    17    19    1
    19    19    20    1
    20    20    21    1
    21    21    22   ar
    22    22    23   ar
    23    23    24   ar
    24    24    25   ar
    25    25    26    1
    26    25    27   ar
    27    27    28    1
    28    16    29    1
    29    29    30    1
    30     9    31   ar
    31    31    32   ar
    32    32     6   ar
    33    30    13    1
    34    27    21   ar
    35     1    33    1
    36     1    34    1
    37     2    35    1
    38     5    36    1
    39     7    37    1
    40     8    38    1
    41    14    39    1
    42    14    40    1
    43    15    41    1
    44    15    42    1
    45    20    43    1
    46    20    44    1
    47    22    45    1
    48    23    46    1
    49    24    47    1
    50    29    48    1
    51    29    49    1
    52    30    50    1
    53    30    51    1
    54    31    52    1
    55    32    53    1
