@<TRIPOS>MOLECULE
*****
 30 31 0 0 0
SMALL
GASTEIGER

@<TRIPOS>ATOM
      1 O          -2.4098    1.5299   -1.3122 O.2     1  UNL1       -0.2507
      2 C          -2.8352    1.7389   -0.1490 C.2     1  UNL1        0.3091
      3 O          -3.4670    2.9195    0.1921 O.3     1  UNL1       -0.4804
      4 C          -2.6486    0.6871    0.8690 C.3     1  UNL1        0.0716
      5 C          -1.9583   -0.5028    0.3355 C.ar    1  UNL1       -0.0156
      6 C          -2.7069   -1.6223    0.0425 C.ar    1  UNL1       -0.0563
      7 C          -2.1652   -2.7806   -0.4638 C.ar    1  UNL1       -0.0614
      8 C          -0.8048   -2.8023   -0.6818 C.ar    1  UNL1       -0.0600
      9 C          -0.0374   -1.6806   -0.3913 C.ar    1  UNL1       -0.0403
     10 C          -0.5977   -0.5182    0.1196 C.ar    1  UNL1        0.0351
     11 N           0.2239    0.6074    0.4058 N.pl3   1  UNL1       -0.3120
     12 C           1.6271    0.6031    0.1770 C.ar    1  UNL1        0.0684
     13 C           2.4319    0.1033    1.1781 C.ar    1  UNL1        0.0635
     14 CL          1.7318   -0.5026    2.6603 Cl      1  UNL1       -0.0816
     15 C           3.7875    0.0938    0.9829 C.ar    1  UNL1       -0.0415
     16 C           4.3629    0.5754   -0.1981 C.ar    1  UNL1       -0.0589
     17 C           3.5673    1.0700   -1.1885 C.ar    1  UNL1       -0.0415
     18 C           2.2075    1.0776   -0.9884 C.ar    1  UNL1        0.0635
     19 CL          1.1779    1.7077   -2.2417 Cl      1  UNL1       -0.0816
     20 H          -3.4426    3.7327   -0.4453 H       1  UNL1        0.2951
     21 H          -2.1109    1.0593    1.7668 H       1  UNL1        0.0427
     22 H          -3.6557    0.3997    1.2335 H       1  UNL1        0.0427
     23 H          -3.7872   -1.5936    0.2211 H       1  UNL1        0.0621
     24 H          -2.7937   -3.6469   -0.6827 H       1  UNL1        0.0618
     25 H          -0.3759   -3.7097   -1.0781 H       1  UNL1        0.0618
     26 H           1.0416   -1.7085   -0.5662 H       1  UNL1        0.0636
     27 H          -0.1758    1.4877    0.8008 H       1  UNL1        0.1522
     28 H           4.4066   -0.3022    1.7732 H       1  UNL1        0.0633
     29 H           5.4232    0.5303   -0.2654 H       1  UNL1        0.0618
     30 H           3.9833    1.4470   -2.1057 H       1  UNL1        0.0633
@<TRIPOS>BOND
     1     1     2    2
     2     2     3    1
     3     2     4    1
     4     4     5    1
     5     5     6   ar
     6     6     7   ar
     7     7     8   ar
     8     8     9   ar
     9     9    10   ar
    10    10    11    1
    11    11    12    1
    12    12    13   ar
    13    13    14    1
    14    13    15   ar
    15    15    16   ar
    16    16    17   ar
    17    17    18   ar
    18    18    19    1
    19    10     5   ar
    20    18    12   ar
    21     3    20    1
    22     4    21    1
    23     4    22    1
    24     6    23    1
    25     7    24    1
    26     8    25    1
    27     9    26    1
    28    11    27    1
    29    15    28    1
    30    16    29    1
    31    17    30    1
