@<TRIPOS>MOLECULE
*****
 20 19 0 0 0
SMALL
GASTEIGER

@<TRIPOS>ATOM
      1 CL          0.6899    0.0000    0.0000 Cl      1  UNL1       -0.1454
      2 N          -2.5149    0.6674   -0.6922 N.3     2  UNL2       -0.2144
      3 O          -2.3932   -0.6625   -0.6168 O.3     2  UNL2       -0.2978
      4 C          -1.4586   -1.0204    0.3498 C.3     2  UNL2        0.0939
      5 C          -0.1136   -0.4681    0.0576 C.ar    2  UNL2       -0.0186
      6 C           0.7850   -1.1851   -0.6989 C.ar    2  UNL2       -0.0562
      7 C           2.0464   -0.7275   -1.0041 C.ar    2  UNL2       -0.0601
      8 C           2.4164    0.5104   -0.5232 C.ar    2  UNL2       -0.0434
      9 C           1.5227    1.2414    0.2385 C.ar    2  UNL2        0.0413
     10 CL          2.0251    2.8104    0.8336 Cl      2  UNL2       -0.0835
     11 C           0.2623    0.7606    0.5312 C.ar    2  UNL2       -0.0380
     12 H          -0.6899    0.0000    0.0000 H       1  UNL1        0.1454
     13 H          -2.5462    1.0594   -1.6354 H       2  UNL2        0.1500
     14 H          -3.1116    1.0982    0.0156 H       2  UNL2        0.1500
     15 H          -1.4143   -2.1450    0.3407 H       2  UNL2        0.0630
     16 H          -1.7982   -0.7452    1.3780 H       2  UNL2        0.0630
     17 H           0.5094   -2.1682   -1.0886 H       2  UNL2        0.0621
     18 H           2.7495   -1.3097   -1.6069 H       2  UNL2        0.0618
     19 H           3.4070    0.8890   -0.7529 H       2  UNL2        0.0632
     20 H          -0.3732    1.3948    1.1319 H       2  UNL2        0.0636
@<TRIPOS>BOND
     1     2     3    1
     2     3     4    1
     3     4     5    1
     4     5     6   ar
     5     6     7   ar
     6     7     8   ar
     7     8     9   ar
     8     9    10    1
     9     9    11   ar
    10    11     5   ar
    11     1    12    1
    12     2    13    1
    13     2    14    1
    14     4    15    1
    15     4    16    1
    16     6    17    1
    17     7    18    1
    18     8    19    1
    19    11    20    1
