
     RDKit          3D

 69 72  0  0  0  0  0  0  0  0999 V2000
   -0.3819    2.0059   -1.2713 C   0  0  0  0  0  0  0  0  0  0  0  0
   -0.4354    0.9561   -2.3030 N   0  0  0  0  0  0  0  0  0  0  0  0
   -1.6390    0.7987   -3.0527 C   0  0  0  0  0  0  0  0  0  0  0  0
   -2.6074   -0.2286   -2.6688 C   0  0  0  0  0  0  0  0  0  0  0  0
   -3.2162   -0.2716   -1.3317 C   0  0  0  0  0  0  0  0  0  0  0  0
   -4.2442   -1.4585   -1.3681 C   0  0  0  0  0  0  0  0  0  0  0  0
   -4.9926   -1.4228   -0.0409 C   0  0  0  0  0  0  0  0  0  0  0  0
   -4.5144   -0.4224    0.8550 N   0  0  0  0  0  0  0  0  0  0  0  0
   -5.2530   -0.4688    2.0839 C   0  0  0  0  0  0  0  0  0  0  0  0
   -6.6844   -0.2343    1.8262 C   0  0  0  0  0  0  0  0  0  0  0  0
   -7.5805   -1.2558    1.6050 C   0  0  0  0  0  0  0  0  0  0  0  0
   -8.9240   -1.0227    1.3633 C   0  0  0  0  0  0  0  0  0  0  0  0
   -9.3812    0.2897    1.3437 C   0  0  0  0  0  0  0  0  0  0  0  0
   -8.5007    1.3422    1.5636 C   0  0  0  0  0  0  0  0  0  0  0  0
   -7.1678    1.0572    1.8006 C   0  0  0  0  0  0  0  0  0  0  0  0
   -3.0866   -0.4339    1.0796 C   0  0  0  0  0  0  0  0  0  0  0  0
   -2.3148   -0.6986   -0.1930 C   0  0  0  0  0  0  0  0  0  0  0  0
    0.7149    0.1805   -2.5696 C   0  0  0  0  0  0  0  0  0  0  0  0
    0.6518   -0.7050   -3.4515 O   0  0  0  0  0  0  0  0  0  0  0  0
    1.9772    0.3543   -1.8714 C   0  0  0  0  0  0  0  0  0  0  0  0
    2.9430    1.2489   -2.2553 C   0  0  0  0  0  0  0  0  0  0  0  0
    4.1257    1.3576   -1.5348 C   0  0  0  0  0  0  0  0  0  0  0  0
    4.3675    0.5854   -0.4293 C   0  0  0  0  0  0  0  0  0  0  0  0
    5.8174    0.6552    0.5295 S   0  0  0  0  0  6  0  0  0  0  0  0
    5.4951    0.3098    1.9550 O   0  0  0  0  0  0  0  0  0  0  0  0
    6.3720    2.0478    0.4052 O   0  0  0  0  0  0  0  0  0  0  0  0
    7.0566   -0.4732   -0.0518 C   0  0  0  0  0  0  0  0  0  0  0  0
    8.2352   -0.3328    0.8297 C   0  0  0  0  0  0  0  0  0  0  0  0
    8.3362   -1.1239    1.9549 C   0  0  0  0  0  0  0  0  0  0  0  0
    9.4028   -1.0393    2.8078 C   0  0  0  0  0  0  0  0  0  0  0  0
   10.4038   -0.1474    2.5469 C   0  0  0  0  0  0  0  0  0  0  0  0
   10.3148    0.6563    1.4164 C   0  0  0  0  0  0  0  0  0  0  0  0
    9.2339    0.5714    0.5508 C   0  0  0  0  0  0  0  0  0  0  0  0
    3.3976   -0.3242   -0.0301 C   0  0  0  0  0  0  0  0  0  0  0  0
    2.2159   -0.4226   -0.7622 C   0  0  0  0  0  0  0  0  0  0  0  0
   -1.3822    2.3446   -0.9929 H   0  0  0  0  0  0  0  0  0  0  0  0
    0.1247    2.8786   -1.7691 H   0  0  0  0  0  0  0  0  0  0  0  0
    0.2539    1.7244   -0.4373 H   0  0  0  0  0  0  0  0  0  0  0  0
   -1.2798    0.5143   -4.1062 H   0  0  0  0  0  0  0  0  0  0  0  0
   -2.1195    1.8032   -3.2680 H   0  0  0  0  0  0  0  0  0  0  0  0
   -2.1820   -1.2359   -2.9806 H   0  0  0  0  0  0  0  0  0  0  0  0
   -3.4796   -0.1389   -3.4066 H   0  0  0  0  0  0  0  0  0  0  0  0
   -3.7582    0.6263   -1.0402 H   0  0  0  0  0  0  0  0  0  0  0  0
   -4.9190   -1.3126   -2.2283 H   0  0  0  0  0  0  0  0  0  0  0  0
   -3.7063   -2.4084   -1.4141 H   0  0  0  0  0  0  0  0  0  0  0  0
   -6.0650   -1.1549   -0.2656 H   0  0  0  0  0  0  0  0  0  0  0  0
   -5.0258   -2.4217    0.4417 H   0  0  0  0  0  0  0  0  0  0  0  0
   -4.8639    0.2678    2.8320 H   0  0  0  0  0  0  0  0  0  0  0  0
   -5.1252   -1.4672    2.5984 H   0  0  0  0  0  0  0  0  0  0  0  0
   -7.2334   -2.2887    1.6179 H   0  0  0  0  0  0  0  0  0  0  0  0
   -9.6298   -1.8022    1.1902 H   0  0  0  0  0  0  0  0  0  0  0  0
  -10.4153    0.5077    1.1592 H   0  0  0  0  0  0  0  0  0  0  0  0
   -8.8647    2.3638    1.5470 H   0  0  0  0  0  0  0  0  0  0  0  0
   -6.5019    1.8851    1.9686 H   0  0  0  0  0  0  0  0  0  0  0  0
   -2.7958   -1.1185    1.8966 H   0  0  0  0  0  0  0  0  0  0  0  0
   -2.8103    0.5914    1.4289 H   0  0  0  0  0  0  0  0  0  0  0  0
   -1.3662   -0.2108   -0.1020 H   0  0  0  0  0  0  0  0  0  0  0  0
   -2.1894   -1.8244   -0.2777 H   0  0  0  0  0  0  0  0  0  0  0  0
    2.7439    1.8535   -3.1279 H   0  0  0  0  0  0  0  0  0  0  0  0
    4.8860    2.0693   -1.8455 H   0  0  0  0  0  0  0  0  0  0  0  0
    6.6986   -1.5238    0.0453 H   0  0  0  0  0  0  0  0  0  0  0  0
    7.2961   -0.2861   -1.1178 H   0  0  0  0  0  0  0  0  0  0  0  0
    7.5351   -1.8406    2.1685 H   0  0  0  0  0  0  0  0  0  0  0  0
    9.4536   -1.6643    3.6690 H   0  0  0  0  0  0  0  0  0  0  0  0
   11.2731   -0.0500    3.2055 H   0  0  0  0  0  0  0  0  0  0  0  0
   11.1195    1.3694    1.2109 H   0  0  0  0  0  0  0  0  0  0  0  0
    9.2067    1.2208   -0.3226 H   0  0  0  0  0  0  0  0  0  0  0  0
    3.5427   -0.9634    0.8458 H   0  0  0  0  0  0  0  0  0  0  0  0
    1.4420   -1.1391   -0.4545 H   0  0  0  0  0  0  0  0  0  0  0  0
  1  2  1  0
  2  3  1  0
  3  4  1  0
  4  5  1  0
  5  6  1  0
  6  7  1  0
  7  8  1  0
  8  9  1  0
  9 10  1  0
 10 11  2  0
 11 12  1  0
 12 13  2  0
 13 14  1  0
 14 15  2  0
  8 16  1  0
 16 17  1  0
  2 18  1  0
 18 19  2  0
 18 20  1  0
 20 21  2  0
 21 22  1  0
 22 23  2  0
 23 24  1  0
 24 25  2  0
 24 26  2  0
 24 27  1  0
 27 28  1  0
 28 29  2  0
 29 30  1  0
 30 31  2  0
 31 32  1  0
 32 33  2  0
 23 34  1  0
 34 35  2  0
 17  5  1  0
 35 20  1  0
 15 10  1  0
 33 28  1  0
  1 36  1  0
  1 37  1  0
  1 38  1  0
  3 39  1  0
  3 40  1  0
  4 41  1  0
  4 42  1  0
  5 43  1  0
  6 44  1  0
  6 45  1  0
  7 46  1  0
  7 47  1  0
  9 48  1  0
  9 49  1  0
 11 50  1  0
 12 51  1  0
 13 52  1  0
 14 53  1  0
 15 54  1  0
 16 55  1  0
 16 56  1  0
 17 57  1  0
 17 58  1  0
 21 59  1  0
 22 60  1  0
 27 61  1  0
 27 62  1  0
 29 63  1  0
 30 64  1  0
 31 65  1  0
 32 66  1  0
 33 67  1  0
 34 68  1  0
 35 69  1  0
M  END
$$$$
