@<TRIPOS>MOLECULE
*****
 69 72 0 0 0
SMALL
GASTEIGER

@<TRIPOS>ATOM
      1 C          -0.3819    2.0059   -1.2713 C.3     1  UNL1        0.0035
      2 N          -0.4354    0.9561   -2.3030 N.am    1  UNL1       -0.3006
      3 C          -1.6390    0.7987   -3.0527 C.3     1  UNL1        0.0149
      4 C          -2.6074   -0.2286   -2.6688 C.3     1  UNL1       -0.0342
      5 C          -3.2162   -0.2716   -1.3317 C.3     1  UNL1       -0.0373
      6 C          -4.2442   -1.4585   -1.3681 C.3     1  UNL1       -0.0373
      7 C          -4.9926   -1.4228   -0.0409 C.3     1  UNL1       -0.0005
      8 N          -4.5144   -0.4224    0.8550 N.3     1  UNL1       -0.2981
      9 C          -5.2530   -0.4688    2.0839 C.3     1  UNL1        0.0240
     10 C          -6.6844   -0.2343    1.8262 C.ar    1  UNL1       -0.0334
     11 C          -7.5805   -1.2558    1.6050 C.ar    1  UNL1       -0.0573
     12 C          -8.9240   -1.0227    1.3633 C.ar    1  UNL1       -0.0615
     13 C          -9.3812    0.2897    1.3437 C.ar    1  UNL1       -0.0617
     14 C          -8.5007    1.3422    1.5636 C.ar    1  UNL1       -0.0615
     15 C          -7.1678    1.0572    1.8006 C.ar    1  UNL1       -0.0573
     16 C          -3.0866   -0.4339    1.0796 C.3     1  UNL1       -0.0005
     17 C          -2.3148   -0.6986   -0.1930 C.3     1  UNL1       -0.0373
     18 C           0.7149    0.1805   -2.5696 C.2     1  UNL1        0.2464
     19 O           0.6518   -0.7050   -3.4515 O.2     1  UNL1       -0.2700
     20 C           1.9772    0.3543   -1.8714 C.ar    1  UNL1        0.0370
     21 C           2.9430    1.2489   -2.2553 C.ar    1  UNL1       -0.0478
     22 C           4.1257    1.3576   -1.5348 C.ar    1  UNL1       -0.0362
     23 C           4.3675    0.5854   -0.4293 C.ar    1  UNL1        0.0886
     24 S           5.8174    0.6552    0.5295 S.O2    1  UNL1        0.0010
     25 O           5.4951    0.3098    1.9550 O.2     1  UNL1       -0.1690
     26 O           6.3720    2.0478    0.4052 O.2     1  UNL1       -0.1690
     27 C           7.0566   -0.4732   -0.0518 C.3     1  UNL1        0.0958
     28 C           8.2352   -0.3328    0.8297 C.ar    1  UNL1       -0.0261
     29 C           8.3362   -1.1239    1.9549 C.ar    1  UNL1       -0.0570
     30 C           9.4028   -1.0393    2.8078 C.ar    1  UNL1       -0.0615
     31 C          10.4038   -0.1474    2.5469 C.ar    1  UNL1       -0.0617
     32 C          10.3148    0.6563    1.4164 C.ar    1  UNL1       -0.0615
     33 C           9.2339    0.5714    0.5508 C.ar    1  UNL1       -0.0570
     34 C           3.3976   -0.3242   -0.0301 C.ar    1  UNL1       -0.0362
     35 C           2.2159   -0.4226   -0.7622 C.ar    1  UNL1       -0.0478
     36 H          -1.3822    2.3446   -0.9929 H       1  UNL1        0.0429
     37 H           0.1247    2.8786   -1.7691 H       1  UNL1        0.0429
     38 H           0.2539    1.7244   -0.4373 H       1  UNL1        0.0429
     39 H          -1.2798    0.5143   -4.1062 H       1  UNL1        0.0464
     40 H          -2.1195    1.8032   -3.2680 H       1  UNL1        0.0464
     41 H          -2.1820   -1.2359   -2.9806 H       1  UNL1        0.0283
     42 H          -3.4796   -0.1389   -3.4066 H       1  UNL1        0.0283
     43 H          -3.7582    0.6263   -1.0402 H       1  UNL1        0.0302
     44 H          -4.9190   -1.3126   -2.2283 H       1  UNL1        0.0280
     45 H          -3.7063   -2.4084   -1.4141 H       1  UNL1        0.0280
     46 H          -6.0650   -1.1549   -0.2656 H       1  UNL1        0.0427
     47 H          -5.0258   -2.4217    0.4417 H       1  UNL1        0.0427
     48 H          -4.8639    0.2678    2.8320 H       1  UNL1        0.0476
     49 H          -5.1252   -1.4672    2.5984 H       1  UNL1        0.0476
     50 H          -7.2334   -2.2887    1.6179 H       1  UNL1        0.0621
     51 H          -9.6298   -1.8022    1.1902 H       1  UNL1        0.0618
     52 H         -10.4153    0.5077    1.1592 H       1  UNL1        0.0618
     53 H          -8.8647    2.3638    1.5470 H       1  UNL1        0.0618
     54 H          -6.5019    1.8851    1.9686 H       1  UNL1        0.0621
     55 H          -2.7958   -1.1185    1.8966 H       1  UNL1        0.0427
     56 H          -2.8103    0.5914    1.4289 H       1  UNL1        0.0427
     57 H          -1.3662   -0.2108   -0.1020 H       1  UNL1        0.0280
     58 H          -2.1894   -1.8244   -0.2777 H       1  UNL1        0.0280
     59 H           2.7439    1.8535   -3.1279 H       1  UNL1        0.0626
     60 H           4.8860    2.0693   -1.8455 H       1  UNL1        0.0637
     61 H           6.6986   -1.5238    0.0453 H       1  UNL1        0.0554
     62 H           7.2961   -0.2861   -1.1178 H       1  UNL1        0.0554
     63 H           7.5351   -1.8406    2.1685 H       1  UNL1        0.0621
     64 H           9.4536   -1.6643    3.6690 H       1  UNL1        0.0618
     65 H          11.2731   -0.0500    3.2055 H       1  UNL1        0.0618
     66 H          11.1195    1.3694    1.2109 H       1  UNL1        0.0618
     67 H           9.2067    1.2208   -0.3226 H       1  UNL1        0.0621
     68 H           3.5427   -0.9634    0.8458 H       1  UNL1        0.0637
     69 H           1.4420   -1.1391   -0.4545 H       1  UNL1        0.0626
@<TRIPOS>BOND
     1     1     2    1
     2     2     3    1
     3     3     4    1
     4     4     5    1
     5     5     6    1
     6     6     7    1
     7     7     8    1
     8     8     9    1
     9     9    10    1
    10    10    11   ar
    11    11    12   ar
    12    12    13   ar
    13    13    14   ar
    14    14    15   ar
    15     8    16    1
    16    16    17    1
    17     2    18   am
    18    18    19    2
    19    18    20    1
    20    20    21   ar
    21    21    22   ar
    22    22    23   ar
    23    23    24    1
    24    24    25    2
    25    24    26    2
    26    24    27    1
    27    27    28    1
    28    28    29   ar
    29    29    30   ar
    30    30    31   ar
    31    31    32   ar
    32    32    33   ar
    33    23    34   ar
    34    34    35   ar
    35    17     5    1
    36    35    20   ar
    37    15    10   ar
    38    33    28   ar
    39     1    36    1
    40     1    37    1
    41     1    38    1
    42     3    39    1
    43     3    40    1
    44     4    41    1
    45     4    42    1
    46     5    43    1
    47     6    44    1
    48     6    45    1
    49     7    46    1
    50     7    47    1
    51     9    48    1
    52     9    49    1
    53    11    50    1
    54    12    51    1
    55    13    52    1
    56    14    53    1
    57    15    54    1
    58    16    55    1
    59    16    56    1
    60    17    57    1
    61    17    58    1
    62    21    59    1
    63    22    60    1
    64    27    61    1
    65    27    62    1
    66    29    63    1
    67    30    64    1
    68    31    65    1
    69    32    66    1
    70    33    67    1
    71    34    68    1
    72    35    69    1
