@<TRIPOS>MOLECULE
*****
 37 40 0 0 0
SMALL
GASTEIGER

@<TRIPOS>ATOM
      1 O          -0.6546   -0.3922   -1.8175 O.2     1  UNL1       -0.2751
      2 C          -0.2002    0.7582   -1.4434 C.2     1  UNL1        0.2219
      3 C           1.1677    1.0977   -1.9779 C.3     1  UNL1        0.0500
      4 C           2.2051    0.9046   -0.9634 C.ar    1  UNL1       -0.0295
      5 C           2.7053    2.0516   -0.2945 C.ar    1  UNL1       -0.0574
      6 C           3.6323    1.9467    0.7194 C.ar    1  UNL1       -0.0594
      7 C           4.0932    0.7222    1.1095 C.ar    1  UNL1       -0.0357
      8 C           3.6295   -0.4079    0.4856 C.ar    1  UNL1        0.0712
      9 N           4.0848   -1.6072    0.8820 N.ar    1  UNL1       -0.2550
     10 C           3.6806   -2.7392    0.3465 C.ar    1  UNL1        0.0283
     11 C           2.7402   -2.6798   -0.7018 C.ar    1  UNL1       -0.0430
     12 C           2.2343   -1.4659   -1.1587 C.ar    1  UNL1       -0.0509
     13 C           2.6848   -0.2936   -0.5479 C.ar    1  UNL1        0.0040
     14 N          -0.9464    1.5006   -0.6336 N.am    1  UNL1       -0.2791
     15 C          -2.1859    1.5582    0.0503 C.ar    1  UNL1        0.0839
     16 S          -2.6570    3.0343    0.9121 S.2     1  UNL1       -0.0797
     17 C          -4.2509    2.3202    1.4900 C.ar    1  UNL1       -0.0035
     18 C          -4.2174    1.1381    0.9831 C.ar    1  UNL1        0.0605
     19 CL         -5.7736    0.1766    1.2056 Cl      1  UNL1       -0.0822
     20 C          -3.2101    0.6291    0.2267 C.ar    1  UNL1        0.0658
     21 C          -3.1316   -0.6060   -0.4916 C.ar    1  UNL1        0.1652
     22 N          -3.0500   -1.7083   -1.1420 N.ar    1  UNL1       -0.1295
     23 N          -3.3374   -2.8665   -0.8399 N.ar    1  UNL1       -0.1377
     24 C          -3.8062   -2.7535    0.4341 C.ar    1  UNL1        0.1175
     25 N          -3.7245   -1.5484    0.7126 N.ar    1  UNL1       -0.3276
     26 H           1.1244    2.2012   -2.2282 H       1  UNL1        0.0407
     27 H           1.2957    0.5930   -2.9444 H       1  UNL1        0.0407
     28 H           2.3316    3.0323   -0.5713 H       1  UNL1        0.0621
     29 H           4.0363    2.8028    1.2477 H       1  UNL1        0.0618
     30 H           4.8416    0.6190    1.9079 H       1  UNL1        0.0639
     31 H           4.0592   -3.6904    0.6824 H       1  UNL1        0.0830
     32 H           2.3621   -3.5991   -1.1370 H       1  UNL1        0.0633
     33 H           1.5464   -1.4115   -1.9389 H       1  UNL1        0.0625
     34 H          -0.3553    2.4679   -0.3875 H       1  UNL1        0.1553
     35 H          -4.9290    2.9440    2.1045 H       1  UNL1        0.0709
     36 H          -4.1320   -3.6527    0.9836 H       1  UNL1        0.1046
     37 H          -3.8928   -1.0762    1.5976 H       1  UNL1        0.1683
@<TRIPOS>BOND
     1     1     2    2
     2     2     3    1
     3     3     4    1
     4     4     5   ar
     5     5     6   ar
     6     6     7   ar
     7     7     8   ar
     8     8     9   ar
     9     9    10   ar
    10    10    11   ar
    11    11    12   ar
    12    12    13   ar
    13     2    14   am
    14    14    15    1
    15    15    16   ar
    16    16    17   ar
    17    17    18   ar
    18    18    19    1
    19    18    20   ar
    20    20    21    1
    21    21    22   ar
    22    22    23   ar
    23    23    24   ar
    24    24    25   ar
    25    13     4   ar
    26    20    15   ar
    27    25    21   ar
    28    13     8   ar
    29     3    26    1
    30     3    27    1
    31     5    28    1
    32     6    29    1
    33     7    30    1
    34    10    31    1
    35    11    32    1
    36    12    33    1
    37    14    34    1
    38    17    35    1
    39    24    36    1
    40    25    37    1
