
     RDKit          3D

 37 40  0  0  0  0  0  0  0  0999 V2000
   -0.6546   -0.3922   -1.8175 O   0  0  0  0  0  0  0  0  0  0  0  0
   -0.2002    0.7582   -1.4434 C   0  0  0  0  0  0  0  0  0  0  0  0
    1.1677    1.0977   -1.9779 C   0  0  0  0  0  0  0  0  0  0  0  0
    2.2051    0.9046   -0.9634 C   0  0  0  0  0  0  0  0  0  0  0  0
    2.7053    2.0516   -0.2945 C   0  0  0  0  0  0  0  0  0  0  0  0
    3.6323    1.9467    0.7194 C   0  0  0  0  0  0  0  0  0  0  0  0
    4.0932    0.7222    1.1095 C   0  0  0  0  0  0  0  0  0  0  0  0
    3.6295   -0.4079    0.4856 C   0  0  0  0  0  0  0  0  0  0  0  0
    4.0848   -1.6072    0.8820 N   0  0  0  0  0  0  0  0  0  0  0  0
    3.6806   -2.7392    0.3465 C   0  0  0  0  0  0  0  0  0  0  0  0
    2.7402   -2.6798   -0.7018 C   0  0  0  0  0  0  0  0  0  0  0  0
    2.2343   -1.4659   -1.1587 C   0  0  0  0  0  0  0  0  0  0  0  0
    2.6848   -0.2936   -0.5479 C   0  0  0  0  0  0  0  0  0  0  0  0
   -0.9464    1.5006   -0.6336 N   0  0  0  0  0  0  0  0  0  0  0  0
   -2.1859    1.5582    0.0503 C   0  0  0  0  0  0  0  0  0  0  0  0
   -2.6570    3.0343    0.9121 S   0  0  0  0  0  0  0  0  0  0  0  0
   -4.2509    2.3202    1.4900 C   0  0  0  0  0  0  0  0  0  0  0  0
   -4.2174    1.1381    0.9831 C   0  0  0  0  0  0  0  0  0  0  0  0
   -5.7736    0.1766    1.2056 Cl  0  0  0  0  0  0  0  0  0  0  0  0
   -3.2101    0.6291    0.2267 C   0  0  0  0  0  0  0  0  0  0  0  0
   -3.1316   -0.6060   -0.4916 C   0  0  0  0  0  0  0  0  0  0  0  0
   -3.0500   -1.7083   -1.1420 N   0  0  0  0  0  0  0  0  0  0  0  0
   -3.3374   -2.8665   -0.8399 N   0  0  0  0  0  0  0  0  0  0  0  0
   -3.8062   -2.7535    0.4341 C   0  0  0  0  0  0  0  0  0  0  0  0
   -3.7245   -1.5484    0.7126 N   0  0  0  0  0  0  0  0  0  0  0  0
    1.1244    2.2012   -2.2282 H   0  0  0  0  0  0  0  0  0  0  0  0
    1.2957    0.5930   -2.9444 H   0  0  0  0  0  0  0  0  0  0  0  0
    2.3316    3.0323   -0.5713 H   0  0  0  0  0  0  0  0  0  0  0  0
    4.0363    2.8028    1.2477 H   0  0  0  0  0  0  0  0  0  0  0  0
    4.8416    0.6190    1.9079 H   0  0  0  0  0  0  0  0  0  0  0  0
    4.0592   -3.6904    0.6824 H   0  0  0  0  0  0  0  0  0  0  0  0
    2.3621   -3.5991   -1.1370 H   0  0  0  0  0  0  0  0  0  0  0  0
    1.5464   -1.4115   -1.9389 H   0  0  0  0  0  0  0  0  0  0  0  0
   -0.3553    2.4679   -0.3875 H   0  0  0  0  0  0  0  0  0  0  0  0
   -4.9290    2.9440    2.1045 H   0  0  0  0  0  0  0  0  0  0  0  0
   -4.1320   -3.6527    0.9836 H   0  0  0  0  0  0  0  0  0  0  0  0
   -3.8928   -1.0762    1.5976 H   0  0  0  0  0  0  0  0  0  0  0  0
  1  2  2  0
  2  3  1  0
  3  4  1  0
  4  5  2  0
  5  6  1  0
  6  7  2  0
  7  8  1  0
  8  9  2  0
  9 10  1  0
 10 11  2  0
 11 12  1  0
 12 13  2  0
  2 14  1  0
 14 15  1  0
 15 16  1  0
 16 17  1  0
 17 18  2  0
 18 19  1  0
 18 20  1  0
 20 21  1  0
 21 22  2  0
 22 23  1  0
 23 24  2  0
 24 25  1  0
 13  4  1  0
 20 15  2  0
 25 21  1  0
 13  8  1  0
  3 26  1  0
  3 27  1  0
  5 28  1  0
  6 29  1  0
  7 30  1  0
 10 31  1  0
 11 32  1  0
 12 33  1  0
 14 34  1  0
 17 35  1  0
 24 36  1  0
 25 37  1  0
M  END
$$$$
