@<TRIPOS>MOLECULE
*****
 49 52 0 0 0
SMALL
GASTEIGER

@<TRIPOS>ATOM
      1 C           7.3143    1.8589   -1.1538 C.3     1  UNL1       -0.0653
      2 C           6.2609    1.2603   -0.2413 C.3     1  UNL1       -0.0559
      3 C           6.3206   -0.2433   -0.3907 C.3     1  UNL1       -0.0533
      4 C           5.3189   -0.9498    0.4678 C.3     1  UNL1       -0.0528
      5 C           3.9011   -0.5733    0.1690 C.3     1  UNL1       -0.0491
      6 C           2.9929   -1.3300    1.0749 C.3     1  UNL1       -0.0276
      7 C           1.5594   -1.0387    0.8713 C.ar    1  UNL1       -0.0454
      8 C           0.8721   -0.0552    1.5250 C.ar    1  UNL1       -0.0578
      9 C          -0.4667    0.1489    1.2731 C.ar    1  UNL1       -0.0503
     10 C          -1.1183   -0.6498    0.3503 C.ar    1  UNL1        0.0260
     11 C          -0.4447   -1.6610   -0.3325 C.ar    1  UNL1        0.0516
     12 C           0.8815   -1.8177   -0.0424 C.ar    1  UNL1       -0.0345
     13 N          -1.0537   -2.4420   -1.2257 N.ar    1  UNL1       -0.3203
     14 C          -2.3527   -2.2718   -1.4949 C.ar    1  UNL1        0.2748
     15 O          -2.8922   -3.0237   -2.3397 O.2     1  UNL1       -0.2656
     16 C          -3.0595   -1.2947   -0.8533 C.ar    1  UNL1        0.1322
     17 N          -4.3715   -0.8950   -0.9222 N.ar    1  UNL1       -0.3336
     18 C          -4.5831    0.1215   -0.0850 C.ar    1  UNL1        0.1408
     19 C          -5.7918    0.8567    0.1784 C.ar    1  UNL1        0.0356
     20 C          -5.7502    1.8949    1.1170 C.ar    1  UNL1       -0.0497
     21 C          -6.8281    2.6586    1.4482 C.ar    1  UNL1       -0.0610
     22 C          -8.0281    2.4165    0.8435 C.ar    1  UNL1       -0.0603
     23 C          -8.1221    1.4188   -0.0759 C.ar    1  UNL1       -0.0427
     24 C          -7.0006    0.6375   -0.4087 C.ar    1  UNL1        0.0516
     25 CL         -7.2438   -0.6126   -1.6014 Cl      1  UNL1       -0.0828
     26 N          -3.3740    0.3663    0.5248 N.ar    1  UNL1       -0.2269
     27 C          -2.4472   -0.4835    0.0679 C.ar    1  UNL1        0.1039
     28 H           8.3133    1.8688   -0.6804 H       1  UNL1        0.0230
     29 H           6.9507    2.8847   -1.4070 H       1  UNL1        0.0230
     30 H           7.4184    1.2786   -2.1009 H       1  UNL1        0.0230
     31 H           6.5164    1.5851    0.7845 H       1  UNL1        0.0263
     32 H           5.2551    1.6145   -0.4748 H       1  UNL1        0.0263
     33 H           7.3371   -0.5455   -0.0120 H       1  UNL1        0.0265
     34 H           6.2810   -0.5581   -1.4344 H       1  UNL1        0.0265
     35 H           5.5244   -0.7293    1.5384 H       1  UNL1        0.0265
     36 H           5.4227   -2.0380    0.2704 H       1  UNL1        0.0265
     37 H           3.7666    0.5088    0.3743 H       1  UNL1        0.0268
     38 H           3.6595   -0.7239   -0.9013 H       1  UNL1        0.0268
     39 H           3.1527   -2.4154    0.9178 H       1  UNL1        0.0313
     40 H           3.3068   -1.1330    2.1266 H       1  UNL1        0.0313
     41 H           1.3957    0.5578    2.2409 H       1  UNL1        0.0620
     42 H          -1.0669    0.9117    1.7584 H       1  UNL1        0.0625
     43 H           1.3986   -2.6186   -0.5886 H       1  UNL1        0.0641
     44 H          -0.5329   -3.1860   -1.7200 H       1  UNL1        0.1690
     45 H          -5.0427   -1.3713   -1.5640 H       1  UNL1        0.1675
     46 H          -4.8106    2.1137    1.6164 H       1  UNL1        0.0625
     47 H          -6.7806    3.4573    2.1752 H       1  UNL1        0.0618
     48 H          -8.8910    3.0184    1.1002 H       1  UNL1        0.0618
     49 H          -9.0675    1.2229   -0.5569 H       1  UNL1        0.0632
@<TRIPOS>BOND
     1     1     2    1
     2     2     3    1
     3     3     4    1
     4     4     5    1
     5     5     6    1
     6     6     7    1
     7     7     8   ar
     8     8     9   ar
     9     9    10   ar
    10    10    11   ar
    11    11    12   ar
    12    11    13   ar
    13    13    14   ar
    14    14    15    2
    15    14    16   ar
    16    16    17   ar
    17    17    18   ar
    18    18    19    1
    19    19    20   ar
    20    20    21   ar
    21    21    22   ar
    22    22    23   ar
    23    23    24   ar
    24    24    25    1
    25    18    26   ar
    26    26    27   ar
    27    12     7   ar
    28    27    16   ar
    29    27    10   ar
    30    24    19   ar
    31     1    28    1
    32     1    29    1
    33     1    30    1
    34     2    31    1
    35     2    32    1
    36     3    33    1
    37     3    34    1
    38     4    35    1
    39     4    36    1
    40     5    37    1
    41     5    38    1
    42     6    39    1
    43     6    40    1
    44     8    41    1
    45     9    42    1
    46    12    43    1
    47    13    44    1
    48    17    45    1
    49    20    46    1
    50    21    47    1
    51    22    48    1
    52    23    49    1
