
     RDKit          3D

 49 52  0  0  0  0  0  0  0  0999 V2000
    7.3143    1.8589   -1.1538 C   0  0  0  0  0  0  0  0  0  0  0  0
    6.2609    1.2603   -0.2413 C   0  0  0  0  0  0  0  0  0  0  0  0
    6.3206   -0.2433   -0.3907 C   0  0  0  0  0  0  0  0  0  0  0  0
    5.3189   -0.9498    0.4678 C   0  0  0  0  0  0  0  0  0  0  0  0
    3.9011   -0.5733    0.1690 C   0  0  0  0  0  0  0  0  0  0  0  0
    2.9929   -1.3300    1.0749 C   0  0  0  0  0  0  0  0  0  0  0  0
    1.5594   -1.0387    0.8713 C   0  0  0  0  0  0  0  0  0  0  0  0
    0.8721   -0.0552    1.5250 C   0  0  0  0  0  0  0  0  0  0  0  0
   -0.4667    0.1489    1.2731 C   0  0  0  0  0  0  0  0  0  0  0  0
   -1.1183   -0.6498    0.3503 C   0  0  0  0  0  0  0  0  0  0  0  0
   -0.4447   -1.6610   -0.3325 C   0  0  0  0  0  0  0  0  0  0  0  0
    0.8815   -1.8177   -0.0424 C   0  0  0  0  0  0  0  0  0  0  0  0
   -1.0537   -2.4420   -1.2257 N   0  0  0  0  0  0  0  0  0  0  0  0
   -2.3527   -2.2718   -1.4949 C   0  0  0  0  0  0  0  0  0  0  0  0
   -2.8922   -3.0237   -2.3397 O   0  0  0  0  0  0  0  0  0  0  0  0
   -3.0595   -1.2947   -0.8533 C   0  0  0  0  0  0  0  0  0  0  0  0
   -4.3715   -0.8950   -0.9222 N   0  0  0  0  0  0  0  0  0  0  0  0
   -4.5831    0.1215   -0.0850 C   0  0  0  0  0  0  0  0  0  0  0  0
   -5.7918    0.8567    0.1784 C   0  0  0  0  0  0  0  0  0  0  0  0
   -5.7502    1.8949    1.1170 C   0  0  0  0  0  0  0  0  0  0  0  0
   -6.8281    2.6586    1.4482 C   0  0  0  0  0  0  0  0  0  0  0  0
   -8.0281    2.4165    0.8435 C   0  0  0  0  0  0  0  0  0  0  0  0
   -8.1221    1.4188   -0.0759 C   0  0  0  0  0  0  0  0  0  0  0  0
   -7.0006    0.6375   -0.4087 C   0  0  0  0  0  0  0  0  0  0  0  0
   -7.2438   -0.6126   -1.6014 Cl  0  0  0  0  0  0  0  0  0  0  0  0
   -3.3740    0.3663    0.5248 N   0  0  0  0  0  0  0  0  0  0  0  0
   -2.4472   -0.4835    0.0679 C   0  0  0  0  0  0  0  0  0  0  0  0
    8.3133    1.8688   -0.6804 H   0  0  0  0  0  0  0  0  0  0  0  0
    6.9507    2.8847   -1.4070 H   0  0  0  0  0  0  0  0  0  0  0  0
    7.4184    1.2786   -2.1009 H   0  0  0  0  0  0  0  0  0  0  0  0
    6.5164    1.5851    0.7845 H   0  0  0  0  0  0  0  0  0  0  0  0
    5.2551    1.6145   -0.4748 H   0  0  0  0  0  0  0  0  0  0  0  0
    7.3371   -0.5455   -0.0120 H   0  0  0  0  0  0  0  0  0  0  0  0
    6.2810   -0.5581   -1.4344 H   0  0  0  0  0  0  0  0  0  0  0  0
    5.5244   -0.7293    1.5384 H   0  0  0  0  0  0  0  0  0  0  0  0
    5.4227   -2.0380    0.2704 H   0  0  0  0  0  0  0  0  0  0  0  0
    3.7666    0.5088    0.3743 H   0  0  0  0  0  0  0  0  0  0  0  0
    3.6595   -0.7239   -0.9013 H   0  0  0  0  0  0  0  0  0  0  0  0
    3.1527   -2.4154    0.9178 H   0  0  0  0  0  0  0  0  0  0  0  0
    3.3068   -1.1330    2.1266 H   0  0  0  0  0  0  0  0  0  0  0  0
    1.3957    0.5578    2.2409 H   0  0  0  0  0  0  0  0  0  0  0  0
   -1.0669    0.9117    1.7584 H   0  0  0  0  0  0  0  0  0  0  0  0
    1.3986   -2.6186   -0.5886 H   0  0  0  0  0  0  0  0  0  0  0  0
   -0.5329   -3.1860   -1.7200 H   0  0  0  0  0  0  0  0  0  0  0  0
   -5.0427   -1.3713   -1.5640 H   0  0  0  0  0  0  0  0  0  0  0  0
   -4.8106    2.1137    1.6164 H   0  0  0  0  0  0  0  0  0  0  0  0
   -6.7806    3.4573    2.1752 H   0  0  0  0  0  0  0  0  0  0  0  0
   -8.8910    3.0184    1.1002 H   0  0  0  0  0  0  0  0  0  0  0  0
   -9.0675    1.2229   -0.5569 H   0  0  0  0  0  0  0  0  0  0  0  0
  1  2  1  0
  2  3  1  0
  3  4  1  0
  4  5  1  0
  5  6  1  0
  6  7  1  0
  7  8  2  0
  8  9  1  0
  9 10  2  0
 10 11  1  0
 11 12  2  0
 11 13  1  0
 13 14  1  0
 14 15  2  0
 14 16  1  0
 16 17  1  0
 17 18  1  0
 18 19  1  0
 19 20  2  0
 20 21  1  0
 21 22  2  0
 22 23  1  0
 23 24  2  0
 24 25  1  0
 18 26  2  0
 26 27  1  0
 12  7  1  0
 27 16  2  0
 27 10  1  0
 24 19  1  0
  1 28  1  0
  1 29  1  0
  1 30  1  0
  2 31  1  0
  2 32  1  0
  3 33  1  0
  3 34  1  0
  4 35  1  0
  4 36  1  0
  5 37  1  0
  5 38  1  0
  6 39  1  0
  6 40  1  0
  8 41  1  0
  9 42  1  0
 12 43  1  0
 13 44  1  0
 17 45  1  0
 20 46  1  0
 21 47  1  0
 22 48  1  0
 23 49  1  0
M  END
$$$$
