
     RDKit          3D

101107  0  0  0  0  0  0  0  0999 V2000
   13.1882    4.4300   -0.0772 C   0  0  0  0  0  0  0  0  0  0  0  0
   12.7235    3.6526    1.0143 O   0  0  0  0  0  0  0  0  0  0  0  0
   11.9226    2.5374    0.8429 C   0  0  0  0  0  0  0  0  0  0  0  0
   11.5728    2.1796   -0.4464 C   0  0  0  0  0  0  0  0  0  0  0  0
   10.7728    1.0666   -0.6241 C   0  0  0  0  0  0  0  0  0  0  0  0
   10.3188    0.3120    0.4295 C   0  0  0  0  0  0  0  0  0  0  0  0
    9.5050   -0.8392    0.3204 N   0  0  0  0  0  0  0  0  0  0  0  0
    9.9564   -2.0634    0.1216 N   0  0  0  0  0  0  0  0  0  0  0  0
    8.9475   -2.9301    0.0720 C   0  0  0  0  0  0  0  0  0  0  0  0
    8.9380   -4.4039   -0.1411 C   0  0  0  0  0  0  0  0  0  0  0  0
    9.9734   -5.1128    0.7043 C   0  0  0  0  0  0  0  0  0  0  0  0
    9.2763   -4.7287   -1.5984 C   0  0  0  0  0  0  0  0  0  0  0  0
    7.7901   -2.1565    0.2574 C   0  0  0  0  0  0  0  0  0  0  0  0
    8.1474   -0.8496    0.4114 C   0  0  0  0  0  0  0  0  0  0  0  0
    7.3524    0.3053    0.6131 N   0  0  0  0  0  0  0  0  0  0  0  0
    5.9422    0.2565    0.7040 C   0  0  0  0  0  0  0  0  0  0  0  0
    5.3383   -0.8235    0.6233 O   0  0  0  0  0  0  0  0  0  0  0  0
    5.1940    1.4632    0.8893 N   0  0  0  0  0  0  0  0  0  0  0  0
    3.7736    1.3810    0.9756 C   0  0  0  0  0  0  0  0  0  0  0  0
    3.0802    1.2660    2.1579 C   0  0  0  0  0  0  0  0  0  0  0  0
    1.7050    1.1693    2.1982 C   0  0  0  0  0  0  0  0  0  0  0  0
    0.9731    1.1858    1.0173 C   0  0  0  0  0  0  0  0  0  0  0  0
   -0.4099    1.0901    1.0221 O   0  0  0  0  0  0  0  0  0  0  0  0
   -1.0146   -0.0429    0.5007 C   0  0  0  0  0  0  0  0  0  0  0  0
   -0.2340   -1.1028    0.0783 C   0  0  0  0  0  0  0  0  0  0  0  0
   -0.8690   -2.2220   -0.4313 C   0  0  0  0  0  0  0  0  0  0  0  0
   -2.2087   -2.2635   -0.5071 N   0  0  0  0  0  0  0  0  0  0  0  0
   -2.9719   -1.2105   -0.0861 C   0  0  0  0  0  0  0  0  0  0  0  0
   -4.3677   -1.3315   -0.1732 N   0  0  0  0  0  0  0  0  0  0  0  0
   -5.2631   -0.2779    0.0749 C   0  0  0  0  0  0  0  0  0  0  0  0
   -6.6260   -0.5906    0.2667 C   0  0  0  0  0  0  0  0  0  0  0  0
   -7.5694    0.3750    0.4815 C   0  0  0  0  0  0  0  0  0  0  0  0
   -8.9711    0.0704    0.6731 C   0  0  0  0  0  0  0  0  0  0  0  0
   -9.8189    1.0318    0.7948 O   0  0  0  0  0  0  0  0  0  0  0  0
   -9.5246   -1.2332    0.7436 N   0  0  0  0  0  0  0  0  0  0  0  0
  -10.9383   -1.5189    0.9250 C   0  0  0  0  0  0  0  0  0  0  0  0
  -11.7307   -0.9744   -0.2037 C   0  0  0  0  0  0  0  0  0  0  0  0
  -13.1487   -1.2101   -0.1431 N   0  0  0  0  0  0  0  0  0  0  0  0
  -13.8452   -0.6599   -1.2824 C   0  0  0  0  0  0  0  0  0  0  0  0
  -14.2398    0.7807   -1.0734 C   0  0  0  0  0  0  0  0  0  0  0  0
  -15.0811    0.8254    0.0371 O   0  0  0  0  0  0  0  0  0  0  0  0
  -14.3024    0.5244    1.1537 C   0  0  0  0  0  0  0  0  0  0  0  0
  -13.7800   -0.8904    1.1007 C   0  0  0  0  0  0  0  0  0  0  0  0
   -7.1507    1.6835    0.5071 C   0  0  0  0  0  0  0  0  0  0  0  0
   -5.8410    2.0506    0.3281 C   0  0  0  0  0  0  0  0  0  0  0  0
   -5.4588    3.4801    0.3652 C   0  0  0  0  0  0  0  0  0  0  0  0
   -4.4964    3.6835   -0.6206 F   0  0  0  0  0  0  0  0  0  0  0  0
   -6.5429    4.2755    0.0486 F   0  0  0  0  0  0  0  0  0  0  0  0
   -5.0012    3.8211    1.6043 F   0  0  0  0  0  0  0  0  0  0  0  0
   -4.9107    1.0278    0.1109 C   0  0  0  0  0  0  0  0  0  0  0  0
   -2.3528   -0.1561    0.3943 N   0  0  0  0  0  0  0  0  0  0  0  0
    1.6264    1.3019   -0.1832 C   0  0  0  0  0  0  0  0  0  0  0  0
    0.9287    1.3448   -1.3680 C   0  0  0  0  0  0  0  0  0  0  0  0
    1.6133    1.4801   -2.5547 C   0  0  0  0  0  0  0  0  0  0  0  0
    2.9867    1.5716   -2.5558 C   0  0  0  0  0  0  0  0  0  0  0  0
    3.6989    1.5306   -1.3662 C   0  0  0  0  0  0  0  0  0  0  0  0
    3.0259    1.3978   -0.1913 C   0  0  0  0  0  0  0  0  0  0  0  0
   10.6956    0.7110    1.6969 C   0  0  0  0  0  0  0  0  0  0  0  0
   11.4963    1.8196    1.9215 C   0  0  0  0  0  0  0  0  0  0  0  0
   12.3077    4.9261   -0.5404 H   0  0  0  0  0  0  0  0  0  0  0  0
   13.7510    3.8292   -0.8126 H   0  0  0  0  0  0  0  0  0  0  0  0
   13.8707    5.2158    0.2957 H   0  0  0  0  0  0  0  0  0  0  0  0
   11.9347    2.7731   -1.2795 H   0  0  0  0  0  0  0  0  0  0  0  0
   10.4861    0.7631   -1.6139 H   0  0  0  0  0  0  0  0  0  0  0  0
    7.9279   -4.8243    0.0242 H   0  0  0  0  0  0  0  0  0  0  0  0
    9.6128   -5.3731    1.7187 H   0  0  0  0  0  0  0  0  0  0  0  0
   10.8470   -4.4360    0.8410 H   0  0  0  0  0  0  0  0  0  0  0  0
   10.3451   -6.0331    0.1959 H   0  0  0  0  0  0  0  0  0  0  0  0
    9.9243   -3.9303   -2.0193 H   0  0  0  0  0  0  0  0  0  0  0  0
    8.3385   -4.8496   -2.1897 H   0  0  0  0  0  0  0  0  0  0  0  0
    9.8589   -5.6802   -1.6693 H   0  0  0  0  0  0  0  0  0  0  0  0
    6.7846   -2.5419    0.2723 H   0  0  0  0  0  0  0  0  0  0  0  0
    7.8322    1.2517    0.6909 H   0  0  0  0  0  0  0  0  0  0  0  0
    5.7256    2.3571    0.9539 H   0  0  0  0  0  0  0  0  0  0  0  0
    3.6106    1.2480    3.0777 H   0  0  0  0  0  0  0  0  0  0  0  0
    1.1604    1.0773    3.1263 H   0  0  0  0  0  0  0  0  0  0  0  0
    0.8490   -1.1041    0.1282 H   0  0  0  0  0  0  0  0  0  0  0  0
   -0.3062   -3.0734   -0.7757 H   0  0  0  0  0  0  0  0  0  0  0  0
   -4.7975   -2.2855   -0.4500 H   0  0  0  0  0  0  0  0  0  0  0  0
   -6.9130   -1.6341    0.2378 H   0  0  0  0  0  0  0  0  0  0  0  0
   -8.8226   -2.0254    0.6528 H   0  0  0  0  0  0  0  0  0  0  0  0
  -11.1939   -1.0758    1.9122 H   0  0  0  0  0  0  0  0  0  0  0  0
  -11.0624   -2.6152    0.9430 H   0  0  0  0  0  0  0  0  0  0  0  0
  -11.6008    0.1217   -0.3029 H   0  0  0  0  0  0  0  0  0  0  0  0
  -11.3562   -1.3894   -1.1793 H   0  0  0  0  0  0  0  0  0  0  0  0
  -14.7566   -1.2621   -1.4456 H   0  0  0  0  0  0  0  0  0  0  0  0
  -13.1951   -0.7995   -2.1644 H   0  0  0  0  0  0  0  0  0  0  0  0
  -13.3012    1.3427   -0.8251 H   0  0  0  0  0  0  0  0  0  0  0  0
  -14.7198    1.1475   -2.0005 H   0  0  0  0  0  0  0  0  0  0  0  0
  -13.5370    1.2938    1.2260 H   0  0  0  0  0  0  0  0  0  0  0  0
  -14.9553    0.6057    2.0494 H   0  0  0  0  0  0  0  0  0  0  0  0
  -13.2060   -1.0907    2.0058 H   0  0  0  0  0  0  0  0  0  0  0  0
  -14.6972   -1.5491    1.1645 H   0  0  0  0  0  0  0  0  0  0  0  0
   -7.9080    2.4581    0.6781 H   0  0  0  0  0  0  0  0  0  0  0  0
   -3.9028    1.3699   -0.0335 H   0  0  0  0  0  0  0  0  0  0  0  0
   -0.1478    1.2935   -1.3721 H   0  0  0  0  0  0  0  0  0  0  0  0
    1.0421    1.5149   -3.4954 H   0  0  0  0  0  0  0  0  0  0  0  0
    3.4836    1.6759   -3.4986 H   0  0  0  0  0  0  0  0  0  0  0  0
    4.7823    1.6035   -1.3927 H   0  0  0  0  0  0  0  0  0  0  0  0
   10.3626    0.1508    2.5671 H   0  0  0  0  0  0  0  0  0  0  0  0
   11.7477    2.0632    2.9472 H   0  0  0  0  0  0  0  0  0  0  0  0
  1  2  1  0
  2  3  1  0
  3  4  2  0
  4  5  1  0
  5  6  2  0
  6  7  1  0
  7  8  1  0
  8  9  2  0
  9 10  1  0
 10 11  1  0
 10 12  1  0
  9 13  1  0
 13 14  2  0
 14 15  1  0
 15 16  1  0
 16 17  2  0
 16 18  1  0
 18 19  1  0
 19 20  2  0
 20 21  1  0
 21 22  2  0
 22 23  1  0
 23 24  1  0
 24 25  2  0
 25 26  1  0
 26 27  2  0
 27 28  1  0
 28 29  1  0
 29 30  1  0
 30 31  2  0
 31 32  1  0
 32 33  1  0
 33 34  2  0
 33 35  1  0
 35 36  1  0
 36 37  1  0
 37 38  1  0
 38 39  1  0
 39 40  1  0
 40 41  1  0
 41 42  1  0
 42 43  1  0
 32 44  2  0
 44 45  1  0
 45 46  1  0
 46 47  1  0
 46 48  1  0
 46 49  1  0
 45 50  2  0
 28 51  2  0
 22 52  1  0
 52 53  2  0
 53 54  1  0
 54 55  2  0
 55 56  1  0
 56 57  2  0
  6 58  1  0
 58 59  2  0
 59  3  1  0
 14  7  1  0
 57 19  1  0
 51 24  1  0
 57 52  1  0
 50 30  1  0
 43 38  1  0
  1 60  1  0
  1 61  1  0
  1 62  1  0
  4 63  1  0
  5 64  1  0
 10 65  1  0
 11 66  1  0
 11 67  1  0
 11 68  1  0
 12 69  1  0
 12 70  1  0
 12 71  1  0
 13 72  1  0
 15 73  1  0
 18 74  1  0
 20 75  1  0
 21 76  1  0
 25 77  1  0
 26 78  1  0
 29 79  1  0
 31 80  1  0
 35 81  1  0
 36 82  1  0
 36 83  1  0
 37 84  1  0
 37 85  1  0
 39 86  1  0
 39 87  1  0
 40 88  1  0
 40 89  1  0
 42 90  1  0
 42 91  1  0
 43 92  1  0
 43 93  1  0
 44 94  1  0
 50 95  1  0
 53 96  1  0
 54 97  1  0
 55 98  1  0
 56 99  1  0
 58100  1  0
 59101  1  0
M  END
$$$$
