@<TRIPOS>MOLECULE
*****
 101 107 0 0 0
SMALL
GASTEIGER

@<TRIPOS>ATOM
      1 C          13.1882    4.4300   -0.0772 C.3     1  UNL1        0.0788
      2 O          12.7235    3.6526    1.0143 O.3     1  UNL1       -0.4951
      3 C          11.9226    2.5374    0.8429 C.ar    1  UNL1        0.1202
      4 C          11.5728    2.1796   -0.4464 C.ar    1  UNL1       -0.0179
      5 C          10.7728    1.0666   -0.6241 C.ar    1  UNL1       -0.0327
      6 C          10.3188    0.3120    0.4295 C.ar    1  UNL1        0.0677
      7 N           9.5050   -0.8392    0.3204 N.ar    1  UNL1       -0.2181
      8 N           9.9564   -2.0634    0.1216 N.ar    1  UNL1       -0.1694
      9 C           8.9475   -2.9301    0.0720 C.ar    1  UNL1        0.0679
     10 C           8.9380   -4.4039   -0.1411 C.3     1  UNL1       -0.0025
     11 C           9.9734   -5.1128    0.7043 C.3     1  UNL1       -0.0572
     12 C           9.2763   -4.7287   -1.5984 C.3     1  UNL1       -0.0572
     13 C           7.7901   -2.1565    0.2574 C.ar    1  UNL1        0.0018
     14 C           8.1474   -0.8496    0.4114 C.ar    1  UNL1        0.1299
     15 N           7.3524    0.3053    0.6131 N.am    1  UNL1       -0.2538
     16 C           5.9422    0.2565    0.7040 C.2     1  UNL1        0.3092
     17 O           5.3383   -0.8235    0.6233 O.2     1  UNL1       -0.2521
     18 N           5.1940    1.4632    0.8893 N.am    1  UNL1       -0.2686
     19 C           3.7736    1.3810    0.9756 C.ar    1  UNL1        0.0427
     20 C           3.0802    1.2660    2.1579 C.ar    1  UNL1       -0.0363
     21 C           1.7050    1.1693    2.1982 C.ar    1  UNL1       -0.0169
     22 C           0.9731    1.1858    1.0173 C.ar    1  UNL1        0.1381
     23 O          -0.4099    1.0901    1.0221 O.3     1  UNL1       -0.4373
     24 C          -1.0146   -0.0429    0.5007 C.ar    1  UNL1        0.2249
     25 C          -0.2340   -1.1028    0.0783 C.ar    1  UNL1        0.0186
     26 C          -0.8690   -2.2220   -0.4313 C.ar    1  UNL1        0.0362
     27 N          -2.2087   -2.2635   -0.5071 N.ar    1  UNL1       -0.2225
     28 C          -2.9719   -1.2105   -0.0861 C.ar    1  UNL1        0.2226
     29 N          -4.3677   -1.3315   -0.1732 N.pl3   1  UNL1       -0.2835
     30 C          -5.2631   -0.2779    0.0749 C.ar    1  UNL1        0.0348
     31 C          -6.6260   -0.5906    0.2667 C.ar    1  UNL1       -0.0283
     32 C          -7.5694    0.3750    0.4815 C.ar    1  UNL1        0.0390
     33 C          -8.9711    0.0704    0.6731 C.2     1  UNL1        0.2442
     34 O          -9.8189    1.0318    0.7948 O.2     1  UNL1       -0.2702
     35 N          -9.5246   -1.2332    0.7436 N.am    1  UNL1       -0.3101
     36 C         -10.9383   -1.5189    0.9250 C.3     1  UNL1        0.0247
     37 C         -11.7307   -0.9744   -0.2037 C.3     1  UNL1        0.0146
     38 N         -13.1487   -1.2101   -0.1431 N.3     1  UNL1       -0.2965
     39 C         -13.8452   -0.6599   -1.2824 C.3     1  UNL1        0.0225
     40 C         -14.2398    0.7807   -1.0734 C.3     1  UNL1        0.0604
     41 O         -15.0811    0.8254    0.0371 O.3     1  UNL1       -0.3772
     42 C         -14.3024    0.5244    1.1537 C.3     1  UNL1        0.0604
     43 C         -13.7800   -0.8904    1.1007 C.3     1  UNL1        0.0225
     44 C          -7.1507    1.6835    0.5071 C.ar    1  UNL1       -0.0379
     45 C          -5.8410    2.0506    0.3281 C.ar    1  UNL1        0.0573
     46 C          -5.4588    3.4801    0.3652 C.3     1  UNL1        0.4175
     47 F          -4.4964    3.6835   -0.6206 F       1  UNL1       -0.1659
     48 F          -6.5429    4.2755    0.0486 F       1  UNL1       -0.1659
     49 F          -5.0012    3.8211    1.6043 F       1  UNL1       -0.1659
     50 C          -4.9107    1.0278    0.1109 C.ar    1  UNL1       -0.0288
     51 N          -2.3528   -0.1561    0.3943 N.ar    1  UNL1       -0.1789
     52 C           1.6264    1.3019   -0.1832 C.ar    1  UNL1        0.0262
     53 C           0.9287    1.3448   -1.3680 C.ar    1  UNL1       -0.0505
     54 C           1.6133    1.4801   -2.5547 C.ar    1  UNL1       -0.0611
     55 C           2.9867    1.5716   -2.5558 C.ar    1  UNL1       -0.0611
     56 C           3.6989    1.5306   -1.3662 C.ar    1  UNL1       -0.0521
     57 C           3.0259    1.3978   -0.1913 C.ar    1  UNL1        0.0069
     58 C          10.6956    0.7110    1.6969 C.ar    1  UNL1       -0.0327
     59 C          11.4963    1.8196    1.9215 C.ar    1  UNL1       -0.0179
     60 H          12.3077    4.9261   -0.5404 H       1  UNL1        0.0660
     61 H          13.7510    3.8292   -0.8126 H       1  UNL1        0.0660
     62 H          13.8707    5.2158    0.2957 H       1  UNL1        0.0660
     63 H          11.9347    2.7731   -1.2795 H       1  UNL1        0.0655
     64 H          10.4861    0.7631   -1.6139 H       1  UNL1        0.0640
     65 H           7.9279   -4.8243    0.0242 H       1  UNL1        0.0359
     66 H           9.6128   -5.3731    1.7187 H       1  UNL1        0.0236
     67 H          10.8470   -4.4360    0.8410 H       1  UNL1        0.0236
     68 H          10.3451   -6.0331    0.1959 H       1  UNL1        0.0236
     69 H           9.9243   -3.9303   -2.0193 H       1  UNL1        0.0236
     70 H           8.3385   -4.8496   -2.1897 H       1  UNL1        0.0236
     71 H           9.8589   -5.6802   -1.6693 H       1  UNL1        0.0236
     72 H           6.7846   -2.5419    0.2723 H       1  UNL1        0.0671
     73 H           7.8322    1.2517    0.6909 H       1  UNL1        0.1578
     74 H           5.7256    2.3571    0.9539 H       1  UNL1        0.1564
     75 H           3.6106    1.2480    3.0777 H       1  UNL1        0.0637
     76 H           1.1604    1.0773    3.1263 H       1  UNL1        0.0655
     77 H           0.8490   -1.1041    0.1282 H       1  UNL1        0.0686
     78 H          -0.3062   -3.0734   -0.7757 H       1  UNL1        0.0832
     79 H          -4.7975   -2.2855   -0.4500 H       1  UNL1        0.1550
     80 H          -6.9130   -1.6341    0.2378 H       1  UNL1        0.0644
     81 H          -8.8226   -2.0254    0.6528 H       1  UNL1        0.1490
     82 H         -11.1939   -1.0758    1.9122 H       1  UNL1        0.0475
     83 H         -11.0624   -2.6152    0.9430 H       1  UNL1        0.0475
     84 H         -11.6008    0.1217   -0.3029 H       1  UNL1        0.0442
     85 H         -11.3562   -1.3894   -1.1793 H       1  UNL1        0.0442
     86 H         -14.7566   -1.2621   -1.4456 H       1  UNL1        0.0449
     87 H         -13.1951   -0.7995   -2.1644 H       1  UNL1        0.0449
     88 H         -13.3012    1.3427   -0.8251 H       1  UNL1        0.0572
     89 H         -14.7198    1.1475   -2.0005 H       1  UNL1        0.0572
     90 H         -13.5370    1.2938    1.2260 H       1  UNL1        0.0572
     91 H         -14.9553    0.6057    2.0494 H       1  UNL1        0.0572
     92 H         -13.2060   -1.0907    2.0058 H       1  UNL1        0.0449
     93 H         -14.6972   -1.5491    1.1645 H       1  UNL1        0.0449
     94 H          -7.9080    2.4581    0.6781 H       1  UNL1        0.0631
     95 H          -3.9028    1.3699   -0.0335 H       1  UNL1        0.0642
     96 H          -0.1478    1.2935   -1.3721 H       1  UNL1        0.0625
     97 H           1.0421    1.5149   -3.4954 H       1  UNL1        0.0618
     98 H           3.4836    1.6759   -3.4986 H       1  UNL1        0.0618
     99 H           4.7823    1.6035   -1.3927 H       1  UNL1        0.0624
    100 H          10.3626    0.1508    2.5671 H       1  UNL1        0.0640
    101 H          11.7477    2.0632    2.9472 H       1  UNL1        0.0655
@<TRIPOS>BOND
     1     1     2    1
     2     2     3    1
     3     3     4   ar
     4     4     5   ar
     5     5     6   ar
     6     6     7    1
     7     7     8   ar
     8     8     9   ar
     9     9    10    1
    10    10    11    1
    11    10    12    1
    12     9    13   ar
    13    13    14   ar
    14    14    15    1
    15    15    16   am
    16    16    17    2
    17    16    18   am
    18    18    19    1
    19    19    20   ar
    20    20    21   ar
    21    21    22   ar
    22    22    23    1
    23    23    24    1
    24    24    25   ar
    25    25    26   ar
    26    26    27   ar
    27    27    28   ar
    28    28    29    1
    29    29    30    1
    30    30    31   ar
    31    31    32   ar
    32    32    33    1
    33    33    34    2
    34    33    35   am
    35    35    36    1
    36    36    37    1
    37    37    38    1
    38    38    39    1
    39    39    40    1
    40    40    41    1
    41    41    42    1
    42    42    43    1
    43    32    44   ar
    44    44    45   ar
    45    45    46    1
    46    46    47    1
    47    46    48    1
    48    46    49    1
    49    45    50   ar
    50    28    51   ar
    51    22    52   ar
    52    52    53   ar
    53    53    54   ar
    54    54    55   ar
    55    55    56   ar
    56    56    57   ar
    57     6    58   ar
    58    58    59   ar
    59    59     3   ar
    60    14     7   ar
    61    57    19   ar
    62    51    24   ar
    63    57    52   ar
    64    50    30   ar
    65    43    38    1
    66     1    60    1
    67     1    61    1
    68     1    62    1
    69     4    63    1
    70     5    64    1
    71    10    65    1
    72    11    66    1
    73    11    67    1
    74    11    68    1
    75    12    69    1
    76    12    70    1
    77    12    71    1
    78    13    72    1
    79    15    73    1
    80    18    74    1
    81    20    75    1
    82    21    76    1
    83    25    77    1
    84    26    78    1
    85    29    79    1
    86    31    80    1
    87    35    81    1
    88    36    82    1
    89    36    83    1
    90    37    84    1
    91    37    85    1
    92    39    86    1
    93    39    87    1
    94    40    88    1
    95    40    89    1
    96    42    90    1
    97    42    91    1
    98    43    92    1
    99    43    93    1
   100    44    94    1
   101    50    95    1
   102    53    96    1
   103    54    97    1
   104    55    98    1
   105    56    99    1
   106    58   100    1
   107    59   101    1
