@<TRIPOS>MOLECULE
*****
 53 54 0 0 0
SMALL
GASTEIGER

@<TRIPOS>ATOM
      1 C           7.5248   -2.9831    0.0430 C.3     1  UNL1       -0.0648
      2 C           6.6817   -1.8811    0.6133 C.3     1  UNL1       -0.0458
      3 C           5.2586   -1.8819    0.0961 C.3     1  UNL1        0.0448
      4 C           4.5847   -0.7317    0.7662 C.2     1  UNL1        0.3098
      5 O           4.9463    0.1538    1.6047 O.2     1  UNL1       -0.2508
      6 O           3.2793   -0.3783    0.5694 O.3     1  UNL1       -0.4273
      7 C           2.6345    0.7118    1.2022 C.3     1  UNL1        0.2391
      8 O           1.3071    0.8661    0.8376 O.3     1  UNL1       -0.4240
      9 C           0.8286    1.0938   -0.4338 C.2     1  UNL1        0.3402
     10 O           1.8556    1.1257   -1.1549 O.2     1  UNL1       -0.2451
     11 C          -0.5473    1.2646   -0.8830 C.2     1  UNL1        0.0653
     12 C          -0.7442    1.4736   -2.1702 C.2     1  UNL1        0.0157
     13 C           0.3692    1.5416   -3.1739 C.3     1  UNL1       -0.0260
     14 N          -2.0772    1.6439   -2.6432 N.pl3   1  UNL1       -0.3207
     15 C          -3.2357    1.6053   -1.8161 C.2     1  UNL1        0.0157
     16 C          -4.5874    1.7857   -2.3503 C.3     1  UNL1       -0.0260
     17 C          -2.9747    1.3945   -0.5436 C.2     1  UNL1        0.0652
     18 C          -1.6427    1.2010    0.0897 C.3     1  UNL1        0.0520
     19 C          -1.6954   -0.0598    0.8687 C.ar    1  UNL1       -0.0154
     20 C          -1.1894   -0.1083    2.1577 C.ar    1  UNL1       -0.0562
     21 C          -1.1997   -1.2244    2.9463 C.ar    1  UNL1       -0.0600
     22 C          -1.7482   -2.4045    2.4489 C.ar    1  UNL1       -0.0420
     23 C          -2.2603   -2.3991    1.1768 C.ar    1  UNL1        0.0595
     24 CL         -2.9575   -3.8789    0.5300 Cl      1  UNL1       -0.0820
     25 C          -2.2277   -1.2492    0.4185 C.ar    1  UNL1        0.0633
     26 CL         -2.8916   -1.3076   -1.1813 Cl      1  UNL1       -0.0817
     27 C          -4.0948    1.3347    0.4005 C.2     1  UNL1        0.3373
     28 O          -4.1386    1.1512    1.6396 O.2     1  UNL1       -0.2452
     29 O          -5.4023    1.4878    0.0242 O.3     1  UNL1       -0.4646
     30 C          -6.4880    1.4308    0.9320 C.3     1  UNL1        0.0820
     31 H           8.5969   -2.6595    0.1162 H       1  UNL1        0.0230
     32 H           7.4171   -3.9260    0.6290 H       1  UNL1        0.0230
     33 H           7.3127   -3.1079   -1.0340 H       1  UNL1        0.0230
     34 H           7.1931   -0.9188    0.4049 H       1  UNL1        0.0268
     35 H           6.6879   -1.9775    1.7150 H       1  UNL1        0.0268
     36 H           4.7424   -2.8064    0.4207 H       1  UNL1        0.0377
     37 H           5.2010   -1.8244   -0.9928 H       1  UNL1        0.0377
     38 H           3.2542    1.6263    1.1066 H       1  UNL1        0.1168
     39 H           2.6555    0.4643    2.2967 H       1  UNL1        0.1168
     40 H          -0.0292    1.7068   -4.1894 H       1  UNL1        0.0290
     41 H           0.8636    0.5511   -3.1839 H       1  UNL1        0.0290
     42 H           1.0680    2.3604   -2.9686 H       1  UNL1        0.0290
     43 H          -2.2210    1.8112   -3.6808 H       1  UNL1        0.1516
     44 H          -5.1950    0.8640   -2.2194 H       1  UNL1        0.0290
     45 H          -4.5105    1.9291   -3.4536 H       1  UNL1        0.0290
     46 H          -5.0986    2.6772   -1.9652 H       1  UNL1        0.0290
     47 H          -1.5495    2.0520    0.8189 H       1  UNL1        0.0452
     48 H          -0.7425    0.7437    2.6493 H       1  UNL1        0.0621
     49 H          -0.8100   -1.2761    3.9492 H       1  UNL1        0.0618
     50 H          -1.7641   -3.2947    3.0588 H       1  UNL1        0.0633
     51 H          -6.4127    0.4466    1.4447 H       1  UNL1        0.0661
     52 H          -7.4556    1.5162    0.4206 H       1  UNL1        0.0661
     53 H          -6.3715    2.2643    1.6420 H       1  UNL1        0.0661
@<TRIPOS>BOND
     1     1     2    1
     2     2     3    1
     3     3     4    1
     4     4     5    2
     5     4     6    1
     6     6     7    1
     7     7     8    1
     8     8     9    1
     9     9    10    2
    10     9    11    1
    11    11    12    2
    12    12    13    1
    13    12    14    1
    14    14    15    1
    15    15    16    1
    16    15    17    2
    17    17    18    1
    18    18    19    1
    19    19    20   ar
    20    20    21   ar
    21    21    22   ar
    22    22    23   ar
    23    23    24    1
    24    23    25   ar
    25    25    26    1
    26    17    27    1
    27    27    28    2
    28    27    29    1
    29    29    30    1
    30    18    11    1
    31    25    19   ar
    32     1    31    1
    33     1    32    1
    34     1    33    1
    35     2    34    1
    36     2    35    1
    37     3    36    1
    38     3    37    1
    39     7    38    1
    40     7    39    1
    41    13    40    1
    42    13    41    1
    43    13    42    1
    44    14    43    1
    45    16    44    1
    46    16    45    1
    47    16    46    1
    48    18    47    1
    49    20    48    1
    50    21    49    1
    51    22    50    1
    52    30    51    1
    53    30    52    1
    54    30    53    1
