@<TRIPOS>MOLECULE
*****
 101 107 0 0 0
SMALL
GASTEIGER

@<TRIPOS>ATOM
      1 C          -3.1277   -4.7863    2.2870 C.3     1  UNL1        0.0789
      2 O          -3.1027   -3.7504    1.3177 O.3     1  UNL1       -0.4933
      3 C          -4.2960   -3.1099    0.9297 C.ar    1  UNL1        0.1412
      4 C          -5.4877   -3.4704    1.4733 C.ar    1  UNL1       -0.0174
      5 C          -6.6766   -2.8507    1.1038 C.ar    1  UNL1       -0.0461
      6 C          -6.6833   -1.8475    0.1700 C.ar    1  UNL1        0.0387
      7 C          -7.8971   -1.1573   -0.2210 C.2     1  UNL1        0.2442
      8 O          -7.8543   -0.3639   -1.2010 O.2     1  UNL1       -0.2702
      9 N          -9.1386   -1.3166    0.4364 N.am    1  UNL1       -0.3101
     10 C         -10.3327   -0.5892   -0.0052 C.3     1  UNL1        0.0247
     11 C         -11.4908   -0.9154    0.9098 C.3     1  UNL1        0.0146
     12 N         -12.6963   -0.2241    0.5198 N.3     1  UNL1       -0.2965
     13 C         -12.5937    1.1988    0.6904 C.3     1  UNL1        0.0225
     14 C         -13.8928    1.9132    0.7199 C.3     1  UNL1        0.0604
     15 O         -14.8495    1.1520    0.0556 O.3     1  UNL1       -0.3772
     16 C         -15.1028    0.0647    0.9056 C.3     1  UNL1        0.0604
     17 C         -13.8899   -0.8263    1.0160 C.3     1  UNL1        0.0225
     18 C          -5.4436   -1.4905   -0.3795 C.ar    1  UNL1       -0.0248
     19 C          -4.2592   -2.0842   -0.0319 C.ar    1  UNL1        0.0765
     20 N          -2.9820   -1.7487   -0.5260 N.pl3   1  UNL1       -0.2806
     21 C          -2.7675   -0.7836   -1.5264 C.ar    1  UNL1        0.2226
     22 N          -3.7106   -0.1866   -2.2359 N.ar    1  UNL1       -0.2225
     23 C          -3.5037    0.7572   -3.1828 C.ar    1  UNL1        0.0362
     24 C          -2.2213    1.1256   -3.4275 C.ar    1  UNL1        0.0186
     25 C          -1.2038    0.5013   -2.6824 C.ar    1  UNL1        0.2249
     26 O           0.0598    0.9165   -2.9712 O.3     1  UNL1       -0.4373
     27 C           1.2572    0.5524   -2.4092 C.ar    1  UNL1        0.1381
     28 C           2.2443   -0.0735   -3.1807 C.ar    1  UNL1       -0.0169
     29 C           3.4502   -0.4402   -2.6285 C.ar    1  UNL1       -0.0363
     30 C           3.7526   -0.2185   -1.3092 C.ar    1  UNL1        0.0427
     31 N           5.0325   -0.5656   -0.7966 N.am    1  UNL1       -0.2686
     32 C           6.0459    0.4506   -0.7046 C.2     1  UNL1        0.3092
     33 O           5.6776    1.5920   -1.0871 O.2     1  UNL1       -0.2521
     34 N           7.3482    0.2669   -0.2413 N.am    1  UNL1       -0.2538
     35 C           8.3173    1.2957   -0.1149 C.ar    1  UNL1        0.1299
     36 C           8.1625    2.6382   -0.3105 C.ar    1  UNL1        0.0018
     37 C           9.3827    3.2979   -0.0874 C.ar    1  UNL1        0.0679
     38 C           9.5927    4.7615   -0.2031 C.3     1  UNL1       -0.0025
     39 C          10.0319    5.2778    1.1511 C.3     1  UNL1       -0.0572
     40 C          10.6663    5.0046   -1.2362 C.3     1  UNL1       -0.0572
     41 N          10.2255    2.3317    0.2340 N.ar    1  UNL1       -0.1694
     42 N           9.6155    1.1264    0.2254 N.ar    1  UNL1       -0.2181
     43 C          10.2810   -0.0928    0.5250 C.ar    1  UNL1        0.0674
     44 C          11.2973   -0.4893   -0.3446 C.ar    1  UNL1       -0.0359
     45 C          11.9985   -1.6704   -0.1056 C.ar    1  UNL1       -0.0568
     46 C          11.7170   -2.4777    0.9836 C.ar    1  UNL1       -0.0503
     47 C          12.4624   -3.7312    1.2468 C.3     1  UNL1       -0.0397
     48 C          10.7123   -2.0809    1.8388 C.ar    1  UNL1       -0.0568
     49 C          10.0191   -0.9017    1.5913 C.ar    1  UNL1       -0.0359
     50 C           2.7842    0.3968   -0.5452 C.ar    1  UNL1        0.0069
     51 C           3.0600    0.6531    0.7987 C.ar    1  UNL1       -0.0521
     52 C           2.1387    1.2791    1.6045 C.ar    1  UNL1       -0.0611
     53 C           0.9324    1.6492    1.0525 C.ar    1  UNL1       -0.0611
     54 C           0.6366    1.4023   -0.2860 C.ar    1  UNL1       -0.0505
     55 C           1.5661    0.7743   -1.0822 C.ar    1  UNL1        0.0262
     56 N          -1.4825   -0.4180   -1.7695 N.ar    1  UNL1       -0.1789
     57 H          -2.1312   -5.2835    2.2720 H       1  UNL1        0.0660
     58 H          -3.2774   -4.3605    3.2862 H       1  UNL1        0.0660
     59 H          -3.9135   -5.5496    2.0121 H       1  UNL1        0.0660
     60 H          -5.4899   -4.2577    2.2045 H       1  UNL1        0.0655
     61 H          -7.6070   -3.1688    1.5616 H       1  UNL1        0.0626
     62 H          -9.2007   -1.9647    1.2407 H       1  UNL1        0.1490
     63 H         -10.5666   -0.7905   -1.0637 H       1  UNL1        0.0475
     64 H         -10.1338    0.4971    0.0859 H       1  UNL1        0.0475
     65 H         -11.6870   -2.0016    0.9031 H       1  UNL1        0.0442
     66 H         -11.2630   -0.6304    1.9567 H       1  UNL1        0.0442
     67 H         -11.9448    1.6356   -0.1316 H       1  UNL1        0.0449
     68 H         -12.0309    1.4011    1.6334 H       1  UNL1        0.0449
     69 H         -13.8023    2.9357    0.2929 H       1  UNL1        0.0572
     70 H         -14.2145    2.0028    1.8021 H       1  UNL1        0.0572
     71 H         -16.0248   -0.4855    0.6264 H       1  UNL1        0.0572
     72 H         -15.2843    0.5069    1.9060 H       1  UNL1        0.0572
     73 H         -13.7064   -1.2078    2.0372 H       1  UNL1        0.0449
     74 H         -14.1295   -1.7375    0.3996 H       1  UNL1        0.0449
     75 H          -5.4699   -0.6987   -1.1082 H       1  UNL1        0.0645
     76 H          -2.1222   -2.2587   -0.1198 H       1  UNL1        0.1551
     77 H          -4.3018    1.2284   -3.7463 H       1  UNL1        0.0832
     78 H          -1.9790    1.8805   -4.1801 H       1  UNL1        0.0686
     79 H           2.0444   -0.2694   -4.2337 H       1  UNL1        0.0655
     80 H           4.2043   -0.9298   -3.2626 H       1  UNL1        0.0637
     81 H           5.2768   -1.5238   -0.4826 H       1  UNL1        0.1564
     82 H           7.6007   -0.7224    0.0610 H       1  UNL1        0.1578
     83 H           7.2417    3.1356   -0.5907 H       1  UNL1        0.0671
     84 H           8.6277    5.2549   -0.4776 H       1  UNL1        0.0359
     85 H          11.0523    4.9434    1.3770 H       1  UNL1        0.0236
     86 H           9.3019    4.9215    1.9238 H       1  UNL1        0.0236
     87 H          10.0393    6.3924    1.1128 H       1  UNL1        0.0236
     88 H          11.5145    4.3174   -1.0122 H       1  UNL1        0.0236
     89 H          11.0057    6.0622   -1.2655 H       1  UNL1        0.0236
     90 H          10.2237    4.6898   -2.2187 H       1  UNL1        0.0236
     91 H          11.5199    0.1367   -1.1960 H       1  UNL1        0.0639
     92 H          12.7980   -1.9941   -0.7797 H       1  UNL1        0.0621
     93 H          12.4779   -4.0049    2.3231 H       1  UNL1        0.0278
     94 H          12.0729   -4.6033    0.6900 H       1  UNL1        0.0278
     95 H          13.5507   -3.6407    0.9569 H       1  UNL1        0.0278
     96 H          10.4905   -2.7077    2.6891 H       1  UNL1        0.0621
     97 H           9.2210   -0.5905    2.2738 H       1  UNL1        0.0639
     98 H           3.9977    0.3580    1.1930 H       1  UNL1        0.0624
     99 H           2.3567    1.4826    2.6632 H       1  UNL1        0.0618
    100 H           0.2029    2.1411    1.6728 H       1  UNL1        0.0618
    101 H          -0.3216    1.7401   -0.6228 H       1  UNL1        0.0625
@<TRIPOS>BOND
     1     1     2    1
     2     2     3    1
     3     3     4   ar
     4     4     5   ar
     5     5     6   ar
     6     6     7    1
     7     7     8    2
     8     7     9   am
     9     9    10    1
    10    10    11    1
    11    11    12    1
    12    12    13    1
    13    13    14    1
    14    14    15    1
    15    15    16    1
    16    16    17    1
    17     6    18   ar
    18    18    19   ar
    19    19    20    1
    20    20    21    1
    21    21    22   ar
    22    22    23   ar
    23    23    24   ar
    24    24    25   ar
    25    25    26    1
    26    26    27    1
    27    27    28   ar
    28    28    29   ar
    29    29    30   ar
    30    30    31    1
    31    31    32   am
    32    32    33    2
    33    32    34   am
    34    34    35    1
    35    35    36   ar
    36    36    37   ar
    37    37    38    1
    38    38    39    1
    39    38    40    1
    40    37    41   ar
    41    41    42   ar
    42    42    43    1
    43    43    44   ar
    44    44    45   ar
    45    45    46   ar
    46    46    47    1
    47    46    48   ar
    48    48    49   ar
    49    30    50   ar
    50    50    51   ar
    51    51    52   ar
    52    52    53   ar
    53    53    54   ar
    54    54    55   ar
    55    25    56   ar
    56    19     3   ar
    57    56    21   ar
    58    17    12    1
    59    55    27   ar
    60    42    35   ar
    61    49    43   ar
    62    55    50   ar
    63     1    57    1
    64     1    58    1
    65     1    59    1
    66     4    60    1
    67     5    61    1
    68     9    62    1
    69    10    63    1
    70    10    64    1
    71    11    65    1
    72    11    66    1
    73    13    67    1
    74    13    68    1
    75    14    69    1
    76    14    70    1
    77    16    71    1
    78    16    72    1
    79    17    73    1
    80    17    74    1
    81    18    75    1
    82    20    76    1
    83    23    77    1
    84    24    78    1
    85    28    79    1
    86    29    80    1
    87    31    81    1
    88    34    82    1
    89    36    83    1
    90    38    84    1
    91    39    85    1
    92    39    86    1
    93    39    87    1
    94    40    88    1
    95    40    89    1
    96    40    90    1
    97    44    91    1
    98    45    92    1
    99    47    93    1
   100    47    94    1
   101    47    95    1
   102    48    96    1
   103    49    97    1
   104    51    98    1
   105    52    99    1
   106    53   100    1
   107    54   101    1
