
     RDKit          3D

101107  0  0  0  0  0  0  0  0999 V2000
   -3.1277   -4.7863    2.2870 C   0  0  0  0  0  0  0  0  0  0  0  0
   -3.1027   -3.7504    1.3177 O   0  0  0  0  0  0  0  0  0  0  0  0
   -4.2960   -3.1099    0.9297 C   0  0  0  0  0  0  0  0  0  0  0  0
   -5.4877   -3.4704    1.4733 C   0  0  0  0  0  0  0  0  0  0  0  0
   -6.6766   -2.8507    1.1038 C   0  0  0  0  0  0  0  0  0  0  0  0
   -6.6833   -1.8475    0.1700 C   0  0  0  0  0  0  0  0  0  0  0  0
   -7.8971   -1.1573   -0.2210 C   0  0  0  0  0  0  0  0  0  0  0  0
   -7.8543   -0.3639   -1.2010 O   0  0  0  0  0  0  0  0  0  0  0  0
   -9.1386   -1.3166    0.4364 N   0  0  0  0  0  0  0  0  0  0  0  0
  -10.3327   -0.5892   -0.0052 C   0  0  0  0  0  0  0  0  0  0  0  0
  -11.4908   -0.9154    0.9098 C   0  0  0  0  0  0  0  0  0  0  0  0
  -12.6963   -0.2241    0.5198 N   0  0  0  0  0  0  0  0  0  0  0  0
  -12.5937    1.1988    0.6904 C   0  0  0  0  0  0  0  0  0  0  0  0
  -13.8928    1.9132    0.7199 C   0  0  0  0  0  0  0  0  0  0  0  0
  -14.8495    1.1520    0.0556 O   0  0  0  0  0  0  0  0  0  0  0  0
  -15.1028    0.0647    0.9056 C   0  0  0  0  0  0  0  0  0  0  0  0
  -13.8899   -0.8263    1.0160 C   0  0  0  0  0  0  0  0  0  0  0  0
   -5.4436   -1.4905   -0.3795 C   0  0  0  0  0  0  0  0  0  0  0  0
   -4.2592   -2.0842   -0.0319 C   0  0  0  0  0  0  0  0  0  0  0  0
   -2.9820   -1.7487   -0.5260 N   0  0  0  0  0  0  0  0  0  0  0  0
   -2.7675   -0.7836   -1.5264 C   0  0  0  0  0  0  0  0  0  0  0  0
   -3.7106   -0.1866   -2.2359 N   0  0  0  0  0  0  0  0  0  0  0  0
   -3.5037    0.7572   -3.1828 C   0  0  0  0  0  0  0  0  0  0  0  0
   -2.2213    1.1256   -3.4275 C   0  0  0  0  0  0  0  0  0  0  0  0
   -1.2038    0.5013   -2.6824 C   0  0  0  0  0  0  0  0  0  0  0  0
    0.0598    0.9165   -2.9712 O   0  0  0  0  0  0  0  0  0  0  0  0
    1.2572    0.5524   -2.4092 C   0  0  0  0  0  0  0  0  0  0  0  0
    2.2443   -0.0735   -3.1807 C   0  0  0  0  0  0  0  0  0  0  0  0
    3.4502   -0.4402   -2.6285 C   0  0  0  0  0  0  0  0  0  0  0  0
    3.7526   -0.2185   -1.3092 C   0  0  0  0  0  0  0  0  0  0  0  0
    5.0325   -0.5656   -0.7966 N   0  0  0  0  0  0  0  0  0  0  0  0
    6.0459    0.4506   -0.7046 C   0  0  0  0  0  0  0  0  0  0  0  0
    5.6776    1.5920   -1.0871 O   0  0  0  0  0  0  0  0  0  0  0  0
    7.3482    0.2669   -0.2413 N   0  0  0  0  0  0  0  0  0  0  0  0
    8.3173    1.2957   -0.1149 C   0  0  0  0  0  0  0  0  0  0  0  0
    8.1625    2.6382   -0.3105 C   0  0  0  0  0  0  0  0  0  0  0  0
    9.3827    3.2979   -0.0874 C   0  0  0  0  0  0  0  0  0  0  0  0
    9.5927    4.7615   -0.2031 C   0  0  0  0  0  0  0  0  0  0  0  0
   10.0319    5.2778    1.1511 C   0  0  0  0  0  0  0  0  0  0  0  0
   10.6663    5.0046   -1.2362 C   0  0  0  0  0  0  0  0  0  0  0  0
   10.2255    2.3317    0.2340 N   0  0  0  0  0  0  0  0  0  0  0  0
    9.6155    1.1264    0.2254 N   0  0  0  0  0  0  0  0  0  0  0  0
   10.2810   -0.0928    0.5250 C   0  0  0  0  0  0  0  0  0  0  0  0
   11.2973   -0.4893   -0.3446 C   0  0  0  0  0  0  0  0  0  0  0  0
   11.9985   -1.6704   -0.1056 C   0  0  0  0  0  0  0  0  0  0  0  0
   11.7170   -2.4777    0.9836 C   0  0  0  0  0  0  0  0  0  0  0  0
   12.4624   -3.7312    1.2468 C   0  0  0  0  0  0  0  0  0  0  0  0
   10.7123   -2.0809    1.8388 C   0  0  0  0  0  0  0  0  0  0  0  0
   10.0191   -0.9017    1.5913 C   0  0  0  0  0  0  0  0  0  0  0  0
    2.7842    0.3968   -0.5452 C   0  0  0  0  0  0  0  0  0  0  0  0
    3.0600    0.6531    0.7987 C   0  0  0  0  0  0  0  0  0  0  0  0
    2.1387    1.2791    1.6045 C   0  0  0  0  0  0  0  0  0  0  0  0
    0.9324    1.6492    1.0525 C   0  0  0  0  0  0  0  0  0  0  0  0
    0.6366    1.4023   -0.2860 C   0  0  0  0  0  0  0  0  0  0  0  0
    1.5661    0.7743   -1.0822 C   0  0  0  0  0  0  0  0  0  0  0  0
   -1.4825   -0.4180   -1.7695 N   0  0  0  0  0  0  0  0  0  0  0  0
   -2.1312   -5.2835    2.2720 H   0  0  0  0  0  0  0  0  0  0  0  0
   -3.2774   -4.3605    3.2862 H   0  0  0  0  0  0  0  0  0  0  0  0
   -3.9135   -5.5496    2.0121 H   0  0  0  0  0  0  0  0  0  0  0  0
   -5.4899   -4.2577    2.2045 H   0  0  0  0  0  0  0  0  0  0  0  0
   -7.6070   -3.1688    1.5616 H   0  0  0  0  0  0  0  0  0  0  0  0
   -9.2007   -1.9647    1.2407 H   0  0  0  0  0  0  0  0  0  0  0  0
  -10.5666   -0.7905   -1.0637 H   0  0  0  0  0  0  0  0  0  0  0  0
  -10.1338    0.4971    0.0859 H   0  0  0  0  0  0  0  0  0  0  0  0
  -11.6870   -2.0016    0.9031 H   0  0  0  0  0  0  0  0  0  0  0  0
  -11.2630   -0.6304    1.9567 H   0  0  0  0  0  0  0  0  0  0  0  0
  -11.9448    1.6356   -0.1316 H   0  0  0  0  0  0  0  0  0  0  0  0
  -12.0309    1.4011    1.6334 H   0  0  0  0  0  0  0  0  0  0  0  0
  -13.8023    2.9357    0.2929 H   0  0  0  0  0  0  0  0  0  0  0  0
  -14.2145    2.0028    1.8021 H   0  0  0  0  0  0  0  0  0  0  0  0
  -16.0248   -0.4855    0.6264 H   0  0  0  0  0  0  0  0  0  0  0  0
  -15.2843    0.5069    1.9060 H   0  0  0  0  0  0  0  0  0  0  0  0
  -13.7064   -1.2078    2.0372 H   0  0  0  0  0  0  0  0  0  0  0  0
  -14.1295   -1.7375    0.3996 H   0  0  0  0  0  0  0  0  0  0  0  0
   -5.4699   -0.6987   -1.1082 H   0  0  0  0  0  0  0  0  0  0  0  0
   -2.1222   -2.2587   -0.1198 H   0  0  0  0  0  0  0  0  0  0  0  0
   -4.3018    1.2284   -3.7463 H   0  0  0  0  0  0  0  0  0  0  0  0
   -1.9790    1.8805   -4.1801 H   0  0  0  0  0  0  0  0  0  0  0  0
    2.0444   -0.2694   -4.2337 H   0  0  0  0  0  0  0  0  0  0  0  0
    4.2043   -0.9298   -3.2626 H   0  0  0  0  0  0  0  0  0  0  0  0
    5.2768   -1.5238   -0.4826 H   0  0  0  0  0  0  0  0  0  0  0  0
    7.6007   -0.7224    0.0610 H   0  0  0  0  0  0  0  0  0  0  0  0
    7.2417    3.1356   -0.5907 H   0  0  0  0  0  0  0  0  0  0  0  0
    8.6277    5.2549   -0.4776 H   0  0  0  0  0  0  0  0  0  0  0  0
   11.0523    4.9434    1.3770 H   0  0  0  0  0  0  0  0  0  0  0  0
    9.3019    4.9215    1.9238 H   0  0  0  0  0  0  0  0  0  0  0  0
   10.0393    6.3924    1.1128 H   0  0  0  0  0  0  0  0  0  0  0  0
   11.5145    4.3174   -1.0122 H   0  0  0  0  0  0  0  0  0  0  0  0
   11.0057    6.0622   -1.2655 H   0  0  0  0  0  0  0  0  0  0  0  0
   10.2237    4.6898   -2.2187 H   0  0  0  0  0  0  0  0  0  0  0  0
   11.5199    0.1367   -1.1960 H   0  0  0  0  0  0  0  0  0  0  0  0
   12.7980   -1.9941   -0.7797 H   0  0  0  0  0  0  0  0  0  0  0  0
   12.4779   -4.0049    2.3231 H   0  0  0  0  0  0  0  0  0  0  0  0
   12.0729   -4.6033    0.6900 H   0  0  0  0  0  0  0  0  0  0  0  0
   13.5507   -3.6407    0.9569 H   0  0  0  0  0  0  0  0  0  0  0  0
   10.4905   -2.7077    2.6891 H   0  0  0  0  0  0  0  0  0  0  0  0
    9.2210   -0.5905    2.2738 H   0  0  0  0  0  0  0  0  0  0  0  0
    3.9977    0.3580    1.1930 H   0  0  0  0  0  0  0  0  0  0  0  0
    2.3567    1.4826    2.6632 H   0  0  0  0  0  0  0  0  0  0  0  0
    0.2029    2.1411    1.6728 H   0  0  0  0  0  0  0  0  0  0  0  0
   -0.3216    1.7401   -0.6228 H   0  0  0  0  0  0  0  0  0  0  0  0
  1  2  1  0
  2  3  1  0
  3  4  2  0
  4  5  1  0
  5  6  2  0
  6  7  1  0
  7  8  2  0
  7  9  1  0
  9 10  1  0
 10 11  1  0
 11 12  1  0
 12 13  1  0
 13 14  1  0
 14 15  1  0
 15 16  1  0
 16 17  1  0
  6 18  1  0
 18 19  2  0
 19 20  1  0
 20 21  1  0
 21 22  2  0
 22 23  1  0
 23 24  2  0
 24 25  1  0
 25 26  1  0
 26 27  1  0
 27 28  2  0
 28 29  1  0
 29 30  2  0
 30 31  1  0
 31 32  1  0
 32 33  2  0
 32 34  1  0
 34 35  1  0
 35 36  2  0
 36 37  1  0
 37 38  1  0
 38 39  1  0
 38 40  1  0
 37 41  2  0
 41 42  1  0
 42 43  1  0
 43 44  2  0
 44 45  1  0
 45 46  2  0
 46 47  1  0
 46 48  1  0
 48 49  2  0
 30 50  1  0
 50 51  2  0
 51 52  1  0
 52 53  2  0
 53 54  1  0
 54 55  2  0
 25 56  2  0
 19  3  1  0
 56 21  1  0
 17 12  1  0
 55 27  1  0
 42 35  1  0
 49 43  1  0
 55 50  1  0
  1 57  1  0
  1 58  1  0
  1 59  1  0
  4 60  1  0
  5 61  1  0
  9 62  1  0
 10 63  1  0
 10 64  1  0
 11 65  1  0
 11 66  1  0
 13 67  1  0
 13 68  1  0
 14 69  1  0
 14 70  1  0
 16 71  1  0
 16 72  1  0
 17 73  1  0
 17 74  1  0
 18 75  1  0
 20 76  1  0
 23 77  1  0
 24 78  1  0
 28 79  1  0
 29 80  1  0
 31 81  1  0
 34 82  1  0
 36 83  1  0
 38 84  1  0
 39 85  1  0
 39 86  1  0
 39 87  1  0
 40 88  1  0
 40 89  1  0
 40 90  1  0
 44 91  1  0
 45 92  1  0
 47 93  1  0
 47 94  1  0
 47 95  1  0
 48 96  1  0
 49 97  1  0
 51 98  1  0
 52 99  1  0
 53100  1  0
 54101  1  0
M  END
$$$$
