@<TRIPOS>MOLECULE
*****
 44 47 0 0 0
SMALL
GASTEIGER

@<TRIPOS>ATOM
      1 N           6.5271    2.1931   -1.1173 N.pl3   1  UNL1       -0.3274
      2 C           5.5423    1.2244   -0.7686 C.ar    1  UNL1        0.2148
      3 N           5.3567    0.1341   -1.5209 N.ar    1  UNL1       -0.2145
      4 C           4.4482   -0.7906   -1.2278 C.ar    1  UNL1        0.0789
      5 C           3.6347   -0.6848   -0.1248 C.ar    1  UNL1        0.0537
      6 C           3.8665    0.4503    0.6120 C.ar    1  UNL1        0.1301
      7 N           3.1284    0.6964    1.7878 N.pl3   1  UNL1       -0.3425
      8 N           4.7850    1.4042    0.3328 N.ar    1  UNL1       -0.1995
      9 C           2.6678   -1.5755    0.2853 C.ar    1  UNL1        0.0252
     10 S           1.6562   -1.3476    1.7403 S.3     1  UNL1       -0.0887
     11 C           0.1342   -0.5885    1.1989 C.ar    1  UNL1        0.0129
     12 C          -0.2658    0.7163    1.0611 C.ar    1  UNL1       -0.0462
     13 C          -1.5345    1.0010    0.6060 C.ar    1  UNL1       -0.0396
     14 C          -2.4649    0.0417    0.2668 C.ar    1  UNL1        0.0299
     15 C          -2.0714   -1.2899    0.4022 C.ar    1  UNL1       -0.0396
     16 C          -0.7847   -1.5938    0.8637 C.ar    1  UNL1       -0.0462
     17 N          -3.7693    0.4308   -0.2006 N.pl3   1  UNL1       -0.3255
     18 C          -3.9867    1.8658   -0.2684 C.3     1  UNL1        0.0357
     19 C          -5.3950    2.1368   -0.7363 C.3     1  UNL1        0.0634
     20 O          -6.2396    1.0790   -0.4552 O.3     1  UNL1       -0.3767
     21 C          -5.8986   -0.0709   -1.1664 C.3     1  UNL1        0.0634
     22 C          -4.6693   -0.6833   -0.5333 C.3     1  UNL1        0.0357
     23 C           2.5375   -2.6954   -0.5414 C.ar    1  UNL1       -0.0472
     24 C           3.3250   -2.8736   -1.6747 C.ar    1  UNL1       -0.0587
     25 C           4.2768   -1.9286   -2.0206 C.ar    1  UNL1       -0.0354
     26 H           7.2385    2.5757   -0.4259 H       1  UNL1        0.1452
     27 H           6.6713    2.6287   -2.0422 H       1  UNL1        0.1452
     28 H           2.5078    0.9566    2.5750 H       1  UNL1        0.1437
     29 H           3.3575    0.2768    2.7226 H       1  UNL1        0.1437
     30 H           0.5054    1.3943    1.3430 H       1  UNL1        0.0629
     31 H          -1.7448    2.0609    0.5352 H       1  UNL1        0.0636
     32 H          -2.8183   -2.0057    0.1303 H       1  UNL1        0.0636
     33 H          -0.6639   -2.6795    0.9022 H       1  UNL1        0.0629
     34 H          -3.8561    2.2179    0.7874 H       1  UNL1        0.0486
     35 H          -3.2859    2.3803   -0.9467 H       1  UNL1        0.0486
     36 H          -5.8263    3.0441   -0.2614 H       1  UNL1        0.0575
     37 H          -5.3443    2.2657   -1.8537 H       1  UNL1        0.0575
     38 H          -5.6116    0.1976   -2.2027 H       1  UNL1        0.0575
     39 H          -6.7614   -0.7464   -1.1357 H       1  UNL1        0.0575
     40 H          -4.8911   -1.1706    0.4352 H       1  UNL1        0.0486
     41 H          -4.1744   -1.3691   -1.2531 H       1  UNL1        0.0486
     42 H           1.7978   -3.4504   -0.2908 H       1  UNL1        0.0629
     43 H           3.2144   -3.7491   -2.3102 H       1  UNL1        0.0619
     44 H           4.8787   -2.0792   -2.9004 H       1  UNL1        0.0639
@<TRIPOS>BOND
     1     1     2    1
     2     2     3   ar
     3     3     4   ar
     4     4     5   ar
     5     5     6   ar
     6     6     7    1
     7     6     8   ar
     8     5     9   ar
     9     9    10    1
    10    10    11    1
    11    11    12   ar
    12    12    13   ar
    13    13    14   ar
    14    14    15   ar
    15    15    16   ar
    16    14    17    1
    17    17    18    1
    18    18    19    1
    19    19    20    1
    20    20    21    1
    21    21    22    1
    22     9    23   ar
    23    23    24   ar
    24    24    25   ar
    25     8     2   ar
    26    16    11   ar
    27    22    17    1
    28    25     4   ar
    29     1    26    1
    30     1    27    1
    31     7    28    1
    32     7    29    1
    33    12    30    1
    34    13    31    1
    35    15    32    1
    36    16    33    1
    37    18    34    1
    38    18    35    1
    39    19    36    1
    40    19    37    1
    41    21    38    1
    42    21    39    1
    43    22    40    1
    44    22    41    1
    45    23    42    1
    46    24    43    1
    47    25    44    1
