
     RDKit          3D

 50 49  0  0  0  0  0  0  0  0999 V2000
    6.7617    0.9852    0.2030 C   0  0  0  0  0  0  0  0  0  0  0  0
    6.0527   -0.2715    0.0529 N   0  0  0  0  0  4  0  0  0  0  0  0
    6.3158   -1.0699    1.2201 C   0  0  0  0  0  0  0  0  0  0  0  0
    6.6232   -0.9686   -1.0850 C   0  0  0  0  0  0  0  0  0  0  0  0
    4.6432   -0.1097   -0.2299 C   0  0  0  0  0  0  0  0  0  0  0  0
    4.0167    1.0445    0.4951 C   0  0  0  0  0  0  0  0  0  0  0  0
    2.6557    1.1039    0.1441 O   0  0  0  0  0  0  0  0  0  0  0  0
    1.7288    0.1005    0.3790 C   0  0  0  0  0  0  0  0  0  0  0  0
    2.0600   -0.9786    0.9573 O   0  0  0  0  0  0  0  0  0  0  0  0
    0.3075    0.2817   -0.0554 C   0  0  0  0  0  0  0  0  0  0  0  0
   -0.5130    0.3448    1.2261 C   0  0  0  0  0  0  0  0  0  0  0  0
   -1.9529    0.5464    0.9848 C   0  0  0  0  0  0  0  0  0  0  0  0
   -2.1581    1.5013    0.1894 O   0  0  0  0  0  0  0  0  0  0  0  0
   -2.8723   -0.2613    1.5999 O   0  0  0  0  0  0  0  0  0  0  0  0
   -4.2446   -0.0920    1.3799 C   0  0  0  0  0  0  0  0  0  0  0  0
   -4.5585   -0.2828   -0.0754 C   0  0  0  0  0  0  0  0  0  0  0  0
   -5.9787   -0.1183   -0.3458 N   0  0  0  0  0  4  0  0  0  0  0  0
   -6.1746    0.8066   -1.4459 C   0  0  0  0  0  0  0  0  0  0  0  0
   -6.7027    0.4503    0.7807 C   0  0  0  0  0  0  0  0  0  0  0  0
   -6.5277   -1.4363   -0.6202 C   0  0  0  0  0  0  0  0  0  0  0  0
    7.7933    0.6961    0.5361 H   0  0  0  0  0  0  0  0  0  0  0  0
    6.2397    1.5491    1.0177 H   0  0  0  0  0  0  0  0  0  0  0  0
    6.8250    1.5576   -0.7359 H   0  0  0  0  0  0  0  0  0  0  0  0
    5.8295   -2.0398    1.0992 H   0  0  0  0  0  0  0  0  0  0  0  0
    7.4347   -1.2468    1.2298 H   0  0  0  0  0  0  0  0  0  0  0  0
    6.1174   -0.5744    2.1819 H   0  0  0  0  0  0  0  0  0  0  0  0
    6.8842   -0.2848   -1.9212 H   0  0  0  0  0  0  0  0  0  0  0  0
    5.8306   -1.7069   -1.4010 H   0  0  0  0  0  0  0  0  0  0  0  0
    7.4840   -1.6043   -0.7430 H   0  0  0  0  0  0  0  0  0  0  0  0
    4.5420    0.0588   -1.3266 H   0  0  0  0  0  0  0  0  0  0  0  0
    4.1738   -1.0828    0.0011 H   0  0  0  0  0  0  0  0  0  0  0  0
    4.1491    1.0331    1.5708 H   0  0  0  0  0  0  0  0  0  0  0  0
    4.4608    2.0079    0.1347 H   0  0  0  0  0  0  0  0  0  0  0  0
    0.0196   -0.7061   -0.5257 H   0  0  0  0  0  0  0  0  0  0  0  0
    0.1694    1.1403   -0.7244 H   0  0  0  0  0  0  0  0  0  0  0  0
   -0.0629    1.2075    1.7990 H   0  0  0  0  0  0  0  0  0  0  0  0
   -0.2977   -0.5560    1.8147 H   0  0  0  0  0  0  0  0  0  0  0  0
   -4.4484    0.9885    1.6552 H   0  0  0  0  0  0  0  0  0  0  0  0
   -4.8594   -0.7430    2.0374 H   0  0  0  0  0  0  0  0  0  0  0  0
   -3.9998    0.4840   -0.6598 H   0  0  0  0  0  0  0  0  0  0  0  0
   -4.1788   -1.2561   -0.4377 H   0  0  0  0  0  0  0  0  0  0  0  0
   -5.7588    1.7833   -1.1550 H   0  0  0  0  0  0  0  0  0  0  0  0
   -5.7419    0.4529   -2.3937 H   0  0  0  0  0  0  0  0  0  0  0  0
   -7.2966    0.9265   -1.5575 H   0  0  0  0  0  0  0  0  0  0  0  0
   -7.7695    0.5422    0.4444 H   0  0  0  0  0  0  0  0  0  0  0  0
   -6.7352   -0.2464    1.6369 H   0  0  0  0  0  0  0  0  0  0  0  0
   -6.3030    1.4418    0.9926 H   0  0  0  0  0  0  0  0  0  0  0  0
   -7.1126   -1.7641    0.2792 H   0  0  0  0  0  0  0  0  0  0  0  0
   -5.7192   -2.1823   -0.7418 H   0  0  0  0  0  0  0  0  0  0  0  0
   -7.1516   -1.4520   -1.5372 H   0  0  0  0  0  0  0  0  0  0  0  0
  1  2  1  0
  2  3  1  0
  2  4  1  0
  2  5  1  0
  5  6  1  0
  6  7  1  0
  7  8  1  0
  8  9  2  0
  8 10  1  0
 10 11  1  0
 11 12  1  0
 12 13  2  0
 12 14  1  0
 14 15  1  0
 15 16  1  0
 16 17  1  0
 17 18  1  0
 17 19  1  0
 17 20  1  0
  1 21  1  0
  1 22  1  0
  1 23  1  0
  3 24  1  0
  3 25  1  0
  3 26  1  0
  4 27  1  0
  4 28  1  0
  4 29  1  0
  5 30  1  0
  5 31  1  0
  6 32  1  0
  6 33  1  0
 10 34  1  0
 10 35  1  0
 11 36  1  0
 11 37  1  0
 15 38  1  0
 15 39  1  0
 16 40  1  0
 16 41  1  0
 18 42  1  0
 18 43  1  0
 18 44  1  0
 19 45  1  0
 19 46  1  0
 19 47  1  0
 20 48  1  0
 20 49  1  0
 20 50  1  0
M  CHG  2   2   1  17   1
M  END
$$$$
