@<TRIPOS>MOLECULE
*****
 72 76 0 0 0
SMALL
GASTEIGER

@<TRIPOS>ATOM
      1 C          -9.8411    1.5131   -1.3376 C.3     1  UNL1       -0.0253
      2 C          -9.9722    1.2864    0.0953 C.3     1  UNL1        0.1068
      3 C         -10.9491    0.4127    0.7095 C.3     1  UNL1       -0.0253
      4 C         -10.0929    2.6891    0.7847 C.3     1  UNL1       -0.0253
      5 O          -8.6216    0.8501    0.5629 O.3     1  UNL1       -0.4447
      6 C          -8.2132   -0.3869    0.0143 C.2     1  UNL1        0.4016
      7 O          -8.8794   -1.0445   -0.7332 O.2     1  UNL1       -0.2264
      8 N          -6.9181   -0.8335    0.3869 N.am    1  UNL1       -0.2671
      9 C          -6.2759   -2.0079   -0.0275 C.3     1  UNL1        0.1139
     10 C          -4.9397   -2.1520    0.6306 C.2     1  UNL1        0.2392
     11 O          -4.6621   -3.2392    1.2486 O.2     1  UNL1       -0.2732
     12 N          -3.9326   -1.1133    0.5825 N.am    1  UNL1       -0.2973
     13 C          -2.6671   -1.2461    1.2426 C.3     1  UNL1        0.0299
     14 C          -2.5413    0.3976    1.0591 C.3     1  UNL1        0.0524
     15 C          -1.1616    0.4445    0.9240 C.1     1  UNL1       -0.0905
     16 C          -0.0565    0.4627    0.8181 C.1     1  UNL1       -0.0658
     17 C           1.5474    0.4763    0.6849 C.ar    1  UNL1        0.0285
     18 C           2.0671    1.5638    0.3459 C.ar    1  UNL1       -0.0454
     19 C           3.4793    1.5871    0.1455 C.ar    1  UNL1       -0.0462
     20 C           4.1186    0.3339    0.3493 C.ar    1  UNL1        0.0646
     21 C           5.5054    0.3142    0.1466 C.ar    1  UNL1        0.2001
     22 O           6.1103    1.3254   -0.1622 O.2     1  UNL1       -0.2864
     23 C           6.1575   -0.9102    0.3132 C.ar    1  UNL1        0.0643
     24 C           7.6082   -0.8210    0.1321 C.ar    1  UNL1       -0.0112
     25 C           8.2856    0.1616    0.8980 C.ar    1  UNL1       -0.0520
     26 C           9.6215    0.4129    0.7739 C.ar    1  UNL1       -0.0388
     27 C          10.3679   -0.3088   -0.1455 C.ar    1  UNL1        0.0477
     28 N          11.7595   -0.0592   -0.3226 N.pl3   1  UNL1       -0.2209
     29 S          12.4979    1.3725    0.2370 S.O2    1  UNL1        0.0403
     30 C          11.8930    2.8400   -0.5229 C.3     1  UNL1        0.0736
     31 O          13.9932    1.2822   -0.0609 O.2     1  UNL1       -0.1555
     32 O          12.4069    1.4953    1.7257 O.2     1  UNL1       -0.1555
     33 C           9.7393   -1.2557   -0.8892 C.ar    1  UNL1       -0.0388
     34 C           8.3773   -1.5313   -0.7665 C.ar    1  UNL1       -0.0520
     35 C           5.4554   -1.9898    0.6661 C.ar    1  UNL1        0.1038
     36 O           4.1614   -1.9769    0.8696 O.2     1  UNL1       -0.4621
     37 C           3.4882   -0.8072    0.7051 C.ar    1  UNL1        0.1396
     38 C           2.1184   -0.8010    0.9044 C.ar    1  UNL1       -0.0032
     39 C          -3.5446    0.1132    0.0158 C.3     1  UNL1        0.0299
     40 C          -6.9010   -3.3184   -0.3072 C.3     1  UNL1       -0.0205
     41 C          -6.2993   -2.4844   -1.4235 C.3     1  UNL1       -0.0205
     42 H          -9.3248    0.7214   -1.9489 H       1  UNL1        0.0268
     43 H          -9.0977    2.3993   -1.4378 H       1  UNL1        0.0268
     44 H         -10.7922    1.8113   -1.7988 H       1  UNL1        0.0268
     45 H         -11.9061    0.9074    0.9268 H       1  UNL1        0.0268
     46 H         -10.9353   -0.5622    0.2358 H       1  UNL1        0.0268
     47 H         -10.5377    0.1601    1.8060 H       1  UNL1        0.0268
     48 H          -9.9245    3.4424   -0.0215 H       1  UNL1        0.0268
     49 H          -9.2572    2.7898    1.4804 H       1  UNL1        0.0268
     50 H         -11.0951    2.8214    1.2259 H       1  UNL1        0.0268
     51 H          -6.4023   -0.2086    1.0898 H       1  UNL1        0.1530
     52 H          -1.8698   -1.6681    0.5592 H       1  UNL1        0.0477
     53 H          -2.5665   -1.4552    2.2589 H       1  UNL1        0.0477
     54 H          -2.9616    0.8563    2.0210 H       1  UNL1        0.0464
     55 H           1.5482    2.5100    0.2551 H       1  UNL1        0.0630
     56 H           3.9859    2.4681   -0.1226 H       1  UNL1        0.0626
     57 H           7.6649    0.7209    1.6011 H       1  UNL1        0.0624
     58 H          10.1295    1.1642    1.3518 H       1  UNL1        0.0637
     59 H          12.3430   -0.8172   -0.7566 H       1  UNL1        0.1733
     60 H          11.4612    2.6777   -1.5345 H       1  UNL1        0.0482
     61 H          12.7525    3.5800   -0.5562 H       1  UNL1        0.0482
     62 H          11.1037    3.3622    0.1299 H       1  UNL1        0.0482
     63 H          10.2783   -1.8672   -1.5917 H       1  UNL1        0.0637
     64 H           7.8531   -2.2812   -1.3300 H       1  UNL1        0.0624
     65 H           5.9371   -2.9712    0.8005 H       1  UNL1        0.1037
     66 H           1.6271   -1.6601    1.2316 H       1  UNL1        0.0667
     67 H          -4.3934    0.8769    0.0262 H       1  UNL1        0.0477
     68 H          -3.1692   -0.0235   -1.0083 H       1  UNL1        0.0477
     69 H          -6.3174   -4.2588   -0.0574 H       1  UNL1        0.0291
     70 H          -7.9887   -3.4988   -0.2297 H       1  UNL1        0.0291
     71 H          -7.0875   -2.2463   -2.1886 H       1  UNL1        0.0291
     72 H          -5.3474   -2.7979   -1.8501 H       1  UNL1        0.0291
@<TRIPOS>BOND
     1     1     2    1
     2     2     3    1
     3     2     4    1
     4     2     5    1
     5     5     6    1
     6     6     7    2
     7     6     8   am
     8     8     9    1
     9     9    10    1
    10    10    11    2
    11    10    12   am
    12    12    13    1
    13    13    14    1
    14    14    15    1
    15    15    16    3
    16    16    17    1
    17    17    18   ar
    18    18    19   ar
    19    19    20   ar
    20    20    21   ar
    21    21    22    2
    22    21    23   ar
    23    23    24    1
    24    24    25   ar
    25    25    26   ar
    26    26    27   ar
    27    27    28    1
    28    28    29    1
    29    29    30    1
    30    29    31    2
    31    29    32    2
    32    27    33   ar
    33    33    34   ar
    34    23    35   ar
    35    35    36   ar
    36    36    37   ar
    37    37    38   ar
    38    14    39    1
    39     9    40    1
    40    40    41    1
    41    41     9    1
    42    39    12    1
    43    38    17   ar
    44    37    20   ar
    45    34    24   ar
    46     1    42    1
    47     1    43    1
    48     1    44    1
    49     3    45    1
    50     3    46    1
    51     3    47    1
    52     4    48    1
    53     4    49    1
    54     4    50    1
    55     8    51    1
    56    13    52    1
    57    13    53    1
    58    14    54    1
    59    18    55    1
    60    19    56    1
    61    25    57    1
    62    26    58    1
    63    28    59    1
    64    30    60    1
    65    30    61    1
    66    30    62    1
    67    33    63    1
    68    34    64    1
    69    35    65    1
    70    38    66    1
    71    39    67    1
    72    39    68    1
    73    40    69    1
    74    40    70    1
    75    41    71    1
    76    41    72    1
