
     RDKit          3D

 72 76  0  0  0  0  0  0  0  0999 V2000
   -9.8411    1.5131   -1.3376 C   0  0  0  0  0  0  0  0  0  0  0  0
   -9.9722    1.2864    0.0953 C   0  0  0  0  0  0  0  0  0  0  0  0
  -10.9491    0.4127    0.7095 C   0  0  0  0  0  0  0  0  0  0  0  0
  -10.0929    2.6891    0.7847 C   0  0  0  0  0  0  0  0  0  0  0  0
   -8.6216    0.8501    0.5629 O   0  0  0  0  0  0  0  0  0  0  0  0
   -8.2132   -0.3869    0.0143 C   0  0  0  0  0  0  0  0  0  0  0  0
   -8.8794   -1.0445   -0.7332 O   0  0  0  0  0  0  0  0  0  0  0  0
   -6.9181   -0.8335    0.3869 N   0  0  0  0  0  0  0  0  0  0  0  0
   -6.2759   -2.0079   -0.0275 C   0  0  0  0  0  0  0  0  0  0  0  0
   -4.9397   -2.1520    0.6306 C   0  0  0  0  0  0  0  0  0  0  0  0
   -4.6621   -3.2392    1.2486 O   0  0  0  0  0  0  0  0  0  0  0  0
   -3.9326   -1.1133    0.5825 N   0  0  0  0  0  0  0  0  0  0  0  0
   -2.6671   -1.2461    1.2426 C   0  0  0  0  0  0  0  0  0  0  0  0
   -2.5413    0.3976    1.0591 C   0  0  0  0  0  0  0  0  0  0  0  0
   -1.1616    0.4445    0.9240 C   0  0  0  0  0  0  0  0  0  0  0  0
   -0.0565    0.4627    0.8181 C   0  0  0  0  0  0  0  0  0  0  0  0
    1.5474    0.4763    0.6849 C   0  0  0  0  0  0  0  0  0  0  0  0
    2.0671    1.5638    0.3459 C   0  0  0  0  0  0  0  0  0  0  0  0
    3.4793    1.5871    0.1455 C   0  0  0  0  0  0  0  0  0  0  0  0
    4.1186    0.3339    0.3493 C   0  0  0  0  0  0  0  0  0  0  0  0
    5.5054    0.3142    0.1466 C   0  0  0  0  0  0  0  0  0  0  0  0
    6.1103    1.3254   -0.1622 O   0  0  0  0  0  0  0  0  0  0  0  0
    6.1575   -0.9102    0.3132 C   0  0  0  0  0  0  0  0  0  0  0  0
    7.6082   -0.8210    0.1321 C   0  0  0  0  0  0  0  0  0  0  0  0
    8.2856    0.1616    0.8980 C   0  0  0  0  0  0  0  0  0  0  0  0
    9.6215    0.4129    0.7739 C   0  0  0  0  0  0  0  0  0  0  0  0
   10.3679   -0.3088   -0.1455 C   0  0  0  0  0  0  0  0  0  0  0  0
   11.7595   -0.0592   -0.3226 N   0  0  0  0  0  0  0  0  0  0  0  0
   12.4979    1.3725    0.2370 S   0  0  0  0  0  6  0  0  0  0  0  0
   11.8930    2.8400   -0.5229 C   0  0  0  0  0  0  0  0  0  0  0  0
   13.9932    1.2822   -0.0609 O   0  0  0  0  0  0  0  0  0  0  0  0
   12.4069    1.4953    1.7257 O   0  0  0  0  0  0  0  0  0  0  0  0
    9.7393   -1.2557   -0.8892 C   0  0  0  0  0  0  0  0  0  0  0  0
    8.3773   -1.5313   -0.7665 C   0  0  0  0  0  0  0  0  0  0  0  0
    5.4554   -1.9898    0.6661 C   0  0  0  0  0  0  0  0  0  0  0  0
    4.1614   -1.9769    0.8696 O   0  0  0  0  0  0  0  0  0  0  0  0
    3.4882   -0.8072    0.7051 C   0  0  0  0  0  0  0  0  0  0  0  0
    2.1184   -0.8010    0.9044 C   0  0  0  0  0  0  0  0  0  0  0  0
   -3.5446    0.1132    0.0158 C   0  0  0  0  0  0  0  0  0  0  0  0
   -6.9010   -3.3184   -0.3072 C   0  0  0  0  0  0  0  0  0  0  0  0
   -6.2993   -2.4844   -1.4235 C   0  0  0  0  0  0  0  0  0  0  0  0
   -9.3248    0.7214   -1.9489 H   0  0  0  0  0  0  0  0  0  0  0  0
   -9.0977    2.3993   -1.4378 H   0  0  0  0  0  0  0  0  0  0  0  0
  -10.7922    1.8113   -1.7988 H   0  0  0  0  0  0  0  0  0  0  0  0
  -11.9061    0.9074    0.9268 H   0  0  0  0  0  0  0  0  0  0  0  0
  -10.9353   -0.5622    0.2358 H   0  0  0  0  0  0  0  0  0  0  0  0
  -10.5377    0.1601    1.8060 H   0  0  0  0  0  0  0  0  0  0  0  0
   -9.9245    3.4424   -0.0215 H   0  0  0  0  0  0  0  0  0  0  0  0
   -9.2572    2.7898    1.4804 H   0  0  0  0  0  0  0  0  0  0  0  0
  -11.0951    2.8214    1.2259 H   0  0  0  0  0  0  0  0  0  0  0  0
   -6.4023   -0.2086    1.0898 H   0  0  0  0  0  0  0  0  0  0  0  0
   -1.8698   -1.6681    0.5592 H   0  0  0  0  0  0  0  0  0  0  0  0
   -2.5665   -1.4552    2.2589 H   0  0  0  0  0  0  0  0  0  0  0  0
   -2.9616    0.8563    2.0210 H   0  0  0  0  0  0  0  0  0  0  0  0
    1.5482    2.5100    0.2551 H   0  0  0  0  0  0  0  0  0  0  0  0
    3.9859    2.4681   -0.1226 H   0  0  0  0  0  0  0  0  0  0  0  0
    7.6649    0.7209    1.6011 H   0  0  0  0  0  0  0  0  0  0  0  0
   10.1295    1.1642    1.3518 H   0  0  0  0  0  0  0  0  0  0  0  0
   12.3430   -0.8172   -0.7566 H   0  0  0  0  0  0  0  0  0  0  0  0
   11.4612    2.6777   -1.5345 H   0  0  0  0  0  0  0  0  0  0  0  0
   12.7525    3.5800   -0.5562 H   0  0  0  0  0  0  0  0  0  0  0  0
   11.1037    3.3622    0.1299 H   0  0  0  0  0  0  0  0  0  0  0  0
   10.2783   -1.8672   -1.5917 H   0  0  0  0  0  0  0  0  0  0  0  0
    7.8531   -2.2812   -1.3300 H   0  0  0  0  0  0  0  0  0  0  0  0
    5.9371   -2.9712    0.8005 H   0  0  0  0  0  0  0  0  0  0  0  0
    1.6271   -1.6601    1.2316 H   0  0  0  0  0  0  0  0  0  0  0  0
   -4.3934    0.8769    0.0262 H   0  0  0  0  0  0  0  0  0  0  0  0
   -3.1692   -0.0235   -1.0083 H   0  0  0  0  0  0  0  0  0  0  0  0
   -6.3174   -4.2588   -0.0574 H   0  0  0  0  0  0  0  0  0  0  0  0
   -7.9887   -3.4988   -0.2297 H   0  0  0  0  0  0  0  0  0  0  0  0
   -7.0875   -2.2463   -2.1886 H   0  0  0  0  0  0  0  0  0  0  0  0
   -5.3474   -2.7979   -1.8501 H   0  0  0  0  0  0  0  0  0  0  0  0
  1  2  1  0
  2  3  1  0
  2  4  1  0
  2  5  1  0
  5  6  1  0
  6  7  2  0
  6  8  1  0
  8  9  1  0
  9 10  1  0
 10 11  2  0
 10 12  1  0
 12 13  1  0
 13 14  1  0
 14 15  1  0
 15 16  3  0
 16 17  1  0
 17 18  2  0
 18 19  1  0
 19 20  2  0
 20 21  1  0
 21 22  2  0
 21 23  1  0
 23 24  1  0
 24 25  2  0
 25 26  1  0
 26 27  2  0
 27 28  1  0
 28 29  1  0
 29 30  1  0
 29 31  2  0
 29 32  2  0
 27 33  1  0
 33 34  2  0
 23 35  2  0
 35 36  1  0
 36 37  1  0
 37 38  2  0
 14 39  1  0
  9 40  1  0
 40 41  1  0
 41  9  1  0
 39 12  1  0
 38 17  1  0
 37 20  1  0
 34 24  1  0
  1 42  1  0
  1 43  1  0
  1 44  1  0
  3 45  1  0
  3 46  1  0
  3 47  1  0
  4 48  1  0
  4 49  1  0
  4 50  1  0
  8 51  1  0
 13 52  1  0
 13 53  1  0
 14 54  1  0
 18 55  1  0
 19 56  1  0
 25 57  1  0
 26 58  1  0
 28 59  1  0
 30 60  1  0
 30 61  1  0
 30 62  1  0
 33 63  1  0
 34 64  1  0
 35 65  1  0
 38 66  1  0
 39 67  1  0
 39 68  1  0
 40 69  1  0
 40 70  1  0
 41 71  1  0
 41 72  1  0
M  END
$$$$
