@<TRIPOS>MOLECULE
*****
 47 48 0 0 0
SMALL
GASTEIGER

@<TRIPOS>ATOM
      1 C           7.8093   -0.1306    1.1956 C.3     1  UNL1        0.0790
      2 O           7.3045   -0.3947   -0.0923 O.3     1  UNL1       -0.4914
      3 C           5.9359   -0.2589   -0.4003 C.ar    1  UNL1        0.1618
      4 C           5.0522    0.1379    0.5558 C.ar    1  UNL1       -0.0092
      5 C           3.6616    0.2903    0.2971 C.ar    1  UNL1       -0.0212
      6 C           2.8209    0.6680    1.3985 C.2     1  UNL1       -0.0512
      7 C           1.6489    1.0872    1.5367 C.2     1  UNL1       -0.0182
      8 C           0.5061    1.4344    0.8094 C.2     1  UNL1        0.1635
      9 O          -0.5489    1.8462    1.5296 O.2     1  UNL1       -0.2922
     10 C           0.1920    1.4548   -0.6090 C.3     1  UNL1        0.0724
     11 C          -1.1299    2.0815   -0.8990 C.2     1  UNL1        0.1635
     12 O          -1.1523    3.2550   -1.3082 O.2     1  UNL1       -0.2922
     13 C          -2.3467    1.3372   -0.7066 C.2     1  UNL1       -0.0182
     14 C          -2.3085    0.1058   -0.2596 C.2     1  UNL1       -0.0512
     15 C          -3.5305   -0.6533   -0.0632 C.ar    1  UNL1       -0.0212
     16 C          -3.4685   -1.9698    0.4242 C.ar    1  UNL1       -0.0509
     17 C          -4.6092   -2.6926    0.6122 C.ar    1  UNL1       -0.0160
     18 C          -5.8713   -2.2089    0.3490 C.ar    1  UNL1        0.1585
     19 O          -7.0151   -2.9570    0.5461 O.3     1  UNL1       -0.5033
     20 C          -5.9456   -0.9221   -0.1284 C.ar    1  UNL1        0.1618
     21 O          -7.1807   -0.3653   -0.4168 O.3     1  UNL1       -0.4914
     22 C          -7.2505    0.9460   -0.9031 C.3     1  UNL1        0.0790
     23 C          -4.7730   -0.1653   -0.3266 C.ar    1  UNL1       -0.0092
     24 C           3.3068    0.0021   -0.9833 C.ar    1  UNL1       -0.0509
     25 C           4.2219   -0.4058   -1.9653 C.ar    1  UNL1       -0.0160
     26 C           5.5540   -0.5431   -1.6889 C.ar    1  UNL1        0.1585
     27 O           6.4605   -0.9463   -2.6588 O.3     1  UNL1       -0.5033
     28 H           8.8783   -0.4285    1.1867 H       1  UNL1        0.0660
     29 H           7.7760    0.9578    1.4370 H       1  UNL1        0.0660
     30 H           7.2836   -0.6660    1.9945 H       1  UNL1        0.0660
     31 H           5.4077    0.3508    1.5440 H       1  UNL1        0.0661
     32 H           3.3751    0.5293    2.4309 H       1  UNL1        0.0625
     33 H           1.4573    1.2399    2.7239 H       1  UNL1        0.0653
     34 H           0.0931    0.4234   -1.0707 H       1  UNL1        0.0426
     35 H           0.9798    1.9758   -1.2211 H       1  UNL1        0.0426
     36 H          -3.2855    1.8295   -0.9432 H       1  UNL1        0.0653
     37 H          -1.3462   -0.3800   -0.0152 H       1  UNL1        0.0625
     38 H          -2.4715   -2.3508    0.6319 H       1  UNL1        0.0625
     39 H          -4.5423   -3.7037    0.9880 H       1  UNL1        0.0655
     40 H          -7.6359   -2.6624    1.3031 H       1  UNL1        0.2923
     41 H          -8.3219    1.2528   -1.0346 H       1  UNL1        0.0660
     42 H          -6.7978    1.6327   -0.1426 H       1  UNL1        0.0660
     43 H          -6.7571    1.0583   -1.9002 H       1  UNL1        0.0660
     44 H          -4.8816    0.8521   -0.7079 H       1  UNL1        0.0661
     45 H           2.2784    0.0571   -1.2421 H       1  UNL1        0.0625
     46 H           3.8409   -0.6099   -2.9559 H       1  UNL1        0.0655
     47 H           7.3255   -1.3911   -2.3359 H       1  UNL1        0.2923
@<TRIPOS>BOND
     1     1     2    1
     2     2     3    1
     3     3     4   ar
     4     4     5   ar
     5     5     6    1
     6     6     7    2
     7     7     8    1
     8     8     9    2
     9     8    10    1
    10    10    11    1
    11    11    12    2
    12    11    13    1
    13    13    14    2
    14    14    15    1
    15    15    16   ar
    16    16    17   ar
    17    17    18   ar
    18    18    19    1
    19    18    20   ar
    20    20    21    1
    21    21    22    1
    22    20    23   ar
    23     5    24   ar
    24    24    25   ar
    25    25    26   ar
    26    26    27    1
    27    26     3   ar
    28    23    15   ar
    29     1    28    1
    30     1    29    1
    31     1    30    1
    32     4    31    1
    33     6    32    1
    34     7    33    1
    35    10    34    1
    36    10    35    1
    37    13    36    1
    38    14    37    1
    39    16    38    1
    40    17    39    1
    41    19    40    1
    42    22    41    1
    43    22    42    1
    44    22    43    1
    45    23    44    1
    46    24    45    1
    47    25    46    1
    48    27    47    1
