
     RDKit          3D

 47 48  0  0  0  0  0  0  0  0999 V2000
    7.8093   -0.1306    1.1956 C   0  0  0  0  0  0  0  0  0  0  0  0
    7.3045   -0.3947   -0.0923 O   0  0  0  0  0  0  0  0  0  0  0  0
    5.9359   -0.2589   -0.4003 C   0  0  0  0  0  0  0  0  0  0  0  0
    5.0522    0.1379    0.5558 C   0  0  0  0  0  0  0  0  0  0  0  0
    3.6616    0.2903    0.2971 C   0  0  0  0  0  0  0  0  0  0  0  0
    2.8209    0.6680    1.3985 C   0  0  0  0  0  0  0  0  0  0  0  0
    1.6489    1.0872    1.5367 C   0  0  0  0  0  0  0  0  0  0  0  0
    0.5061    1.4344    0.8094 C   0  0  0  0  0  0  0  0  0  0  0  0
   -0.5489    1.8462    1.5296 O   0  0  0  0  0  0  0  0  0  0  0  0
    0.1920    1.4548   -0.6090 C   0  0  0  0  0  0  0  0  0  0  0  0
   -1.1299    2.0815   -0.8990 C   0  0  0  0  0  0  0  0  0  0  0  0
   -1.1523    3.2550   -1.3082 O   0  0  0  0  0  0  0  0  0  0  0  0
   -2.3467    1.3372   -0.7066 C   0  0  0  0  0  0  0  0  0  0  0  0
   -2.3085    0.1058   -0.2596 C   0  0  0  0  0  0  0  0  0  0  0  0
   -3.5305   -0.6533   -0.0632 C   0  0  0  0  0  0  0  0  0  0  0  0
   -3.4685   -1.9698    0.4242 C   0  0  0  0  0  0  0  0  0  0  0  0
   -4.6092   -2.6926    0.6122 C   0  0  0  0  0  0  0  0  0  0  0  0
   -5.8713   -2.2089    0.3490 C   0  0  0  0  0  0  0  0  0  0  0  0
   -7.0151   -2.9570    0.5461 O   0  0  0  0  0  0  0  0  0  0  0  0
   -5.9456   -0.9221   -0.1284 C   0  0  0  0  0  0  0  0  0  0  0  0
   -7.1807   -0.3653   -0.4168 O   0  0  0  0  0  0  0  0  0  0  0  0
   -7.2505    0.9460   -0.9031 C   0  0  0  0  0  0  0  0  0  0  0  0
   -4.7730   -0.1653   -0.3266 C   0  0  0  0  0  0  0  0  0  0  0  0
    3.3068    0.0021   -0.9833 C   0  0  0  0  0  0  0  0  0  0  0  0
    4.2219   -0.4058   -1.9653 C   0  0  0  0  0  0  0  0  0  0  0  0
    5.5540   -0.5431   -1.6889 C   0  0  0  0  0  0  0  0  0  0  0  0
    6.4605   -0.9463   -2.6588 O   0  0  0  0  0  0  0  0  0  0  0  0
    8.8783   -0.4285    1.1867 H   0  0  0  0  0  0  0  0  0  0  0  0
    7.7760    0.9578    1.4370 H   0  0  0  0  0  0  0  0  0  0  0  0
    7.2836   -0.6660    1.9945 H   0  0  0  0  0  0  0  0  0  0  0  0
    5.4077    0.3508    1.5440 H   0  0  0  0  0  0  0  0  0  0  0  0
    3.3751    0.5293    2.4309 H   0  0  0  0  0  0  0  0  0  0  0  0
    1.4573    1.2399    2.7239 H   0  0  0  0  0  0  0  0  0  0  0  0
    0.0931    0.4234   -1.0707 H   0  0  0  0  0  0  0  0  0  0  0  0
    0.9798    1.9758   -1.2211 H   0  0  0  0  0  0  0  0  0  0  0  0
   -3.2855    1.8295   -0.9432 H   0  0  0  0  0  0  0  0  0  0  0  0
   -1.3462   -0.3800   -0.0152 H   0  0  0  0  0  0  0  0  0  0  0  0
   -2.4715   -2.3508    0.6319 H   0  0  0  0  0  0  0  0  0  0  0  0
   -4.5423   -3.7037    0.9880 H   0  0  0  0  0  0  0  0  0  0  0  0
   -7.6359   -2.6624    1.3031 H   0  0  0  0  0  0  0  0  0  0  0  0
   -8.3219    1.2528   -1.0346 H   0  0  0  0  0  0  0  0  0  0  0  0
   -6.7978    1.6327   -0.1426 H   0  0  0  0  0  0  0  0  0  0  0  0
   -6.7571    1.0583   -1.9002 H   0  0  0  0  0  0  0  0  0  0  0  0
   -4.8816    0.8521   -0.7079 H   0  0  0  0  0  0  0  0  0  0  0  0
    2.2784    0.0571   -1.2421 H   0  0  0  0  0  0  0  0  0  0  0  0
    3.8409   -0.6099   -2.9559 H   0  0  0  0  0  0  0  0  0  0  0  0
    7.3255   -1.3911   -2.3359 H   0  0  0  0  0  0  0  0  0  0  0  0
  1  2  1  0
  2  3  1  0
  3  4  2  0
  4  5  1  0
  5  6  1  0
  6  7  2  3
  7  8  1  0
  8  9  2  0
  8 10  1  0
 10 11  1  0
 11 12  2  0
 11 13  1  0
 13 14  2  3
 14 15  1  0
 15 16  2  0
 16 17  1  0
 17 18  2  0
 18 19  1  0
 18 20  1  0
 20 21  1  0
 21 22  1  0
 20 23  2  0
  5 24  2  0
 24 25  1  0
 25 26  2  0
 26 27  1  0
 26  3  1  0
 23 15  1  0
  1 28  1  0
  1 29  1  0
  1 30  1  0
  4 31  1  0
  6 32  1  0
  7 33  1  0
 10 34  1  0
 10 35  1  0
 13 36  1  0
 14 37  1  0
 16 38  1  0
 17 39  1  0
 19 40  1  0
 22 41  1  0
 22 42  1  0
 22 43  1  0
 23 44  1  0
 24 45  1  0
 25 46  1  0
 27 47  1  0
M  END
$$$$
