@<TRIPOS>MOLECULE
*****
 56 60 0 0 0
SMALL
GASTEIGER

@<TRIPOS>ATOM
      1 C          -6.2835    0.1795    1.0049 C.3     1  UNL1       -0.0134
      2 S          -5.5085   -1.3631    1.6366 S.3     1  UNL1       -0.1268
      3 C          -4.6644   -2.0599    0.1963 C.ar    1  UNL1        0.0288
      4 C          -5.3469   -2.9357   -0.6163 C.ar    1  UNL1       -0.0465
      5 C          -4.6750   -3.4361   -1.7288 C.ar    1  UNL1       -0.0606
      6 C          -3.3765   -3.0738   -2.0143 C.ar    1  UNL1       -0.0599
      7 C          -2.6998   -2.1941   -1.1927 C.ar    1  UNL1       -0.0394
      8 C          -3.3657   -1.6859   -0.0705 C.ar    1  UNL1        0.0460
      9 N          -2.7183   -0.7959    0.8055 N.pl3   1  UNL1       -0.2967
     10 C          -1.4064   -0.3135    0.6159 C.ar    1  UNL1        0.1544
     11 N          -1.1777    0.9577    0.2951 N.ar    1  UNL1       -0.1970
     12 C           0.0859    1.4342    0.0883 C.ar    1  UNL1        0.2203
     13 N           0.2826    2.7990   -0.2492 N.pl3   1  UNL1       -0.2972
     14 C           0.1809    3.2874   -1.6086 C.3     1  UNL1        0.0274
     15 C          -0.1082    4.7887   -1.5775 C.3     1  UNL1        0.0118
     16 N          -1.0867    4.9957   -0.5375 N.3     1  UNL1       -0.3130
     17 C          -0.4057    4.9041    0.7415 C.3     1  UNL1        0.0118
     18 C           0.5969    3.7927    0.7791 C.3     1  UNL1        0.0274
     19 N           1.1371    0.6062    0.2090 N.ar    1  UNL1       -0.2092
     20 C           0.9578   -0.6985    0.5341 C.ar    1  UNL1        0.1357
     21 C           2.0676   -1.5457    0.6460 C.ar    1  UNL1        0.1484
     22 N           3.3647   -1.0140    0.4328 N.pl3   1  UNL1       -0.3270
     23 C           4.4932   -1.9091    0.5425 C.3     1  UNL1        0.0133
     24 C           5.8064   -1.2078    0.3858 C.3     1  UNL1       -0.0255
     25 C           7.0076   -2.1539    0.4966 C.3     1  UNL1       -0.0485
     26 C           6.7077   -1.3633   -0.7522 C.3     1  UNL1       -0.0485
     27 N           1.7999   -2.8127    0.9609 N.ar    1  UNL1       -0.2187
     28 C           0.5593   -3.2827    1.1650 C.ar    1  UNL1        0.1190
     29 N          -0.4908   -2.4677    1.0556 N.ar    1  UNL1       -0.2303
     30 C          -0.3255   -1.1589    0.7392 C.ar    1  UNL1        0.1343
     31 H          -5.6035    0.7278    0.3256 H       1  UNL1        0.0344
     32 H          -6.5954    0.8548    1.7961 H       1  UNL1        0.0344
     33 H          -7.1880   -0.1267    0.4085 H       1  UNL1        0.0344
     34 H          -6.3651   -3.2402   -0.4174 H       1  UNL1        0.0629
     35 H          -5.1770   -4.1207   -2.3803 H       1  UNL1        0.0618
     36 H          -2.8535   -3.4572   -2.8774 H       1  UNL1        0.0618
     37 H          -1.6838   -1.8918   -1.3986 H       1  UNL1        0.0636
     38 H          -3.2139   -0.4605    1.6549 H       1  UNL1        0.1537
     39 H           1.1605    3.1784   -2.1398 H       1  UNL1        0.0477
     40 H          -0.5897    2.7386   -2.1540 H       1  UNL1        0.0477
     41 H           0.8256    5.3535   -1.3463 H       1  UNL1        0.0439
     42 H          -0.5441    5.1319   -2.5226 H       1  UNL1        0.0439
     43 H          -1.7479    4.1915   -0.5625 H       1  UNL1        0.1220
     44 H           0.1300    5.8807    0.8695 H       1  UNL1        0.0439
     45 H          -1.1854    4.8192    1.5475 H       1  UNL1        0.0439
     46 H           0.5934    3.2674    1.7486 H       1  UNL1        0.0477
     47 H           1.6179    4.1955    0.6026 H       1  UNL1        0.0477
     48 H           3.4545   -0.0017    0.2029 H       1  UNL1        0.1475
     49 H           4.3913   -2.5466    1.4132 H       1  UNL1        0.0464
     50 H           4.4052   -2.5939   -0.3516 H       1  UNL1        0.0464
     51 H           5.8819   -0.3177    1.0783 H       1  UNL1        0.0316
     52 H           6.8458   -3.2460    0.4120 H       1  UNL1        0.0269
     53 H           7.8219   -1.8793    1.1678 H       1  UNL1        0.0269
     54 H           7.4475   -0.5381   -0.9131 H       1  UNL1        0.0269
     55 H           6.3346   -1.8452   -1.6585 H       1  UNL1        0.0269
     56 H           0.4294   -4.3468    1.4218 H       1  UNL1        0.1048
@<TRIPOS>BOND
     1     1     2    1
     2     2     3    1
     3     3     4   ar
     4     4     5   ar
     5     5     6   ar
     6     6     7   ar
     7     7     8   ar
     8     8     9    1
     9     9    10    1
    10    10    11   ar
    11    11    12   ar
    12    12    13    1
    13    13    14    1
    14    14    15    1
    15    15    16    1
    16    16    17    1
    17    17    18    1
    18    12    19   ar
    19    19    20   ar
    20    20    21   ar
    21    21    22    1
    22    22    23    1
    23    23    24    1
    24    24    25    1
    25    25    26    1
    26    21    27   ar
    27    27    28   ar
    28    28    29   ar
    29    29    30   ar
    30     8     3   ar
    31    30    10   ar
    32    18    13    1
    33    30    20   ar
    34    26    24    1
    35     1    31    1
    36     1    32    1
    37     1    33    1
    38     4    34    1
    39     5    35    1
    40     6    36    1
    41     7    37    1
    42     9    38    1
    43    14    39    1
    44    14    40    1
    45    15    41    1
    46    15    42    1
    47    16    43    1
    48    17    44    1
    49    17    45    1
    50    18    46    1
    51    18    47    1
    52    22    48    1
    53    23    49    1
    54    23    50    1
    55    24    51    1
    56    25    52    1
    57    25    53    1
    58    26    54    1
    59    26    55    1
    60    28    56    1
