@<TRIPOS>MOLECULE
*****
 70 73 0 0 0
SMALL
GASTEIGER

@<TRIPOS>ATOM
      1 C           5.1691    0.7481    1.7158 C.3     1  UNL1        0.0368
      2 O           4.0059    1.2509    1.1509 O.3     1  UNL1       -0.3789
      3 C           3.8571    0.9392   -0.1673 C.3     1  UNL1        0.0721
      4 C           3.7404    2.1759   -1.0567 C.3     1  UNL1        0.0331
      5 C           2.2793    2.2832   -1.4214 C.2     1  UNL1        0.1426
      6 O           1.9012    3.0035   -2.3072 O.2     1  UNL1       -0.2967
      7 C           1.6149    1.3719   -0.4903 C.3     1  UNL1        0.0404
      8 C           1.5756    1.9820    0.8605 C.3     1  UNL1       -0.0519
      9 C           2.6074    0.1993   -0.5385 C.3     1  UNL1        0.0353
     10 C           2.2023   -0.9257    0.3067 C.3     1  UNL1        0.1094
     11 O           2.6166   -2.1232   -0.3789 O.3     1  UNL1       -0.4611
     12 C           3.5675   -2.9845    0.0876 C.2     1  UNL1        0.3042
     13 C           3.9109   -4.1873   -0.7120 C.3     1  UNL1        0.0332
     14 O           4.1367   -2.7635    1.1666 O.2     1  UNL1       -0.2512
     15 C           0.7651   -1.0970    0.6233 C.3     1  UNL1       -0.0114
     16 C          -0.1831   -0.0611    0.1633 C.3     1  UNL1       -0.0257
     17 C          -1.5970   -0.5725   -0.0342 C.3     1  UNL1       -0.0251
     18 C          -1.7522   -1.5918   -1.0958 C.3     1  UNL1       -0.0590
     19 C          -2.0281   -1.1785    1.2845 C.3     1  UNL1       -0.0447
     20 C          -3.3279   -0.7024    1.7971 C.3     1  UNL1       -0.0258
     21 C          -4.4112   -0.5130    0.8116 C.3     1  UNL1        0.0606
     22 O          -4.9317   -1.7308    0.3143 O.3     1  UNL1       -0.3912
     23 C          -3.9242    0.3808   -0.2937 C.3     1  UNL1       -0.0056
     24 C          -4.6138    1.7411   -0.0900 C.3     1  UNL1       -0.0572
     25 C          -4.4492   -0.1662   -1.5837 C.3     1  UNL1       -0.0572
     26 C          -2.4621    0.6447   -0.2619 C.3     1  UNL1       -0.0278
     27 C          -2.0691    1.4435   -1.4579 C.3     1  UNL1       -0.0486
     28 C          -0.6361    1.9307   -1.2305 C.3     1  UNL1       -0.0462
     29 C           0.3107    0.8009   -0.9736 C.3     1  UNL1       -0.0161
     30 C           0.5590    0.0965   -2.2565 C.3     1  UNL1       -0.0584
     31 H           6.0413    1.1846    1.1487 H       1  UNL1        0.0524
     32 H           5.2924   -0.3370    1.6423 H       1  UNL1        0.0524
     33 H           5.3012    1.1005    2.7615 H       1  UNL1        0.0524
     34 H           4.7311    0.3153   -0.4856 H       1  UNL1        0.0604
     35 H           4.1014    3.0805   -0.5693 H       1  UNL1        0.0367
     36 H           4.3061    1.9436   -1.9822 H       1  UNL1        0.0367
     37 H           0.6036    2.4875    1.0949 H       1  UNL1        0.0239
     38 H           2.3165    2.8342    0.9210 H       1  UNL1        0.0239
     39 H           1.7261    1.2389    1.6440 H       1  UNL1        0.0239
     40 H           2.7598   -0.0799   -1.6277 H       1  UNL1        0.0371
     41 H           2.8515   -0.9177    1.2335 H       1  UNL1        0.0738
     42 H           4.4882   -3.8918   -1.6098 H       1  UNL1        0.0342
     43 H           3.0085   -4.7355   -1.0440 H       1  UNL1        0.0342
     44 H           4.5764   -4.8798   -0.1409 H       1  UNL1        0.0342
     45 H           0.3793   -2.1088    0.2946 H       1  UNL1        0.0304
     46 H           0.7056   -1.2005    1.7510 H       1  UNL1        0.0304
     47 H          -0.2939    0.6683    1.0281 H       1  UNL1        0.0313
     48 H          -0.8410   -2.1743   -1.3358 H       1  UNL1        0.0235
     49 H          -2.1413   -1.2156   -2.0629 H       1  UNL1        0.0235
     50 H          -2.5001   -2.3822   -0.7845 H       1  UNL1        0.0235
     51 H          -1.9913   -2.3031    1.1973 H       1  UNL1        0.0271
     52 H          -1.2848   -0.9641    2.1104 H       1  UNL1        0.0271
     53 H          -3.6868   -1.4572    2.5575 H       1  UNL1        0.0290
     54 H          -3.2023    0.2366    2.3742 H       1  UNL1        0.0290
     55 H          -5.2871   -0.0609    1.3674 H       1  UNL1        0.0599
     56 H          -5.8983   -1.6455    0.1212 H       1  UNL1        0.2098
     57 H          -5.6399    1.5898    0.3188 H       1  UNL1        0.0236
     58 H          -4.6978    2.2988   -1.0238 H       1  UNL1        0.0236
     59 H          -4.0575    2.3122    0.7056 H       1  UNL1        0.0236
     60 H          -4.4878   -1.2956   -1.5730 H       1  UNL1        0.0236
     61 H          -5.5423    0.1226   -1.6288 H       1  UNL1        0.0236
     62 H          -3.9991    0.2417   -2.4847 H       1  UNL1        0.0236
     63 H          -2.2751    1.3084    0.6365 H       1  UNL1        0.0312
     64 H          -2.0765    0.9143   -2.4072 H       1  UNL1        0.0268
     65 H          -2.6915    2.3626   -1.4654 H       1  UNL1        0.0268
     66 H          -0.3570    2.4235   -2.2081 H       1  UNL1        0.0271
     67 H          -0.6614    2.7171   -0.4807 H       1  UNL1        0.0271
     68 H          -0.3111    0.0530   -2.9438 H       1  UNL1        0.0235
     69 H           1.3154    0.7202   -2.8235 H       1  UNL1        0.0235
     70 H           0.9850   -0.8993   -2.2072 H       1  UNL1        0.0235
@<TRIPOS>BOND
     1     1     2    1
     2     2     3    1
     3     3     4    1
     4     4     5    1
     5     5     6    2
     6     5     7    1
     7     7     8    1
     8     7     9    1
     9     9    10    1
    10    10    11    1
    11    11    12    1
    12    12    13    1
    13    12    14    2
    14    10    15    1
    15    15    16    1
    16    16    17    1
    17    17    18    1
    18    17    19    1
    19    19    20    1
    20    20    21    1
    21    21    22    1
    22    21    23    1
    23    23    24    1
    24    23    25    1
    25    23    26    1
    26    26    27    1
    27    27    28    1
    28    28    29    1
    29    29    30    1
    30     9     3    1
    31    29    16    1
    32    29     7    1
    33    26    17    1
    34     1    31    1
    35     1    32    1
    36     1    33    1
    37     3    34    1
    38     4    35    1
    39     4    36    1
    40     8    37    1
    41     8    38    1
    42     8    39    1
    43     9    40    1
    44    10    41    1
    45    13    42    1
    46    13    43    1
    47    13    44    1
    48    15    45    1
    49    15    46    1
    50    16    47    1
    51    18    48    1
    52    18    49    1
    53    18    50    1
    54    19    51    1
    55    19    52    1
    56    20    53    1
    57    20    54    1
    58    21    55    1
    59    22    56    1
    60    24    57    1
    61    24    58    1
    62    24    59    1
    63    25    60    1
    64    25    61    1
    65    25    62    1
    66    26    63    1
    67    27    64    1
    68    27    65    1
    69    28    66    1
    70    28    67    1
    71    30    68    1
    72    30    69    1
    73    30    70    1
