
     RDKit          3D

 47 50  0  0  0  0  0  0  0  0999 V2000
    5.8062   -1.8364    0.7414 C   0  0  0  0  0  0  0  0  0  0  0  0
    4.9869   -0.7785    1.3743 C   0  0  0  0  0  0  0  0  0  0  0  0
    5.0540   -0.5569    2.6169 O   0  0  0  0  0  0  0  0  0  0  0  0
    4.1227   -0.0187    0.5470 N   0  0  0  0  0  0  0  0  0  0  0  0
    3.2827    1.0344    1.0652 C   0  0  0  0  0  0  0  0  0  0  0  0
    2.4988    1.6402   -0.0223 C   0  0  0  0  0  0  0  0  0  0  0  0
    2.9109    2.7167   -0.7767 C   0  0  0  0  0  0  0  0  0  0  0  0
    1.9275    2.9757   -1.6670 N   0  0  0  0  0  0  0  0  0  0  0  0
    0.9119    2.1037   -1.5023 C   0  0  0  0  0  0  0  0  0  0  0  0
   -0.2953    1.9593   -2.1562 C   0  0  0  0  0  0  0  0  0  0  0  0
   -1.1326    0.9462   -1.7415 C   0  0  0  0  0  0  0  0  0  0  0  0
   -0.7209    0.1375   -0.7025 C   0  0  0  0  0  0  0  0  0  0  0  0
   -1.5800   -0.9437   -0.2402 C   0  0  0  0  0  0  0  0  0  0  0  0
   -2.8358   -0.8410    0.3051 C   0  0  0  0  0  0  0  0  0  0  0  0
   -3.5670    0.4315    0.5270 C   0  0  0  0  0  0  0  0  0  0  0  0
   -4.7552    0.6334   -0.1216 C   0  0  0  0  0  0  0  0  0  0  0  0
   -5.4491    1.7904    0.0612 C   0  0  0  0  0  0  0  0  0  0  0  0
   -4.9666    2.7842    0.9060 C   0  0  0  0  0  0  0  0  0  0  0  0
   -5.7083    3.8955    1.0334 F   0  0  0  0  0  0  0  0  0  0  0  0
   -3.7694    2.5603    1.5485 C   0  0  0  0  0  0  0  0  0  0  0  0
   -3.0762    1.3938    1.3600 C   0  0  0  0  0  0  0  0  0  0  0  0
   -3.2353   -2.0898    0.5797 N   0  0  0  0  0  0  0  0  0  0  0  0
   -2.2489   -2.9284    0.2111 C   0  0  0  0  0  0  0  0  0  0  0  0
   -1.2088   -2.2475   -0.3010 N   0  0  0  0  0  0  0  0  0  0  0  0
    0.0355   -2.7944   -0.8061 C   0  0  0  0  0  0  0  0  0  0  0  0
   -0.0982   -3.0934   -2.2939 C   0  0  0  0  0  0  0  0  0  0  0  0
   -1.1192   -4.0134   -2.4708 F   0  0  0  0  0  0  0  0  0  0  0  0
    1.0525   -3.6781   -2.7606 F   0  0  0  0  0  0  0  0  0  0  0  0
    0.4719    0.3390   -0.1122 N   0  0  0  0  0  0  0  0  0  0  0  0
    1.2848    1.2987   -0.4923 N   0  0  0  0  0  0  0  0  0  0  0  0
    5.2130   -2.3156   -0.0687 H   0  0  0  0  0  0  0  0  0  0  0  0
    6.6915   -1.3708    0.2626 H   0  0  0  0  0  0  0  0  0  0  0  0
    6.0813   -2.6212    1.4676 H   0  0  0  0  0  0  0  0  0  0  0  0
    4.0865   -0.2216   -0.4729 H   0  0  0  0  0  0  0  0  0  0  0  0
    2.6421    0.6852    1.9006 H   0  0  0  0  0  0  0  0  0  0  0  0
    3.9434    1.8241    1.5148 H   0  0  0  0  0  0  0  0  0  0  0  0
    3.8334    3.2676   -0.6968 H   0  0  0  0  0  0  0  0  0  0  0  0
   -0.6048    2.6011   -2.9693 H   0  0  0  0  0  0  0  0  0  0  0  0
   -2.1016    0.7741   -2.2129 H   0  0  0  0  0  0  0  0  0  0  0  0
   -5.1320   -0.1399   -0.7795 H   0  0  0  0  0  0  0  0  0  0  0  0
   -6.3924    1.9026   -0.4798 H   0  0  0  0  0  0  0  0  0  0  0  0
   -3.4109    3.3592    2.2088 H   0  0  0  0  0  0  0  0  0  0  0  0
   -2.1318    1.2655    1.8934 H   0  0  0  0  0  0  0  0  0  0  0  0
   -2.2490   -4.0215    0.2975 H   0  0  0  0  0  0  0  0  0  0  0  0
    0.4175   -3.6421   -0.2427 H   0  0  0  0  0  0  0  0  0  0  0  0
    0.8122   -1.9826   -0.7403 H   0  0  0  0  0  0  0  0  0  0  0  0
   -0.2779   -2.1844   -2.8813 H   0  0  0  0  0  0  0  0  0  0  0  0
  1  2  1  0
  2  3  2  0
  2  4  1  0
  4  5  1  0
  5  6  1  0
  6  7  2  0
  7  8  1  0
  8  9  2  0
  9 10  1  0
 10 11  2  0
 11 12  1  0
 12 13  1  0
 13 14  2  0
 14 15  1  0
 15 16  2  0
 16 17  1  0
 17 18  2  0
 18 19  1  0
 18 20  1  0
 20 21  2  0
 14 22  1  0
 22 23  2  0
 23 24  1  0
 24 25  1  0
 25 26  1  0
 26 27  1  0
 26 28  1  0
 12 29  2  0
 29 30  1  0
 30  6  1  0
 30  9  1  0
 24 13  1  0
 21 15  1  0
  1 31  1  0
  1 32  1  0
  1 33  1  0
  4 34  1  0
  5 35  1  0
  5 36  1  0
  7 37  1  0
 10 38  1  0
 11 39  1  0
 16 40  1  0
 17 41  1  0
 20 42  1  0
 21 43  1  0
 23 44  1  0
 25 45  1  0
 25 46  1  0
 26 47  1  0
M  END
$$$$
