@<TRIPOS>MOLECULE
*****
 47 50 0 0 0
SMALL
GASTEIGER

@<TRIPOS>ATOM
      1 C           5.8062   -1.8364    0.7414 C.3     1  UNL1        0.0122
      2 C           4.9869   -0.7785    1.3743 C.2     1  UNL1        0.2102
      3 O           5.0540   -0.5569    2.6169 O.2     1  UNL1       -0.2761
      4 N           4.1227   -0.0187    0.5470 N.am    1  UNL1       -0.3099
      5 C           3.2827    1.0344    1.0652 C.3     1  UNL1        0.0555
      6 C           2.4988    1.6402   -0.0223 C.ar    1  UNL1        0.0802
      7 C           2.9109    2.7167   -0.7767 C.ar    1  UNL1        0.0529
      8 N           1.9275    2.9757   -1.6670 N.ar    1  UNL1       -0.2343
      9 C           0.9119    2.1037   -1.5023 C.ar    1  UNL1        0.1544
     10 C          -0.2953    1.9593   -2.1562 C.ar    1  UNL1       -0.0153
     11 C          -1.1326    0.9462   -1.7415 C.ar    1  UNL1       -0.0290
     12 C          -0.7209    0.1375   -0.7025 C.ar    1  UNL1        0.1103
     13 C          -1.5800   -0.9437   -0.2402 C.ar    1  UNL1        0.0968
     14 C          -2.8358   -0.8410    0.3051 C.ar    1  UNL1        0.0982
     15 C          -3.5670    0.4315    0.5270 C.ar    1  UNL1        0.0027
     16 C          -4.7552    0.6334   -0.1216 C.ar    1  UNL1       -0.0498
     17 C          -5.4491    1.7904    0.0612 C.ar    1  UNL1       -0.0258
     18 C          -4.9666    2.7842    0.9060 C.ar    1  UNL1        0.1234
     19 F          -5.7083    3.8955    1.0334 F       1  UNL1       -0.2055
     20 C          -3.7694    2.5603    1.5485 C.ar    1  UNL1       -0.0258
     21 C          -3.0762    1.3938    1.3600 C.ar    1  UNL1       -0.0498
     22 N          -3.2353   -2.0898    0.5797 N.ar    1  UNL1       -0.2351
     23 C          -2.2489   -2.9284    0.2111 C.ar    1  UNL1        0.0973
     24 N          -1.2088   -2.2475   -0.3010 N.ar    1  UNL1       -0.3229
     25 C           0.0355   -2.7944   -0.8061 C.3     1  UNL1        0.0852
     26 C          -0.0982   -3.0934   -2.2939 C.3     1  UNL1        0.2569
     27 F          -1.1192   -4.0134   -2.4708 F       1  UNL1       -0.2073
     28 F           1.0525   -3.6781   -2.7606 F       1  UNL1       -0.2073
     29 N           0.4719    0.3390   -0.1122 N.ar    1  UNL1       -0.1632
     30 N           1.2848    1.2987   -0.4923 N.ar    1  UNL1       -0.2151
     31 H           5.2130   -2.3156   -0.0687 H       1  UNL1        0.0322
     32 H           6.6915   -1.3708    0.2626 H       1  UNL1        0.0322
     33 H           6.0813   -2.6212    1.4676 H       1  UNL1        0.0322
     34 H           4.0865   -0.2216   -0.4729 H       1  UNL1        0.1491
     35 H           2.6421    0.6852    1.9006 H       1  UNL1        0.0527
     36 H           3.9434    1.8241    1.5148 H       1  UNL1        0.0527
     37 H           3.8334    3.2676   -0.6968 H       1  UNL1        0.0849
     38 H          -0.6048    2.6011   -2.9693 H       1  UNL1        0.0655
     39 H          -2.1016    0.7741   -2.2129 H       1  UNL1        0.0641
     40 H          -5.1320   -0.1399   -0.7795 H       1  UNL1        0.0625
     41 H          -6.3924    1.9026   -0.4798 H       1  UNL1        0.0646
     42 H          -3.4109    3.3592    2.2088 H       1  UNL1        0.0646
     43 H          -2.1318    1.2655    1.8934 H       1  UNL1        0.0625
     44 H          -2.2490   -4.0215    0.2975 H       1  UNL1        0.1029
     45 H           0.4175   -3.6421   -0.2427 H       1  UNL1        0.0548
     46 H           0.8122   -1.9826   -0.7403 H       1  UNL1        0.0548
     47 H          -0.2779   -2.1844   -2.8813 H       1  UNL1        0.1037
@<TRIPOS>BOND
     1     1     2    1
     2     2     3    2
     3     2     4   am
     4     4     5    1
     5     5     6    1
     6     6     7   ar
     7     7     8   ar
     8     8     9   ar
     9     9    10   ar
    10    10    11   ar
    11    11    12   ar
    12    12    13    1
    13    13    14   ar
    14    14    15    1
    15    15    16   ar
    16    16    17   ar
    17    17    18   ar
    18    18    19    1
    19    18    20   ar
    20    20    21   ar
    21    14    22   ar
    22    22    23   ar
    23    23    24   ar
    24    24    25    1
    25    25    26    1
    26    26    27    1
    27    26    28    1
    28    12    29   ar
    29    29    30   ar
    30    30     6   ar
    31    30     9   ar
    32    24    13   ar
    33    21    15   ar
    34     1    31    1
    35     1    32    1
    36     1    33    1
    37     4    34    1
    38     5    35    1
    39     5    36    1
    40     7    37    1
    41    10    38    1
    42    11    39    1
    43    16    40    1
    44    17    41    1
    45    20    42    1
    46    21    43    1
    47    23    44    1
    48    25    45    1
    49    25    46    1
    50    26    47    1
