@<TRIPOS>MOLECULE
*****
 19 18 0 0 0
SMALL
GASTEIGER

@<TRIPOS>ATOM
      1 N           3.5351    0.6706    0.3520 N.3     1  UNL1       -0.2147
      2 O           2.4157    0.0853    0.8307 O.3     1  UNL1       -0.3024
      3 C           1.3632    0.1730   -0.0931 C.3     1  UNL1        0.0708
      4 C           0.1021   -0.4835    0.4378 C.3     1  UNL1       -0.0019
      5 CA         -0.9571   -0.3287   -0.6353 C.3     1  UNL1        0.1054
      6 N          -1.1352    1.0992   -0.8494 N.3     1  UNL1       -0.3183
      7 C          -2.2606   -0.9153   -0.1880 C.2     1  UNL1        0.3218
      8 O          -3.4195   -0.1642   -0.0226 O.3     1  UNL1       -0.4795
      9 OXT        -2.3899   -2.1289    0.0673 O.2     1  UNL1       -0.2493
     10 H           3.3694    1.3985   -0.3604 H       1  UNL1        0.1500
     11 H           4.2607   -0.0045    0.0653 H       1  UNL1        0.1500
     12 H           1.6833   -0.3620   -1.0001 H       1  UNL1        0.0580
     13 H           1.2006    1.2312   -0.3259 H       1  UNL1        0.0580
     14 H          -0.2195   -0.0350    1.3952 H       1  UNL1        0.0308
     15 H           0.2768   -1.5535    0.5868 H       1  UNL1        0.0308
     16 HA         -0.6349   -0.8724   -1.5256 H       1  UNL1        0.0575
     17 H1         -0.7199    1.3759   -1.7671 H       1  UNL1        0.1190
     18 H2         -2.1408    1.3379   -0.8444 H       1  UNL1        0.1190
     19 H          -4.3294   -0.5237    0.1613 H       1  UNL1        0.2951
@<TRIPOS>BOND
     1     1     2    1
     2     2     3    1
     3     3     4    1
     4     4     5    1
     5     5     6    1
     6     5     7    1
     7     7     8    1
     8     7     9    2
     9     1    10    1
    10     1    11    1
    11     3    12    1
    12     3    13    1
    13     4    14    1
    14     4    15    1
    15     5    16    1
    16     6    17    1
    17     6    18    1
    18     8    19    1
