@<TRIPOS>MOLECULE
*****
 51 54 0 0 0
SMALL
GASTEIGER

@<TRIPOS>ATOM
      1 C           9.6840   -0.4002    0.9046 C.1     1  UNL1       -0.1158
      2 C           9.4147   -0.4572   -0.2359 C.1     1  UNL1       -0.0647
      3 C           9.0519   -0.5211   -1.6930 C.3     1  UNL1        0.1513
      4 O           7.7089   -0.7302   -1.8031 O.3     1  UNL1       -0.4624
      5 C           6.5766   -0.3211   -1.1922 C.ar    1  UNL1        0.2344
      6 C           5.3941   -0.9049   -1.9895 C.ar    1  UNL1        0.0899
      7 N           4.2592   -0.5863   -1.4263 N.ar    1  UNL1       -0.2459
      8 C           3.9539    0.1332   -0.3389 C.ar    1  UNL1        0.1172
      9 C           2.5623    0.5016   -0.1304 C.2     1  UNL1        0.1507
     10 F           2.1804    1.5479    0.6351 F       1  UNL1       -0.2032
     11 C           1.5780   -0.2976   -0.6913 C.2     1  UNL1       -0.0171
     12 C           0.1939    0.2273   -0.4430 C.ar    1  UNL1       -0.0217
     13 C           0.0875    1.5347   -1.0164 C.ar    1  UNL1       -0.0518
     14 C          -1.0230    2.2194   -0.8683 C.ar    1  UNL1       -0.0255
     15 C          -2.1116    1.8125   -0.2097 C.ar    1  UNL1        0.1289
     16 F          -3.1754    2.6634   -0.1024 F       1  UNL1       -0.2051
     17 C          -2.1031    0.4862    0.3952 C.ar    1  UNL1        0.0159
     18 C          -3.2759   -0.0289    0.9530 C.3     1  UNL1        0.0988
     19 C          -2.5759   -0.7499    2.2677 C.3     1  UNL1       -0.0350
     20 N          -4.0222    0.9432    1.8190 N.2     1  UNL1       -0.2519
     21 C          -5.1458    1.4098    1.2648 C.2     1  UNL1        0.1483
     22 N          -5.9686    2.3464    1.9786 N.pl3   1  UNL1       -0.3380
     23 S          -5.5321    0.8771   -0.3777 S.3     1  UNL1       -0.0755
     24 C          -5.2072   -0.8932   -0.4187 C.3     1  UNL1        0.1207
     25 C          -6.4861   -1.7583   -0.3026 C.3     1  UNL1        0.0653
     26 O          -7.1783   -1.5707    0.8735 O.3     1  UNL1       -0.3934
     27 C          -4.0619   -1.1793    0.5042 C.3     1  UNL1        0.0757
     28 C          -4.0211   -1.5381   -1.0274 C.3     1  UNL1        0.2730
     29 F          -4.0831   -2.8785   -1.3477 F       1  UNL1       -0.2036
     30 F          -3.1074   -0.7989   -1.7593 F       1  UNL1       -0.2036
     31 C          -0.8568   -0.2303    0.2110 C.ar    1  UNL1       -0.0463
     32 C           5.0267    0.6791    0.3872 C.ar    1  UNL1        0.0596
     33 N           6.1845    0.3129   -0.2293 N.ar    1  UNL1       -0.2178
     34 H           9.9389   -0.3264    2.0117 H       1  UNL1        0.1229
     35 H           9.6087   -1.4371   -2.0623 H       1  UNL1        0.0837
     36 H           9.3688    0.3579   -2.2724 H       1  UNL1        0.0837
     37 H           5.6752   -1.4477   -2.8206 H       1  UNL1        0.0884
     38 H           1.7710   -1.1456   -1.2110 H       1  UNL1        0.0653
     39 H           1.0191    1.8283   -1.5791 H       1  UNL1        0.0624
     40 H          -1.0582    3.2744   -1.2375 H       1  UNL1        0.0646
     41 H          -3.3612   -0.7150    3.0110 H       1  UNL1        0.0256
     42 H          -1.6793   -0.1239    2.5491 H       1  UNL1        0.0256
     43 H          -2.2870   -1.7327    1.9316 H       1  UNL1        0.0256
     44 H          -6.8756    2.0155    2.3472 H       1  UNL1        0.1442
     45 H          -5.6495    3.3267    2.1130 H       1  UNL1        0.1442
     46 H          -7.1025   -1.3989   -1.1834 H       1  UNL1        0.0573
     47 H          -6.2633   -2.7980   -0.5547 H       1  UNL1        0.0573
     48 H          -6.8736   -0.6895    1.2821 H       1  UNL1        0.2095
     49 H          -4.2879   -2.0915    1.1675 H       1  UNL1        0.0402
     50 H          -0.7577   -1.2510    0.6900 H       1  UNL1        0.0628
     51 H           4.8931    1.2346    1.2271 H       1  UNL1        0.0853
@<TRIPOS>BOND
     1     1     2    3
     2     2     3    1
     3     3     4    1
     4     4     5    1
     5     5     6   ar
     6     6     7   ar
     7     7     8   ar
     8     8     9    1
     9     9    10    1
    10     9    11    2
    11    11    12    1
    12    12    13   ar
    13    13    14   ar
    14    14    15   ar
    15    15    16    1
    16    15    17   ar
    17    17    18    1
    18    18    19    1
    19    18    20    1
    20    20    21    2
    21    21    22    1
    22    21    23    1
    23    23    24    1
    24    24    25    1
    25    25    26    1
    26    24    27    1
    27    27    28    1
    28    28    29    1
    29    28    30    1
    30    17    31   ar
    31     8    32   ar
    32    32    33   ar
    33    33     5   ar
    34    31    12   ar
    35    27    18    1
    36    28    24    1
    37     1    34    1
    38     3    35    1
    39     3    36    1
    40     6    37    1
    41    11    38    1
    42    13    39    1
    43    14    40    1
    44    19    41    1
    45    19    42    1
    46    19    43    1
    47    22    44    1
    48    22    45    1
    49    25    46    1
    50    25    47    1
    51    26    48    1
    52    27    49    1
    53    31    50    1
    54    32    51    1
