
     RDKit          3D

 51 54  0  0  0  0  0  0  0  0999 V2000
    9.6840   -0.4002    0.9046 C   0  0  0  0  0  0  0  0  0  0  0  0
    9.4147   -0.4572   -0.2359 C   0  0  0  0  0  0  0  0  0  0  0  0
    9.0519   -0.5211   -1.6930 C   0  0  0  0  0  0  0  0  0  0  0  0
    7.7089   -0.7302   -1.8031 O   0  0  0  0  0  0  0  0  0  0  0  0
    6.5766   -0.3211   -1.1922 C   0  0  0  0  0  0  0  0  0  0  0  0
    5.3941   -0.9049   -1.9895 C   0  0  0  0  0  0  0  0  0  0  0  0
    4.2592   -0.5863   -1.4263 N   0  0  0  0  0  0  0  0  0  0  0  0
    3.9539    0.1332   -0.3389 C   0  0  0  0  0  0  0  0  0  0  0  0
    2.5623    0.5016   -0.1304 C   0  0  0  0  0  0  0  0  0  0  0  0
    2.1804    1.5479    0.6351 F   0  0  0  0  0  0  0  0  0  0  0  0
    1.5780   -0.2976   -0.6913 C   0  0  0  0  0  0  0  0  0  0  0  0
    0.1939    0.2273   -0.4430 C   0  0  0  0  0  0  0  0  0  0  0  0
    0.0875    1.5347   -1.0164 C   0  0  0  0  0  0  0  0  0  0  0  0
   -1.0230    2.2194   -0.8683 C   0  0  0  0  0  0  0  0  0  0  0  0
   -2.1116    1.8125   -0.2097 C   0  0  0  0  0  0  0  0  0  0  0  0
   -3.1754    2.6634   -0.1024 F   0  0  0  0  0  0  0  0  0  0  0  0
   -2.1031    0.4862    0.3952 C   0  0  0  0  0  0  0  0  0  0  0  0
   -3.2759   -0.0289    0.9530 C   0  0  1  0  0  0  0  0  0  0  0  0
   -2.5759   -0.7499    2.2677 C   0  0  0  0  0  0  0  0  0  0  0  0
   -4.0222    0.9432    1.8190 N   0  0  0  0  0  0  0  0  0  0  0  0
   -5.1458    1.4098    1.2648 C   0  0  0  0  0  0  0  0  0  0  0  0
   -5.9686    2.3464    1.9786 N   0  0  0  0  0  0  0  0  0  0  0  0
   -5.5321    0.8771   -0.3777 S   0  0  0  0  0  0  0  0  0  0  0  0
   -5.2072   -0.8932   -0.4187 C   0  0  2  0  0  0  0  0  0  0  0  0
   -6.4861   -1.7583   -0.3026 C   0  0  0  0  0  0  0  0  0  0  0  0
   -7.1783   -1.5707    0.8735 O   0  0  0  0  0  0  0  0  0  0  0  0
   -4.0619   -1.1793    0.5042 C   0  0  1  0  0  0  0  0  0  0  0  0
   -4.0211   -1.5381   -1.0274 C   0  0  0  0  0  0  0  0  0  0  0  0
   -4.0831   -2.8785   -1.3477 F   0  0  0  0  0  0  0  0  0  0  0  0
   -3.1074   -0.7989   -1.7593 F   0  0  0  0  0  0  0  0  0  0  0  0
   -0.8568   -0.2303    0.2110 C   0  0  0  0  0  0  0  0  0  0  0  0
    5.0267    0.6791    0.3872 C   0  0  0  0  0  0  0  0  0  0  0  0
    6.1845    0.3129   -0.2293 N   0  0  0  0  0  0  0  0  0  0  0  0
    9.9389   -0.3264    2.0117 H   0  0  0  0  0  0  0  0  0  0  0  0
    9.6087   -1.4371   -2.0623 H   0  0  0  0  0  0  0  0  0  0  0  0
    9.3688    0.3579   -2.2724 H   0  0  0  0  0  0  0  0  0  0  0  0
    5.6752   -1.4477   -2.8206 H   0  0  0  0  0  0  0  0  0  0  0  0
    1.7710   -1.1456   -1.2110 H   0  0  0  0  0  0  0  0  0  0  0  0
    1.0191    1.8283   -1.5791 H   0  0  0  0  0  0  0  0  0  0  0  0
   -1.0582    3.2744   -1.2375 H   0  0  0  0  0  0  0  0  0  0  0  0
   -3.3612   -0.7150    3.0110 H   0  0  0  0  0  0  0  0  0  0  0  0
   -1.6793   -0.1239    2.5491 H   0  0  0  0  0  0  0  0  0  0  0  0
   -2.2870   -1.7327    1.9316 H   0  0  0  0  0  0  0  0  0  0  0  0
   -6.8756    2.0155    2.3472 H   0  0  0  0  0  0  0  0  0  0  0  0
   -5.6495    3.3267    2.1130 H   0  0  0  0  0  0  0  0  0  0  0  0
   -7.1025   -1.3989   -1.1834 H   0  0  0  0  0  0  0  0  0  0  0  0
   -6.2633   -2.7980   -0.5547 H   0  0  0  0  0  0  0  0  0  0  0  0
   -6.8736   -0.6895    1.2821 H   0  0  0  0  0  0  0  0  0  0  0  0
   -4.2879   -2.0915    1.1675 H   0  0  0  0  0  0  0  0  0  0  0  0
   -0.7577   -1.2510    0.6900 H   0  0  0  0  0  0  0  0  0  0  0  0
    4.8931    1.2346    1.2271 H   0  0  0  0  0  0  0  0  0  0  0  0
  1  2  3  0
  2  3  1  0
  3  4  1  0
  4  5  1  0
  5  6  2  0
  6  7  1  0
  7  8  2  0
  8  9  1  0
  9 10  1  0
  9 11  2  0
 11 12  1  0
 12 13  2  0
 13 14  1  0
 14 15  2  0
 15 16  1  0
 15 17  1  0
 17 18  1  0
 18 19  1  1
 18 20  1  0
 20 21  2  0
 21 22  1  0
 21 23  1  0
 23 24  1  0
 24 25  1  1
 25 26  1  0
 24 27  1  0
 27 28  1  0
 28 29  1  0
 28 30  1  0
 17 31  2  0
  8 32  1  0
 32 33  2  0
 33  5  1  0
 31 12  1  0
 27 18  1  0
 28 24  1  0
  1 34  1  0
  3 35  1  0
  3 36  1  0
  6 37  1  0
 11 38  1  0
 13 39  1  0
 14 40  1  0
 19 41  1  0
 19 42  1  0
 19 43  1  0
 22 44  1  0
 22 45  1  0
 25 46  1  0
 25 47  1  0
 26 48  1  0
 27 49  1  1
 31 50  1  0
 32 51  1  0
M  END
$$$$
