@<TRIPOS>MOLECULE
*****
 72 77 0 0 0
SMALL
GASTEIGER

@<TRIPOS>ATOM
      1 C           7.9126    3.8693   -0.5636 C.3     1  UNL1        0.0789
      2 O           9.1401    3.1786   -0.4568 O.3     1  UNL1       -0.4933
      3 C           9.1263    1.7941   -0.4244 C.ar    1  UNL1        0.1412
      4 C           7.9523    1.0738   -0.4934 C.ar    1  UNL1       -0.0104
      5 C           7.9487   -0.3127   -0.4598 C.ar    1  UNL1       -0.0143
      6 C           6.6941   -1.0322   -0.5310 C.ar    1  UNL1       -0.0160
      7 C           6.6209   -2.2613   -1.1089 C.ar    1  UNL1       -0.0532
      8 C           5.3841   -2.9062   -1.1465 C.ar    1  UNL1       -0.0473
      9 C           4.2471   -2.3324   -0.6172 C.ar    1  UNL1        0.0581
     10 C           4.3279   -1.0955   -0.0375 C.ar    1  UNL1        0.0442
     11 C           5.5547   -0.4657   -0.0047 C.ar    1  UNL1       -0.0321
     12 N           3.2810   -0.3229    0.5672 N.pl3   1  UNL1       -0.3124
     13 C           1.9723   -0.7438    0.9805 C.ar    1  UNL1        0.0529
     14 C           1.3552    0.1602    1.8200 C.ar    1  UNL1       -0.0385
     15 C           0.0903   -0.0554    2.3340 C.ar    1  UNL1       -0.0562
     16 C          -0.6217   -1.2115    2.0196 C.ar    1  UNL1       -0.0367
     17 C          -1.9793   -1.4225    2.5866 C.3     1  UNL1        0.0495
     18 C          -3.0490   -0.8686    1.7129 C.2     1  UNL1        0.2215
     19 O          -2.6827   -0.3315    0.6508 O.2     1  UNL1       -0.2751
     20 N          -4.3915   -0.9626    2.0959 N.am    1  UNL1       -0.2852
     21 C          -5.4934   -0.4735    1.3472 C.ar    1  UNL1        0.0335
     22 C          -6.7757   -0.6249    1.8871 C.ar    1  UNL1       -0.0387
     23 C          -7.9042   -0.1890    1.2428 C.ar    1  UNL1       -0.0389
     24 C          -7.8020    0.4330   -0.0004 C.ar    1  UNL1        0.0299
     25 N          -8.9841    0.8651   -0.6400 N.pl3   1  UNL1       -0.3255
     26 C          -8.9418    1.6212   -1.8702 C.3     1  UNL1        0.0357
     27 C         -10.1074    2.5465   -2.0667 C.3     1  UNL1        0.0634
     28 O         -11.2743    2.1655   -1.4637 O.3     1  UNL1       -0.3767
     29 C         -11.3001    0.7886   -1.2362 C.3     1  UNL1        0.0634
     30 C         -10.2934    0.5666   -0.0981 C.3     1  UNL1        0.0357
     31 C          -6.5632    0.5906   -0.5440 C.ar    1  UNL1       -0.0389
     32 C          -5.4230    0.1402    0.1270 C.ar    1  UNL1       -0.0387
     33 C           0.0030   -2.1078    1.1802 C.ar    1  UNL1       -0.0350
     34 C           1.2747   -1.8901    0.6642 C.ar    1  UNL1        0.0553
     35 N           1.7383   -2.9372   -0.1804 N.am    1  UNL1       -0.2799
     36 C           3.0485   -3.1522   -0.7441 C.2     1  UNL1        0.2501
     37 O           3.1966   -4.1840   -1.4443 O.2     1  UNL1       -0.2698
     38 C           9.1187   -1.0226   -0.3566 C.ar    1  UNL1       -0.0521
     39 C          10.3059   -0.3258   -0.2864 C.ar    1  UNL1       -0.0369
     40 C          10.2963    1.0509   -0.3204 C.ar    1  UNL1        0.0669
     41 N          11.5065    1.7551   -0.2481 N.pl3   1  UNL1       -0.3551
     42 H           7.5884    3.8461   -1.6282 H       1  UNL1        0.0660
     43 H           7.1256    3.4651    0.0986 H       1  UNL1        0.0660
     44 H           8.1541    4.9367   -0.2881 H       1  UNL1        0.0660
     45 H           6.9883    1.5554   -0.5773 H       1  UNL1        0.0661
     46 H           7.5219   -2.6960   -1.5188 H       1  UNL1        0.0624
     47 H           5.3392   -3.8789   -1.6066 H       1  UNL1        0.0626
     48 H           5.5837    0.5075    0.4596 H       1  UNL1        0.0642
     49 H           3.5037    0.6671    0.7240 H       1  UNL1        0.1522
     50 H           1.9249    1.0553    2.0542 H       1  UNL1        0.0637
     51 H          -0.3575    0.6878    2.9952 H       1  UNL1        0.0621
     52 H          -2.2093   -2.5134    2.6848 H       1  UNL1        0.0407
     53 H          -2.0142   -1.0031    3.5907 H       1  UNL1        0.0407
     54 H          -4.5865   -1.4401    3.0207 H       1  UNL1        0.1548
     55 H          -6.8654   -1.1064    2.8517 H       1  UNL1        0.0637
     56 H          -8.9017   -0.3066    1.6676 H       1  UNL1        0.0637
     57 H          -7.9939    2.2333   -1.9028 H       1  UNL1        0.0486
     58 H          -8.8957    0.9603   -2.7661 H       1  UNL1        0.0486
     59 H          -9.8087    3.5457   -1.6444 H       1  UNL1        0.0575
     60 H         -10.2321    2.7467   -3.1688 H       1  UNL1        0.0575
     61 H         -10.9301    0.1997   -2.0913 H       1  UNL1        0.0575
     62 H         -12.3199    0.4860   -0.9076 H       1  UNL1        0.0575
     63 H         -10.3828   -0.4616    0.3008 H       1  UNL1        0.0486
     64 H         -10.5372    1.3448    0.6548 H       1  UNL1        0.0486
     65 H          -6.4166    1.0560   -1.4916 H       1  UNL1        0.0637
     66 H          -4.4829    0.2872   -0.3419 H       1  UNL1        0.0637
     67 H          -0.5080   -3.0038    0.9161 H       1  UNL1        0.0639
     68 H           1.0026   -3.6346   -0.4069 H       1  UNL1        0.1552
     69 H           9.0666   -2.0926   -0.3347 H       1  UNL1        0.0624
     70 H          11.2590   -0.8491   -0.2041 H       1  UNL1        0.0637
     71 H          11.5679    2.5280    0.4669 H       1  UNL1        0.1424
     72 H          12.3070    1.5105   -0.8867 H       1  UNL1        0.1424
@<TRIPOS>BOND
     1     1     2    1
     2     2     3    1
     3     3     4   ar
     4     4     5   ar
     5     5     6    1
     6     6     7   ar
     7     7     8   ar
     8     8     9   ar
     9     9    10   ar
    10    10    11   ar
    11    10    12    1
    12    12    13    1
    13    13    14   ar
    14    14    15   ar
    15    15    16   ar
    16    16    17    1
    17    17    18    1
    18    18    19    2
    19    18    20   am
    20    20    21    1
    21    21    22   ar
    22    22    23   ar
    23    23    24   ar
    24    24    25    1
    25    25    26    1
    26    26    27    1
    27    27    28    1
    28    28    29    1
    29    29    30    1
    30    24    31   ar
    31    31    32   ar
    32    16    33   ar
    33    33    34   ar
    34    34    35    1
    35    35    36   am
    36    36    37    2
    37     5    38   ar
    38    38    39   ar
    39    39    40   ar
    40    40    41    1
    41    40     3   ar
    42    11     6   ar
    43    34    13   ar
    44    36     9    1
    45    32    21   ar
    46    30    25    1
    47     1    42    1
    48     1    43    1
    49     1    44    1
    50     4    45    1
    51     7    46    1
    52     8    47    1
    53    11    48    1
    54    12    49    1
    55    14    50    1
    56    15    51    1
    57    17    52    1
    58    17    53    1
    59    20    54    1
    60    22    55    1
    61    23    56    1
    62    26    57    1
    63    26    58    1
    64    27    59    1
    65    27    60    1
    66    29    61    1
    67    29    62    1
    68    30    63    1
    69    30    64    1
    70    31    65    1
    71    32    66    1
    72    33    67    1
    73    35    68    1
    74    38    69    1
    75    39    70    1
    76    41    71    1
    77    41    72    1
