
     RDKit          3D

 72 77  0  0  0  0  0  0  0  0999 V2000
    7.9126    3.8693   -0.5636 C   0  0  0  0  0  0  0  0  0  0  0  0
    9.1401    3.1786   -0.4568 O   0  0  0  0  0  0  0  0  0  0  0  0
    9.1263    1.7941   -0.4244 C   0  0  0  0  0  0  0  0  0  0  0  0
    7.9523    1.0738   -0.4934 C   0  0  0  0  0  0  0  0  0  0  0  0
    7.9487   -0.3127   -0.4598 C   0  0  0  0  0  0  0  0  0  0  0  0
    6.6941   -1.0322   -0.5310 C   0  0  0  0  0  0  0  0  0  0  0  0
    6.6209   -2.2613   -1.1089 C   0  0  0  0  0  0  0  0  0  0  0  0
    5.3841   -2.9062   -1.1465 C   0  0  0  0  0  0  0  0  0  0  0  0
    4.2471   -2.3324   -0.6172 C   0  0  0  0  0  0  0  0  0  0  0  0
    4.3279   -1.0955   -0.0375 C   0  0  0  0  0  0  0  0  0  0  0  0
    5.5547   -0.4657   -0.0047 C   0  0  0  0  0  0  0  0  0  0  0  0
    3.2810   -0.3229    0.5672 N   0  0  0  0  0  0  0  0  0  0  0  0
    1.9723   -0.7438    0.9805 C   0  0  0  0  0  0  0  0  0  0  0  0
    1.3552    0.1602    1.8200 C   0  0  0  0  0  0  0  0  0  0  0  0
    0.0903   -0.0554    2.3340 C   0  0  0  0  0  0  0  0  0  0  0  0
   -0.6217   -1.2115    2.0196 C   0  0  0  0  0  0  0  0  0  0  0  0
   -1.9793   -1.4225    2.5866 C   0  0  0  0  0  0  0  0  0  0  0  0
   -3.0490   -0.8686    1.7129 C   0  0  0  0  0  0  0  0  0  0  0  0
   -2.6827   -0.3315    0.6508 O   0  0  0  0  0  0  0  0  0  0  0  0
   -4.3915   -0.9626    2.0959 N   0  0  0  0  0  0  0  0  0  0  0  0
   -5.4934   -0.4735    1.3472 C   0  0  0  0  0  0  0  0  0  0  0  0
   -6.7757   -0.6249    1.8871 C   0  0  0  0  0  0  0  0  0  0  0  0
   -7.9042   -0.1890    1.2428 C   0  0  0  0  0  0  0  0  0  0  0  0
   -7.8020    0.4330   -0.0004 C   0  0  0  0  0  0  0  0  0  0  0  0
   -8.9841    0.8651   -0.6400 N   0  0  0  0  0  0  0  0  0  0  0  0
   -8.9418    1.6212   -1.8702 C   0  0  0  0  0  0  0  0  0  0  0  0
  -10.1074    2.5465   -2.0667 C   0  0  0  0  0  0  0  0  0  0  0  0
  -11.2743    2.1655   -1.4637 O   0  0  0  0  0  0  0  0  0  0  0  0
  -11.3001    0.7886   -1.2362 C   0  0  0  0  0  0  0  0  0  0  0  0
  -10.2934    0.5666   -0.0981 C   0  0  0  0  0  0  0  0  0  0  0  0
   -6.5632    0.5906   -0.5440 C   0  0  0  0  0  0  0  0  0  0  0  0
   -5.4230    0.1402    0.1270 C   0  0  0  0  0  0  0  0  0  0  0  0
    0.0030   -2.1078    1.1802 C   0  0  0  0  0  0  0  0  0  0  0  0
    1.2747   -1.8901    0.6642 C   0  0  0  0  0  0  0  0  0  0  0  0
    1.7383   -2.9372   -0.1804 N   0  0  0  0  0  0  0  0  0  0  0  0
    3.0485   -3.1522   -0.7441 C   0  0  0  0  0  0  0  0  0  0  0  0
    3.1966   -4.1840   -1.4443 O   0  0  0  0  0  0  0  0  0  0  0  0
    9.1187   -1.0226   -0.3566 C   0  0  0  0  0  0  0  0  0  0  0  0
   10.3059   -0.3258   -0.2864 C   0  0  0  0  0  0  0  0  0  0  0  0
   10.2963    1.0509   -0.3204 C   0  0  0  0  0  0  0  0  0  0  0  0
   11.5065    1.7551   -0.2481 N   0  0  0  0  0  0  0  0  0  0  0  0
    7.5884    3.8461   -1.6282 H   0  0  0  0  0  0  0  0  0  0  0  0
    7.1256    3.4651    0.0986 H   0  0  0  0  0  0  0  0  0  0  0  0
    8.1541    4.9367   -0.2881 H   0  0  0  0  0  0  0  0  0  0  0  0
    6.9883    1.5554   -0.5773 H   0  0  0  0  0  0  0  0  0  0  0  0
    7.5219   -2.6960   -1.5188 H   0  0  0  0  0  0  0  0  0  0  0  0
    5.3392   -3.8789   -1.6066 H   0  0  0  0  0  0  0  0  0  0  0  0
    5.5837    0.5075    0.4596 H   0  0  0  0  0  0  0  0  0  0  0  0
    3.5037    0.6671    0.7240 H   0  0  0  0  0  0  0  0  0  0  0  0
    1.9249    1.0553    2.0542 H   0  0  0  0  0  0  0  0  0  0  0  0
   -0.3575    0.6878    2.9952 H   0  0  0  0  0  0  0  0  0  0  0  0
   -2.2093   -2.5134    2.6848 H   0  0  0  0  0  0  0  0  0  0  0  0
   -2.0142   -1.0031    3.5907 H   0  0  0  0  0  0  0  0  0  0  0  0
   -4.5865   -1.4401    3.0207 H   0  0  0  0  0  0  0  0  0  0  0  0
   -6.8654   -1.1064    2.8517 H   0  0  0  0  0  0  0  0  0  0  0  0
   -8.9017   -0.3066    1.6676 H   0  0  0  0  0  0  0  0  0  0  0  0
   -7.9939    2.2333   -1.9028 H   0  0  0  0  0  0  0  0  0  0  0  0
   -8.8957    0.9603   -2.7661 H   0  0  0  0  0  0  0  0  0  0  0  0
   -9.8087    3.5457   -1.6444 H   0  0  0  0  0  0  0  0  0  0  0  0
  -10.2321    2.7467   -3.1688 H   0  0  0  0  0  0  0  0  0  0  0  0
  -10.9301    0.1997   -2.0913 H   0  0  0  0  0  0  0  0  0  0  0  0
  -12.3199    0.4860   -0.9076 H   0  0  0  0  0  0  0  0  0  0  0  0
  -10.3828   -0.4616    0.3008 H   0  0  0  0  0  0  0  0  0  0  0  0
  -10.5372    1.3448    0.6548 H   0  0  0  0  0  0  0  0  0  0  0  0
   -6.4166    1.0560   -1.4916 H   0  0  0  0  0  0  0  0  0  0  0  0
   -4.4829    0.2872   -0.3419 H   0  0  0  0  0  0  0  0  0  0  0  0
   -0.5080   -3.0038    0.9161 H   0  0  0  0  0  0  0  0  0  0  0  0
    1.0026   -3.6346   -0.4069 H   0  0  0  0  0  0  0  0  0  0  0  0
    9.0666   -2.0926   -0.3347 H   0  0  0  0  0  0  0  0  0  0  0  0
   11.2590   -0.8491   -0.2041 H   0  0  0  0  0  0  0  0  0  0  0  0
   11.5679    2.5280    0.4669 H   0  0  0  0  0  0  0  0  0  0  0  0
   12.3070    1.5105   -0.8867 H   0  0  0  0  0  0  0  0  0  0  0  0
  1  2  1  0
  2  3  1  0
  3  4  2  0
  4  5  1  0
  5  6  1  0
  6  7  2  0
  7  8  1  0
  8  9  2  0
  9 10  1  0
 10 11  2  0
 10 12  1  0
 12 13  1  0
 13 14  2  0
 14 15  1  0
 15 16  2  0
 16 17  1  0
 17 18  1  0
 18 19  2  0
 18 20  1  0
 20 21  1  0
 21 22  2  0
 22 23  1  0
 23 24  2  0
 24 25  1  0
 25 26  1  0
 26 27  1  0
 27 28  1  0
 28 29  1  0
 29 30  1  0
 24 31  1  0
 31 32  2  0
 16 33  1  0
 33 34  2  0
 34 35  1  0
 35 36  1  0
 36 37  2  0
  5 38  2  0
 38 39  1  0
 39 40  2  0
 40 41  1  0
 40  3  1  0
 11  6  1  0
 34 13  1  0
 36  9  1  0
 32 21  1  0
 30 25  1  0
  1 42  1  0
  1 43  1  0
  1 44  1  0
  4 45  1  0
  7 46  1  0
  8 47  1  0
 11 48  1  0
 12 49  1  0
 14 50  1  0
 15 51  1  0
 17 52  1  0
 17 53  1  0
 20 54  1  0
 22 55  1  0
 23 56  1  0
 26 57  1  0
 26 58  1  0
 27 59  1  0
 27 60  1  0
 29 61  1  0
 29 62  1  0
 30 63  1  0
 30 64  1  0
 31 65  1  0
 32 66  1  0
 33 67  1  0
 35 68  1  0
 38 69  1  0
 39 70  1  0
 41 71  1  0
 41 72  1  0
M  END
$$$$
