@<TRIPOS>MOLECULE
*****
 62 64 0 0 0
SMALL
GASTEIGER

@<TRIPOS>ATOM
      1 C           9.3320   -1.5396   -0.7452 C.3     1  UNL1        0.0790
      2 O           8.0962   -1.6349   -1.3940 O.3     1  UNL1       -0.4915
      3 C           7.0073   -0.8237   -1.0780 C.ar    1  UNL1        0.1615
      4 C           7.0957    0.1331   -0.0894 C.ar    1  UNL1       -0.0156
      5 C           5.9884    0.9347    0.2088 C.ar    1  UNL1       -0.0459
      6 C           4.7905    0.8090   -0.4533 C.ar    1  UNL1        0.0404
      7 C           3.6239    1.6244   -0.1683 C.2     1  UNL1        0.2445
      8 O           2.5895    1.3961   -0.8655 O.2     1  UNL1       -0.2702
      9 N           3.6244    2.6104    0.8166 N.am    1  UNL1       -0.3072
     10 C           2.4889    3.4245    1.1180 C.3     1  UNL1        0.0372
     11 C           1.4476    2.7519    1.9230 C.ar    1  UNL1       -0.0296
     12 C           1.5509    2.7398    3.3161 C.ar    1  UNL1       -0.0570
     13 C           0.5832    2.1286    4.0875 C.ar    1  UNL1       -0.0607
     14 C          -0.4673    1.5430    3.4415 C.ar    1  UNL1       -0.0496
     15 C          -0.6028    1.5350    2.0768 C.ar    1  UNL1        0.0373
     16 C          -1.7390    0.8996    1.4013 C.2     1  UNL1        0.2483
     17 O          -1.7779    0.9488    0.1260 O.2     1  UNL1       -0.2699
     18 N          -2.7774    0.2438    2.1049 N.am    1  UNL1       -0.2815
     19 C          -3.8700   -0.3619    1.3673 C.ar    1  UNL1        0.0337
     20 C          -4.9879    0.3922    1.0848 C.ar    1  UNL1       -0.0402
     21 C          -6.0518   -0.1392    0.3865 C.ar    1  UNL1       -0.0556
     22 C          -6.0244   -1.4606   -0.0546 C.ar    1  UNL1       -0.0333
     23 C          -7.1923   -1.9522   -0.7905 C.3     1  UNL1        0.0235
     24 N          -7.0694   -1.7510   -2.2104 N.3     1  UNL1       -0.3042
     25 C          -8.2319   -2.2298   -2.9082 C.3     1  UNL1       -0.0127
     26 C          -6.8625   -0.3643   -2.5576 C.3     1  UNL1       -0.0127
     27 C          -4.9004   -2.2024    0.2351 C.ar    1  UNL1       -0.0556
     28 C          -3.8370   -1.6604    0.9368 C.ar    1  UNL1       -0.0402
     29 C           0.3859    2.1582    1.3158 C.ar    1  UNL1       -0.0449
     30 C           4.7606   -0.1766   -1.4442 C.ar    1  UNL1       -0.0042
     31 C           5.8222   -0.9691   -1.7539 C.ar    1  UNL1        0.1622
     32 O           5.6983   -1.9231   -2.7557 O.3     1  UNL1       -0.4914
     33 C           4.5097   -2.1205   -3.4850 C.3     1  UNL1        0.0790
     34 H           9.9032   -2.4769   -0.9247 H       1  UNL1        0.0660
     35 H           9.9575   -0.7073   -1.1370 H       1  UNL1        0.0660
     36 H           9.2410   -1.4084    0.3657 H       1  UNL1        0.0660
     37 H           8.0316    0.2390    0.4353 H       1  UNL1        0.0655
     38 H           6.1322    1.6530    0.9857 H       1  UNL1        0.0626
     39 H           4.5203    2.7571    1.3677 H       1  UNL1        0.1493
     40 H           2.0066    3.8454    0.1943 H       1  UNL1        0.0512
     41 H           2.8216    4.3252    1.7136 H       1  UNL1        0.0512
     42 H           2.3801    3.2029    3.8118 H       1  UNL1        0.0621
     43 H           0.6330    2.1014    5.1682 H       1  UNL1        0.0618
     44 H          -1.2248    1.0649    4.0381 H       1  UNL1        0.0625
     45 H          -2.7499    0.2012    3.1310 H       1  UNL1        0.1551
     46 H          -4.9827    1.4279    1.4434 H       1  UNL1        0.0636
     47 H          -6.9184    0.4706    0.1761 H       1  UNL1        0.0621
     48 H          -8.1639   -1.5406   -0.4144 H       1  UNL1        0.0475
     49 H          -7.2723   -3.0691   -0.6404 H       1  UNL1        0.0475
     50 H          -8.3174   -3.3285   -2.7265 H       1  UNL1        0.0391
     51 H          -9.1664   -1.7077   -2.5839 H       1  UNL1        0.0391
     52 H          -8.1674   -2.0817   -3.9961 H       1  UNL1        0.0391
     53 H          -7.6814    0.3033   -2.1855 H       1  UNL1        0.0391
     54 H          -6.8316   -0.2143   -3.6501 H       1  UNL1        0.0391
     55 H          -5.9263    0.0312   -2.0677 H       1  UNL1        0.0391
     56 H          -4.9037   -3.2296   -0.1198 H       1  UNL1        0.0621
     57 H          -2.9735   -2.2513    1.1519 H       1  UNL1        0.0636
     58 H           0.2509    2.1453    0.2380 H       1  UNL1        0.0628
     59 H           3.8218   -0.3149   -2.0019 H       1  UNL1        0.0663
     60 H           4.7179   -2.7097   -4.4036 H       1  UNL1        0.0660
     61 H           3.6929   -2.5648   -2.8804 H       1  UNL1        0.0660
     62 H           4.1659   -1.1271   -3.8389 H       1  UNL1        0.0660
@<TRIPOS>BOND
     1     1     2    1
     2     2     3    1
     3     3     4   ar
     4     4     5   ar
     5     5     6   ar
     6     6     7    1
     7     7     8    2
     8     7     9   am
     9     9    10    1
    10    10    11    1
    11    11    12   ar
    12    12    13   ar
    13    13    14   ar
    14    14    15   ar
    15    15    16    1
    16    16    17    2
    17    16    18   am
    18    18    19    1
    19    19    20   ar
    20    20    21   ar
    21    21    22   ar
    22    22    23    1
    23    23    24    1
    24    24    25    1
    25    24    26    1
    26    22    27   ar
    27    27    28   ar
    28    15    29   ar
    29     6    30   ar
    30    30    31   ar
    31    31    32    1
    32    32    33    1
    33    31     3   ar
    34    29    11   ar
    35    28    19   ar
    36     1    34    1
    37     1    35    1
    38     1    36    1
    39     4    37    1
    40     5    38    1
    41     9    39    1
    42    10    40    1
    43    10    41    1
    44    12    42    1
    45    13    43    1
    46    14    44    1
    47    18    45    1
    48    20    46    1
    49    21    47    1
    50    23    48    1
    51    23    49    1
    52    25    50    1
    53    25    51    1
    54    25    52    1
    55    26    53    1
    56    26    54    1
    57    26    55    1
    58    27    56    1
    59    28    57    1
    60    29    58    1
    61    30    59    1
    62    33    60    1
    63    33    61    1
    64    33    62    1
