
     RDKit          3D

 62 64  0  0  0  0  0  0  0  0999 V2000
    9.3320   -1.5396   -0.7452 C   0  0  0  0  0  0  0  0  0  0  0  0
    8.0962   -1.6349   -1.3940 O   0  0  0  0  0  0  0  0  0  0  0  0
    7.0073   -0.8237   -1.0780 C   0  0  0  0  0  0  0  0  0  0  0  0
    7.0957    0.1331   -0.0894 C   0  0  0  0  0  0  0  0  0  0  0  0
    5.9884    0.9347    0.2088 C   0  0  0  0  0  0  0  0  0  0  0  0
    4.7905    0.8090   -0.4533 C   0  0  0  0  0  0  0  0  0  0  0  0
    3.6239    1.6244   -0.1683 C   0  0  0  0  0  0  0  0  0  0  0  0
    2.5895    1.3961   -0.8655 O   0  0  0  0  0  0  0  0  0  0  0  0
    3.6244    2.6104    0.8166 N   0  0  0  0  0  0  0  0  0  0  0  0
    2.4889    3.4245    1.1180 C   0  0  0  0  0  0  0  0  0  0  0  0
    1.4476    2.7519    1.9230 C   0  0  0  0  0  0  0  0  0  0  0  0
    1.5509    2.7398    3.3161 C   0  0  0  0  0  0  0  0  0  0  0  0
    0.5832    2.1286    4.0875 C   0  0  0  0  0  0  0  0  0  0  0  0
   -0.4673    1.5430    3.4415 C   0  0  0  0  0  0  0  0  0  0  0  0
   -0.6028    1.5350    2.0768 C   0  0  0  0  0  0  0  0  0  0  0  0
   -1.7390    0.8996    1.4013 C   0  0  0  0  0  0  0  0  0  0  0  0
   -1.7779    0.9488    0.1260 O   0  0  0  0  0  0  0  0  0  0  0  0
   -2.7774    0.2438    2.1049 N   0  0  0  0  0  0  0  0  0  0  0  0
   -3.8700   -0.3619    1.3673 C   0  0  0  0  0  0  0  0  0  0  0  0
   -4.9879    0.3922    1.0848 C   0  0  0  0  0  0  0  0  0  0  0  0
   -6.0518   -0.1392    0.3865 C   0  0  0  0  0  0  0  0  0  0  0  0
   -6.0244   -1.4606   -0.0546 C   0  0  0  0  0  0  0  0  0  0  0  0
   -7.1923   -1.9522   -0.7905 C   0  0  0  0  0  0  0  0  0  0  0  0
   -7.0694   -1.7510   -2.2104 N   0  0  0  0  0  0  0  0  0  0  0  0
   -8.2319   -2.2298   -2.9082 C   0  0  0  0  0  0  0  0  0  0  0  0
   -6.8625   -0.3643   -2.5576 C   0  0  0  0  0  0  0  0  0  0  0  0
   -4.9004   -2.2024    0.2351 C   0  0  0  0  0  0  0  0  0  0  0  0
   -3.8370   -1.6604    0.9368 C   0  0  0  0  0  0  0  0  0  0  0  0
    0.3859    2.1582    1.3158 C   0  0  0  0  0  0  0  0  0  0  0  0
    4.7606   -0.1766   -1.4442 C   0  0  0  0  0  0  0  0  0  0  0  0
    5.8222   -0.9691   -1.7539 C   0  0  0  0  0  0  0  0  0  0  0  0
    5.6983   -1.9231   -2.7557 O   0  0  0  0  0  0  0  0  0  0  0  0
    4.5097   -2.1205   -3.4850 C   0  0  0  0  0  0  0  0  0  0  0  0
    9.9032   -2.4769   -0.9247 H   0  0  0  0  0  0  0  0  0  0  0  0
    9.9575   -0.7073   -1.1370 H   0  0  0  0  0  0  0  0  0  0  0  0
    9.2410   -1.4084    0.3657 H   0  0  0  0  0  0  0  0  0  0  0  0
    8.0316    0.2390    0.4353 H   0  0  0  0  0  0  0  0  0  0  0  0
    6.1322    1.6530    0.9857 H   0  0  0  0  0  0  0  0  0  0  0  0
    4.5203    2.7571    1.3677 H   0  0  0  0  0  0  0  0  0  0  0  0
    2.0066    3.8454    0.1943 H   0  0  0  0  0  0  0  0  0  0  0  0
    2.8216    4.3252    1.7136 H   0  0  0  0  0  0  0  0  0  0  0  0
    2.3801    3.2029    3.8118 H   0  0  0  0  0  0  0  0  0  0  0  0
    0.6330    2.1014    5.1682 H   0  0  0  0  0  0  0  0  0  0  0  0
   -1.2248    1.0649    4.0381 H   0  0  0  0  0  0  0  0  0  0  0  0
   -2.7499    0.2012    3.1310 H   0  0  0  0  0  0  0  0  0  0  0  0
   -4.9827    1.4279    1.4434 H   0  0  0  0  0  0  0  0  0  0  0  0
   -6.9184    0.4706    0.1761 H   0  0  0  0  0  0  0  0  0  0  0  0
   -8.1639   -1.5406   -0.4144 H   0  0  0  0  0  0  0  0  0  0  0  0
   -7.2723   -3.0691   -0.6404 H   0  0  0  0  0  0  0  0  0  0  0  0
   -8.3174   -3.3285   -2.7265 H   0  0  0  0  0  0  0  0  0  0  0  0
   -9.1664   -1.7077   -2.5839 H   0  0  0  0  0  0  0  0  0  0  0  0
   -8.1674   -2.0817   -3.9961 H   0  0  0  0  0  0  0  0  0  0  0  0
   -7.6814    0.3033   -2.1855 H   0  0  0  0  0  0  0  0  0  0  0  0
   -6.8316   -0.2143   -3.6501 H   0  0  0  0  0  0  0  0  0  0  0  0
   -5.9263    0.0312   -2.0677 H   0  0  0  0  0  0  0  0  0  0  0  0
   -4.9037   -3.2296   -0.1198 H   0  0  0  0  0  0  0  0  0  0  0  0
   -2.9735   -2.2513    1.1519 H   0  0  0  0  0  0  0  0  0  0  0  0
    0.2509    2.1453    0.2380 H   0  0  0  0  0  0  0  0  0  0  0  0
    3.8218   -0.3149   -2.0019 H   0  0  0  0  0  0  0  0  0  0  0  0
    4.7179   -2.7097   -4.4036 H   0  0  0  0  0  0  0  0  0  0  0  0
    3.6929   -2.5648   -2.8804 H   0  0  0  0  0  0  0  0  0  0  0  0
    4.1659   -1.1271   -3.8389 H   0  0  0  0  0  0  0  0  0  0  0  0
  1  2  1  0
  2  3  1  0
  3  4  2  0
  4  5  1  0
  5  6  2  0
  6  7  1  0
  7  8  2  0
  7  9  1  0
  9 10  1  0
 10 11  1  0
 11 12  2  0
 12 13  1  0
 13 14  2  0
 14 15  1  0
 15 16  1  0
 16 17  2  0
 16 18  1  0
 18 19  1  0
 19 20  2  0
 20 21  1  0
 21 22  2  0
 22 23  1  0
 23 24  1  0
 24 25  1  0
 24 26  1  0
 22 27  1  0
 27 28  2  0
 15 29  2  0
  6 30  1  0
 30 31  2  0
 31 32  1  0
 32 33  1  0
 31  3  1  0
 29 11  1  0
 28 19  1  0
  1 34  1  0
  1 35  1  0
  1 36  1  0
  4 37  1  0
  5 38  1  0
  9 39  1  0
 10 40  1  0
 10 41  1  0
 12 42  1  0
 13 43  1  0
 14 44  1  0
 18 45  1  0
 20 46  1  0
 21 47  1  0
 23 48  1  0
 23 49  1  0
 25 50  1  0
 25 51  1  0
 25 52  1  0
 26 53  1  0
 26 54  1  0
 26 55  1  0
 27 56  1  0
 28 57  1  0
 29 58  1  0
 30 59  1  0
 33 60  1  0
 33 61  1  0
 33 62  1  0
M  END
$$$$
