@<TRIPOS>MOLECULE
*****
 56 58 0 0 0
SMALL
GASTEIGER

@<TRIPOS>ATOM
      1 C          -5.2352   -2.8835    0.1240 C.3     1  UNL1       -0.0524
      2 C          -5.7824   -1.8148   -0.7581 C.3     1  UNL1       -0.0039
      3 N          -5.5669   -0.4494   -0.1745 N.3     1  UNL1       -0.3014
      4 C          -6.2808    0.3885   -1.1410 C.3     1  UNL1       -0.0039
      5 C          -6.5075    1.7965   -0.7128 C.3     1  UNL1       -0.0524
      6 C          -4.1157   -0.2244   -0.2325 C.3     1  UNL1        0.0145
      7 C          -3.7306    1.0029    0.4848 C.3     1  UNL1        0.0247
      8 N          -2.2960    1.3004    0.4678 N.am    1  UNL1       -0.3101
      9 C          -1.2839    0.4525    0.9137 C.2     1  UNL1        0.2461
     10 O          -1.6410   -0.6835    1.3450 O.2     1  UNL1       -0.2701
     11 C           0.1506    0.7174    0.9415 C.ar    1  UNL1        0.0604
     12 C           0.7890    1.9222    0.9234 C.ar    1  UNL1        0.0257
     13 C           0.1949    3.2789    0.9335 C.3     1  UNL1       -0.0237
     14 N           2.1184    1.6540    0.9139 N.ar    1  UNL1       -0.3578
     15 C           2.3583    0.3435    0.9225 C.ar    1  UNL1        0.0438
     16 C           3.6766   -0.3175    0.8815 C.2     1  UNL1       -0.0253
     17 C           4.5824   -0.0516   -0.0359 C.2     1  UNL1        0.0479
     18 C           4.4748    0.8877   -1.1344 C.2     1  UNL1        0.2490
     19 O           3.4890    1.6102   -1.4150 O.2     1  UNL1       -0.2698
     20 N           5.7165    0.8391   -1.8515 N.am    1  UNL1       -0.2809
     21 C           6.5968   -0.0939   -1.2480 C.ar    1  UNL1        0.0417
     22 C           7.8873   -0.4695   -1.5949 C.ar    1  UNL1       -0.0372
     23 C           8.5419   -1.4149   -0.8369 C.ar    1  UNL1       -0.0247
     24 C           7.8663   -1.9488    0.2491 C.ar    1  UNL1        0.1241
     25 F           8.5240   -2.8733    0.9731 F       1  UNL1       -0.2055
     26 C           6.5805   -1.5630    0.5824 C.ar    1  UNL1       -0.0168
     27 C           5.9269   -0.6226   -0.1707 C.ar    1  UNL1        0.0111
     28 C           1.1376   -0.2879    0.9412 C.ar    1  UNL1       -0.0134
     29 C           0.8719   -1.7333    0.9508 C.3     1  UNL1       -0.0370
     30 H          -6.0735   -3.6261    0.2935 H       1  UNL1        0.0242
     31 H          -4.9967   -2.4202    1.1112 H       1  UNL1        0.0242
     32 H          -4.4107   -3.4519   -0.3182 H       1  UNL1        0.0242
     33 H          -6.8527   -1.8932   -0.9302 H       1  UNL1        0.0424
     34 H          -5.2373   -1.8138   -1.7168 H       1  UNL1        0.0424
     35 H          -5.7061    0.3749   -2.1194 H       1  UNL1        0.0424
     36 H          -7.2569   -0.0739   -1.3946 H       1  UNL1        0.0424
     37 H          -5.9312    2.5318   -1.3068 H       1  UNL1        0.0242
     38 H          -6.4746    1.9683    0.3876 H       1  UNL1        0.0242
     39 H          -7.5912    2.0905   -0.9695 H       1  UNL1        0.0242
     40 H          -3.8163   -0.2146   -1.2904 H       1  UNL1        0.0442
     41 H          -3.6856   -1.0958    0.3186 H       1  UNL1        0.0442
     42 H          -4.1870    1.9513    0.0694 H       1  UNL1        0.0475
     43 H          -4.1096    0.9711    1.5512 H       1  UNL1        0.0475
     44 H          -1.9742    2.2347    0.0774 H       1  UNL1        0.1491
     45 H          -0.6547    3.3795    1.6150 H       1  UNL1        0.0292
     46 H           1.0043    4.0362    1.2080 H       1  UNL1        0.0292
     47 H          -0.1100    3.6132   -0.0779 H       1  UNL1        0.0292
     48 H           2.8231    2.4140    0.9242 H       1  UNL1        0.1656
     49 H           3.9375   -1.0615    1.6304 H       1  UNL1        0.0646
     50 H           5.9018    1.4263   -2.6987 H       1  UNL1        0.1552
     51 H           8.3752   -0.0175   -2.4591 H       1  UNL1        0.0637
     52 H           9.5601   -1.7281   -1.0870 H       1  UNL1        0.0647
     53 H           6.0599   -1.9877    1.4417 H       1  UNL1        0.0653
     54 H           1.7154   -2.3376    0.5525 H       1  UNL1        0.0278
     55 H          -0.0288   -1.9656    0.3012 H       1  UNL1        0.0278
     56 H           0.6762   -2.0659    1.9765 H       1  UNL1        0.0278
@<TRIPOS>BOND
     1     1     2    1
     2     2     3    1
     3     3     4    1
     4     4     5    1
     5     3     6    1
     6     6     7    1
     7     7     8    1
     8     8     9   am
     9     9    10    2
    10     9    11    1
    11    11    12   ar
    12    12    13    1
    13    12    14   ar
    14    14    15   ar
    15    15    16    1
    16    16    17    2
    17    17    18    1
    18    18    19    2
    19    18    20   am
    20    20    21    1
    21    21    22   ar
    22    22    23   ar
    23    23    24   ar
    24    24    25    1
    25    24    26   ar
    26    26    27   ar
    27    15    28   ar
    28    28    29    1
    29    28    11   ar
    30    27    17    1
    31    27    21   ar
    32     1    30    1
    33     1    31    1
    34     1    32    1
    35     2    33    1
    36     2    34    1
    37     4    35    1
    38     4    36    1
    39     5    37    1
    40     5    38    1
    41     5    39    1
    42     6    40    1
    43     6    41    1
    44     7    42    1
    45     7    43    1
    46     8    44    1
    47    13    45    1
    48    13    46    1
    49    13    47    1
    50    14    48    1
    51    16    49    1
    52    20    50    1
    53    22    51    1
    54    23    52    1
    55    26    53    1
    56    29    54    1
    57    29    55    1
    58    29    56    1
