@<TRIPOS>MOLECULE
*****
 40 42 0 0 0
SMALL
GASTEIGER

@<TRIPOS>ATOM
      1 O          -8.2282   -0.0761   -0.7533 O.2     1  UNL1       -0.2489
      2 C          -7.7760    0.4679   -1.7881 C.2     1  UNL1        0.3282
      3 O          -8.1813    1.7540   -2.0980 O.3     1  UNL1       -0.4793
      4 C          -6.8253   -0.2869   -2.6393 C.3     1  UNL1        0.1593
      5 N          -5.4377   -0.0518   -2.2203 N.ar    1  UNL1       -0.1518
      6 N          -4.6221    0.8973   -2.6528 N.ar    1  UNL1       -0.0452
      7 N          -3.4468    0.7919   -2.0429 N.ar    1  UNL1       -0.1045
      8 C          -3.5046   -0.2634   -1.1851 C.ar    1  UNL1        0.2421
      9 C          -2.4402   -0.7474   -0.3074 C.ar    1  UNL1        0.2112
     10 C          -1.4940    0.0475    0.3454 C.ar    1  UNL1        0.0517
     11 C          -0.6595   -0.7709    1.0791 C.ar    1  UNL1        0.2553
     12 O           0.4115   -0.3789    1.8709 O.3     1  UNL1       -0.4742
     13 C           1.2187   -1.2578    2.5895 C.3     1  UNL1        0.0944
     14 C           2.2722   -0.4243    3.3219 C.3     1  UNL1        0.0157
     15 C           3.1015    0.3472    2.3309 C.3     1  UNL1        0.0927
     16 O           3.7508   -0.5333    1.4551 O.3     1  UNL1       -0.4907
     17 C           4.5732    0.0008    0.4568 C.ar    1  UNL1        0.1371
     18 C           4.7259    1.3618    0.3563 C.ar    1  UNL1        0.0164
     19 C           5.5327    1.9034   -0.6219 C.ar    1  UNL1        0.1269
     20 F           5.6870    3.2292   -0.7268 F       1  UNL1       -0.2054
     21 C           6.1973    1.0626   -1.5141 C.ar    1  UNL1       -0.0252
     22 C           6.0383   -0.2980   -1.4055 C.ar    1  UNL1       -0.0415
     23 C           5.2363   -0.8339   -0.4330 C.ar    1  UNL1        0.0596
     24 BR          4.9674   -2.7126   -0.2211 Br      1  UNL1       -0.0465
     25 N          -1.1236   -2.0146    0.8476 N.ar    1  UNL1       -0.0394
     26 O          -2.1438   -1.9735    0.0504 O.2     1  UNL1       -0.3478
     27 N          -4.7508   -0.7492   -1.3315 N.ar    1  UNL1       -0.1266
     28 H          -8.4129    2.3952   -1.3475 H       1  UNL1        0.2951
     29 H          -6.9121    0.1126   -3.6692 H       1  UNL1        0.0644
     30 H          -7.0664   -1.3725   -2.5836 H       1  UNL1        0.0644
     31 H          -1.4456    1.1129    0.2723 H       1  UNL1        0.0711
     32 H           0.5752   -1.7951    3.3143 H       1  UNL1        0.0698
     33 H           1.7641   -1.9837    1.9708 H       1  UNL1        0.0698
     34 H           2.8880   -1.1461    3.9039 H       1  UNL1        0.0331
     35 H           1.7841    0.2477    4.0502 H       1  UNL1        0.0331
     36 H           2.3829    1.0192    1.7803 H       1  UNL1        0.0697
     37 H           3.7852    1.0314    2.8624 H       1  UNL1        0.0697
     38 H           4.2023    1.9869    1.0567 H       1  UNL1        0.0683
     39 H           6.8362    1.4687   -2.2902 H       1  UNL1        0.0646
     40 H           6.5402   -0.9895   -2.0831 H       1  UNL1        0.0631
@<TRIPOS>BOND
     1     1     2    2
     2     2     3    1
     3     2     4    1
     4     4     5    1
     5     5     6   ar
     6     6     7   ar
     7     7     8   ar
     8     8     9    1
     9     9    10   ar
    10    10    11   ar
    11    11    12    1
    12    12    13    1
    13    13    14    1
    14    14    15    1
    15    15    16    1
    16    16    17    1
    17    17    18   ar
    18    18    19   ar
    19    19    20    1
    20    19    21   ar
    21    21    22   ar
    22    22    23   ar
    23    23    24    1
    24    11    25   ar
    25    25    26   ar
    26     8    27   ar
    27    27     5   ar
    28    26     9   ar
    29    23    17   ar
    30     3    28    1
    31     4    29    1
    32     4    30    1
    33    10    31    1
    34    13    32    1
    35    13    33    1
    36    14    34    1
    37    14    35    1
    38    15    36    1
    39    15    37    1
    40    18    38    1
    41    21    39    1
    42    22    40    1
