
     RDKit          3D

 40 42  0  0  0  0  0  0  0  0999 V2000
   -8.2282   -0.0761   -0.7533 O   0  0  0  0  0  0  0  0  0  0  0  0
   -7.7760    0.4679   -1.7881 C   0  0  0  0  0  0  0  0  0  0  0  0
   -8.1813    1.7540   -2.0980 O   0  0  0  0  0  0  0  0  0  0  0  0
   -6.8253   -0.2869   -2.6393 C   0  0  0  0  0  0  0  0  0  0  0  0
   -5.4377   -0.0518   -2.2203 N   0  0  0  0  0  0  0  0  0  0  0  0
   -4.6221    0.8973   -2.6528 N   0  0  0  0  0  0  0  0  0  0  0  0
   -3.4468    0.7919   -2.0429 N   0  0  0  0  0  0  0  0  0  0  0  0
   -3.5046   -0.2634   -1.1851 C   0  0  0  0  0  0  0  0  0  0  0  0
   -2.4402   -0.7474   -0.3074 C   0  0  0  0  0  0  0  0  0  0  0  0
   -1.4940    0.0475    0.3454 C   0  0  0  0  0  0  0  0  0  0  0  0
   -0.6595   -0.7709    1.0791 C   0  0  0  0  0  0  0  0  0  0  0  0
    0.4115   -0.3789    1.8709 O   0  0  0  0  0  0  0  0  0  0  0  0
    1.2187   -1.2578    2.5895 C   0  0  0  0  0  0  0  0  0  0  0  0
    2.2722   -0.4243    3.3219 C   0  0  0  0  0  0  0  0  0  0  0  0
    3.1015    0.3472    2.3309 C   0  0  0  0  0  0  0  0  0  0  0  0
    3.7508   -0.5333    1.4551 O   0  0  0  0  0  0  0  0  0  0  0  0
    4.5732    0.0008    0.4568 C   0  0  0  0  0  0  0  0  0  0  0  0
    4.7259    1.3618    0.3563 C   0  0  0  0  0  0  0  0  0  0  0  0
    5.5327    1.9034   -0.6219 C   0  0  0  0  0  0  0  0  0  0  0  0
    5.6870    3.2292   -0.7268 F   0  0  0  0  0  0  0  0  0  0  0  0
    6.1973    1.0626   -1.5141 C   0  0  0  0  0  0  0  0  0  0  0  0
    6.0383   -0.2980   -1.4055 C   0  0  0  0  0  0  0  0  0  0  0  0
    5.2363   -0.8339   -0.4330 C   0  0  0  0  0  0  0  0  0  0  0  0
    4.9674   -2.7126   -0.2211 Br  0  0  0  0  0  0  0  0  0  0  0  0
   -1.1236   -2.0146    0.8476 N   0  0  0  0  0  0  0  0  0  0  0  0
   -2.1438   -1.9735    0.0504 O   0  0  0  0  0  0  0  0  0  0  0  0
   -4.7508   -0.7492   -1.3315 N   0  0  0  0  0  0  0  0  0  0  0  0
   -8.4129    2.3952   -1.3475 H   0  0  0  0  0  0  0  0  0  0  0  0
   -6.9121    0.1126   -3.6692 H   0  0  0  0  0  0  0  0  0  0  0  0
   -7.0664   -1.3725   -2.5836 H   0  0  0  0  0  0  0  0  0  0  0  0
   -1.4456    1.1129    0.2723 H   0  0  0  0  0  0  0  0  0  0  0  0
    0.5752   -1.7951    3.3143 H   0  0  0  0  0  0  0  0  0  0  0  0
    1.7641   -1.9837    1.9708 H   0  0  0  0  0  0  0  0  0  0  0  0
    2.8880   -1.1461    3.9039 H   0  0  0  0  0  0  0  0  0  0  0  0
    1.7841    0.2477    4.0502 H   0  0  0  0  0  0  0  0  0  0  0  0
    2.3829    1.0192    1.7803 H   0  0  0  0  0  0  0  0  0  0  0  0
    3.7852    1.0314    2.8624 H   0  0  0  0  0  0  0  0  0  0  0  0
    4.2023    1.9869    1.0567 H   0  0  0  0  0  0  0  0  0  0  0  0
    6.8362    1.4687   -2.2902 H   0  0  0  0  0  0  0  0  0  0  0  0
    6.5402   -0.9895   -2.0831 H   0  0  0  0  0  0  0  0  0  0  0  0
  1  2  2  0
  2  3  1  0
  2  4  1  0
  4  5  1  0
  5  6  1  0
  6  7  2  0
  7  8  1  0
  8  9  1  0
  9 10  2  0
 10 11  1  0
 11 12  1  0
 12 13  1  0
 13 14  1  0
 14 15  1  0
 15 16  1  0
 16 17  1  0
 17 18  2  0
 18 19  1  0
 19 20  1  0
 19 21  2  0
 21 22  1  0
 22 23  2  0
 23 24  1  0
 11 25  2  0
 25 26  1  0
  8 27  2  0
 27  5  1  0
 26  9  1  0
 23 17  1  0
  3 28  1  0
  4 29  1  0
  4 30  1  0
 10 31  1  0
 13 32  1  0
 13 33  1  0
 14 34  1  0
 14 35  1  0
 15 36  1  0
 15 37  1  0
 18 38  1  0
 21 39  1  0
 22 40  1  0
M  END
$$$$
