
     RDKit          3D

 42 45  0  0  0  0  0  0  0  0999 V2000
    6.5760   -0.5209    0.5396 C   0  0  0  0  0  0  0  0  0  0  0  0
    5.2255   -0.3502   -0.0621 C   0  0  0  0  0  0  0  0  0  0  0  0
    4.0270   -0.0465    0.5634 C   0  0  0  0  0  0  0  0  0  0  0  0
    3.0523    0.0058   -0.4107 C   0  0  0  0  0  0  0  0  0  0  0  0
    1.6119    0.3004   -0.1960 C   0  0  1  0  0  0  0  0  0  0  0  0
    0.7632   -0.0919   -1.3612 C   0  0  0  0  0  0  0  0  0  0  0  0
   -0.6355    0.5070   -1.1395 C   0  0  1  0  0  0  0  0  0  0  0  0
   -1.4339    0.1480   -2.3713 C   0  0  0  0  0  0  0  0  0  0  0  0
   -1.2196   -1.6724   -2.5629 S   0  0  0  0  0  0  0  0  0  0  0  0
   -1.6082   -2.2878   -0.8950 C   0  0  0  0  0  0  0  0  0  0  0  0
   -1.9790   -3.6389   -0.8014 N   0  0  0  0  0  0  0  0  0  0  0  0
   -1.5130   -1.4575    0.0288 N   0  0  0  0  0  0  0  0  0  0  0  0
   -1.1674   -0.0993    0.1422 C   0  0  2  0  0  0  0  0  0  0  0  0
   -2.3766    0.6509    0.6180 C   0  0  0  0  0  0  0  0  0  0  0  0
   -2.9080    1.7489   -0.0058 C   0  0  0  0  0  0  0  0  0  0  0  0
   -3.9983    2.4417    0.5179 C   0  0  0  0  0  0  0  0  0  0  0  0
   -4.5856    2.0431    1.6942 C   0  0  0  0  0  0  0  0  0  0  0  0
   -5.6567    2.7274    2.2052 F   0  0  0  0  0  0  0  0  0  0  0  0
   -4.0627    0.9431    2.3321 C   0  0  0  0  0  0  0  0  0  0  0  0
   -2.9664    0.2559    1.7927 C   0  0  0  0  0  0  0  0  0  0  0  0
   -2.5410   -0.8283    2.4820 F   0  0  0  0  0  0  0  0  0  0  0  0
   -0.1276    0.1061    1.2141 C   0  0  0  0  0  0  0  0  0  0  0  0
    1.1249   -0.4161    0.9049 O   0  0  0  0  0  0  0  0  0  0  0  0
    3.6374   -0.2503   -1.5373 O   0  0  0  0  0  0  0  0  0  0  0  0
    4.9091   -0.4642   -1.3755 N   0  0  0  0  0  0  0  0  0  0  0  0
    6.9153   -1.5575    0.5388 H   0  0  0  0  0  0  0  0  0  0  0  0
    6.5865   -0.0763    1.5563 H   0  0  0  0  0  0  0  0  0  0  0  0
    7.2943    0.0995   -0.0653 H   0  0  0  0  0  0  0  0  0  0  0  0
    3.9144    0.1124    1.6148 H   0  0  0  0  0  0  0  0  0  0  0  0
    1.5003    1.4030   -0.0412 H   0  0  0  0  0  0  0  0  0  0  0  0
    1.1741    0.1965   -2.3363 H   0  0  0  0  0  0  0  0  0  0  0  0
    0.6009   -1.2074   -1.3078 H   0  0  0  0  0  0  0  0  0  0  0  0
   -0.5230    1.5741   -1.0073 H   0  0  0  0  0  0  0  0  0  0  0  0
   -0.9458    0.6082   -3.2352 H   0  0  0  0  0  0  0  0  0  0  0  0
   -2.4848    0.3740   -2.3236 H   0  0  0  0  0  0  0  0  0  0  0  0
   -2.6921   -4.0062   -1.4862 H   0  0  0  0  0  0  0  0  0  0  0  0
   -1.5901   -4.2945   -0.0962 H   0  0  0  0  0  0  0  0  0  0  0  0
   -2.4668    2.1071   -0.9094 H   0  0  0  0  0  0  0  0  0  0  0  0
   -4.3978    3.2970    0.0125 H   0  0  0  0  0  0  0  0  0  0  0  0
   -4.5260    0.6297    3.2598 H   0  0  0  0  0  0  0  0  0  0  0  0
   -0.0489    1.2334    1.3225 H   0  0  0  0  0  0  0  0  0  0  0  0
   -0.4583   -0.2471    2.1871 H   0  0  0  0  0  0  0  0  0  0  0  0
  1  2  1  0
  2  3  1  0
  3  4  2  0
  4  5  1  0
  5  6  1  0
  6  7  1  0
  7  8  1  0
  8  9  1  0
  9 10  1  0
 10 11  1  0
 10 12  2  0
 12 13  1  0
 13 14  1  1
 14 15  2  0
 15 16  1  0
 16 17  2  0
 17 18  1  0
 17 19  1  0
 19 20  2  0
 20 21  1  0
 13 22  1  0
 22 23  1  0
  4 24  1  0
 24 25  1  0
 25  2  2  0
 23  5  1  0
 13  7  1  0
 20 14  1  0
  1 26  1  0
  1 27  1  0
  1 28  1  0
  3 29  1  0
  5 30  1  1
  6 31  1  0
  6 32  1  0
  7 33  1  1
  8 34  1  0
  8 35  1  0
 11 36  1  0
 11 37  1  0
 15 38  1  0
 16 39  1  0
 19 40  1  0
 22 41  1  0
 22 42  1  0
M  END
$$$$
