@<TRIPOS>MOLECULE
*****
 42 45 0 0 0
SMALL
GASTEIGER

@<TRIPOS>ATOM
      1 C           6.5760   -0.5209    0.5396 C.3     1  UNL1       -0.0191
      2 C           5.2255   -0.3502   -0.0621 C.ar    1  UNL1        0.0809
      3 C           4.0270   -0.0465    0.5634 C.ar    1  UNL1        0.0058
      4 C           3.0523    0.0058   -0.4107 C.ar    1  UNL1        0.1660
      5 C           1.6119    0.3004   -0.1960 C.3     1  UNL1        0.1192
      6 C           0.7632   -0.0919   -1.3612 C.3     1  UNL1       -0.0132
      7 C          -0.6355    0.5070   -1.1395 C.3     1  UNL1        0.0028
      8 C          -1.4339    0.1480   -2.3713 C.3     1  UNL1        0.0064
      9 S          -1.2196   -1.6724   -2.5629 S.3     1  UNL1       -0.0907
     10 C          -1.6082   -2.2878   -0.8950 C.2     1  UNL1        0.1476
     11 N          -1.9790   -3.6389   -0.8014 N.pl3   1  UNL1       -0.3380
     12 N          -1.5130   -1.4575    0.0288 N.2     1  UNL1       -0.2495
     13 C          -1.1674   -0.0993    0.1422 C.3     1  UNL1        0.1185
     14 C          -2.3766    0.6509    0.6180 C.ar    1  UNL1        0.0178
     15 C          -2.9080    1.7489   -0.0058 C.ar    1  UNL1       -0.0507
     16 C          -3.9983    2.4417    0.5179 C.ar    1  UNL1       -0.0259
     17 C          -4.5856    2.0431    1.6942 C.ar    1  UNL1        0.1261
     18 F          -5.6567    2.7274    2.2052 F       1  UNL1       -0.2054
     19 C          -4.0627    0.9431    2.3321 C.ar    1  UNL1        0.0091
     20 C          -2.9664    0.2559    1.7927 C.ar    1  UNL1        0.1317
     21 F          -2.5410   -0.8283    2.4820 F       1  UNL1       -0.2050
     22 C          -0.1276    0.1061    1.2141 C.3     1  UNL1        0.0783
     23 O           1.1249   -0.4161    0.9049 O.3     1  UNL1       -0.3661
     24 O           3.6374   -0.2503   -1.5373 O.2     1  UNL1       -0.3567
     25 N           4.9091   -0.4642   -1.3755 N.ar    1  UNL1       -0.0832
     26 H           6.9153   -1.5575    0.5388 H       1  UNL1        0.0294
     27 H           6.5865   -0.0763    1.5563 H       1  UNL1        0.0294
     28 H           7.2943    0.0995   -0.0653 H       1  UNL1        0.0294
     29 H           3.9144    0.1124    1.6148 H       1  UNL1        0.0672
     30 H           1.5003    1.4030   -0.0412 H       1  UNL1        0.0678
     31 H           1.1741    0.1965   -2.3363 H       1  UNL1        0.0298
     32 H           0.6009   -1.2074   -1.3078 H       1  UNL1        0.0298
     33 H          -0.5230    1.5741   -1.0073 H       1  UNL1        0.0337
     34 H          -0.9458    0.6082   -3.2352 H       1  UNL1        0.0384
     35 H          -2.4848    0.3740   -2.3236 H       1  UNL1        0.0384
     36 H          -2.6921   -4.0062   -1.4862 H       1  UNL1        0.1442
     37 H          -1.5901   -4.2945   -0.0962 H       1  UNL1        0.1442
     38 H          -2.4668    2.1071   -0.9094 H       1  UNL1        0.0623
     39 H          -4.3978    3.2970    0.0125 H       1  UNL1        0.0646
     40 H          -4.5260    0.6297    3.2598 H       1  UNL1        0.0675
     41 H          -0.0489    1.2334    1.3225 H       1  UNL1        0.0588
     42 H          -0.4583   -0.2471    2.1871 H       1  UNL1        0.0588
@<TRIPOS>BOND
     1     1     2    1
     2     2     3   ar
     3     3     4   ar
     4     4     5    1
     5     5     6    1
     6     6     7    1
     7     7     8    1
     8     8     9    1
     9     9    10    1
    10    10    11    1
    11    10    12    2
    12    12    13    1
    13    13    14    1
    14    14    15   ar
    15    15    16   ar
    16    16    17   ar
    17    17    18    1
    18    17    19   ar
    19    19    20   ar
    20    20    21    1
    21    13    22    1
    22    22    23    1
    23     4    24   ar
    24    24    25   ar
    25    25     2   ar
    26    23     5    1
    27    13     7    1
    28    20    14   ar
    29     1    26    1
    30     1    27    1
    31     1    28    1
    32     3    29    1
    33     5    30    1
    34     6    31    1
    35     6    32    1
    36     7    33    1
    37     8    34    1
    38     8    35    1
    39    11    36    1
    40    11    37    1
    41    15    38    1
    42    16    39    1
    43    19    40    1
    44    22    41    1
    45    22    42    1
