@<TRIPOS>MOLECULE
*****
 52 54 0 0 0
SMALL
GASTEIGER

@<TRIPOS>ATOM
      1 C          -2.1534   -3.0038    0.5178 C.3     1  UNL1       -0.0121
      2 N          -2.8412   -1.7349    0.4385 N.3     1  UNL1       -0.2974
      3 C          -2.1907   -0.8089    1.3403 C.3     1  UNL1        0.0174
      4 C          -0.8179   -0.4441    0.9013 C.2     1  UNL1       -0.0695
      5 C           0.2242   -0.6799    1.6396 C.2     1  UNL1       -0.0573
      6 C           1.5867   -0.3397    1.2505 C.ar    1  UNL1       -0.0252
      7 C           2.6454   -0.6307    2.1134 C.ar    1  UNL1       -0.0540
      8 C           3.9538   -0.3211    1.7830 C.ar    1  UNL1       -0.0535
      9 C           4.2683    0.2877    0.5876 C.ar    1  UNL1       -0.0178
     10 C           5.6337    0.6322    0.2035 C.ar    1  UNL1       -0.0179
     11 C           6.0325    0.6322   -1.1168 C.ar    1  UNL1       -0.0540
     12 C           7.3381    0.9649   -1.4602 C.ar    1  UNL1       -0.0612
     13 C           8.2751    1.3045   -0.5075 C.ar    1  UNL1       -0.0617
     14 C           7.8889    1.3081    0.8161 C.ar    1  UNL1       -0.0612
     15 C           6.5776    0.9729    1.1506 C.ar    1  UNL1       -0.0540
     16 C           3.2303    0.5788   -0.2711 C.ar    1  UNL1       -0.0535
     17 C           1.9070    0.2659    0.0632 C.ar    1  UNL1       -0.0540
     18 C          -2.9558   -1.2137   -0.8993 C.3     1  UNL1        0.0276
     19 C          -3.6719    0.0706   -0.8766 C.ar    1  UNL1        0.0121
     20 C          -3.1548    1.3396   -1.0209 C.ar    1  UNL1        0.0975
     21 O          -4.1517    2.2108   -0.9410 O.2     1  UNL1       -0.4626
     22 C          -5.2879    1.6076   -0.7547 C.ar    1  UNL1        0.1351
     23 C          -6.5711    2.1505   -0.6172 C.ar    1  UNL1       -0.0188
     24 C          -7.5937    1.2438   -0.4276 C.ar    1  UNL1       -0.0582
     25 C          -7.3860   -0.1150   -0.3739 C.ar    1  UNL1       -0.0610
     26 C          -6.0974   -0.6028   -0.5154 C.ar    1  UNL1       -0.0507
     27 C          -5.0372    0.2653   -0.7078 C.ar    1  UNL1        0.0245
     28 CL          0.6862    0.0000    0.0000 Cl      2  UNL2       -0.1454
     29 H          -2.7464   -3.8321    0.0379 H       1  UNL1        0.0391
     30 H          -1.1633   -2.9859    0.0083 H       1  UNL1        0.0391
     31 H          -1.9594   -3.2123    1.5811 H       1  UNL1        0.0391
     32 H          -2.2021   -1.1731    2.3809 H       1  UNL1        0.0470
     33 H          -2.8386    0.1107    1.3484 H       1  UNL1        0.0470
     34 H          -0.7315    0.0251   -0.0608 H       1  UNL1        0.0585
     35 H           0.0182   -1.1665    2.6068 H       1  UNL1        0.0621
     36 H           2.4140   -1.1075    3.0527 H       1  UNL1        0.0624
     37 H           4.7843   -0.5454    2.4537 H       1  UNL1        0.0624
     38 H           5.3115    0.3685   -1.8894 H       1  UNL1        0.0624
     39 H           7.6596    0.9690   -2.4846 H       1  UNL1        0.0618
     40 H           9.2929    1.5645   -0.7792 H       1  UNL1        0.0618
     41 H           8.6085    1.5742    1.6064 H       1  UNL1        0.0618
     42 H           6.2624    0.9738    2.1943 H       1  UNL1        0.0624
     43 H           3.4300    1.0608   -1.2317 H       1  UNL1        0.0624
     44 H           1.1268    0.5103   -0.6348 H       1  UNL1        0.0624
     45 H          -3.4560   -1.9637   -1.5506 H       1  UNL1        0.0477
     46 H          -1.9327   -1.0833   -1.3476 H       1  UNL1        0.0477
     47 H          -2.1073    1.6198   -1.1763 H       1  UNL1        0.1033
     48 H          -6.7494    3.2172   -0.6568 H       1  UNL1        0.0654
     49 H          -8.6088    1.6356   -0.3172 H       1  UNL1        0.0619
     50 H          -8.1776   -0.8382   -0.2248 H       1  UNL1        0.0618
     51 H          -5.8860   -1.6623   -0.4821 H       1  UNL1        0.0625
     52 H          -0.6862    0.0000    0.0000 H       1  UNL1        0.1454
@<TRIPOS>BOND
     1     1     2    1
     2     2     3    1
     3     3     4    1
     4     4     5    2
     5     5     6    1
     6     6     7   ar
     7     7     8   ar
     8     8     9   ar
     9     9    10    1
    10    10    11   ar
    11    11    12   ar
    12    12    13   ar
    13    13    14   ar
    14    14    15   ar
    15     9    16   ar
    16    16    17   ar
    17     2    18    1
    18    18    19    1
    19    19    20   ar
    20    20    21   ar
    21    21    22   ar
    22    22    23   ar
    23    23    24   ar
    24    24    25   ar
    25    25    26   ar
    26    26    27   ar
    27    17     6   ar
    28    27    19   ar
    29    15    10   ar
    30    27    22   ar
    31     1    29    1
    32     1    30    1
    33     1    31    1
    34     3    32    1
    35     3    33    1
    36     4    34    1
    37     5    35    1
    38     7    36    1
    39     8    37    1
    40    11    38    1
    41    12    39    1
    42    13    40    1
    43    14    41    1
    44    15    42    1
    45    16    43    1
    46    17    44    1
    47    18    45    1
    48    18    46    1
    49    20    47    1
    50    23    48    1
    51    24    49    1
    52    25    50    1
    53    26    51    1
    54    28    52    1
