
     RDKit          3D

 47 51  0  0  0  0  0  0  0  0999 V2000
   -2.1378   -1.9138   -1.2100 C   0  0  0  0  0  0  0  0  0  0  0  0
   -2.2286   -1.4000    0.2167 C   0  0  2  0  0  0  0  0  0  0  0  0
   -3.5940   -1.8751    0.7344 C   0  0  0  0  0  0  0  0  0  0  0  0
   -4.6391   -1.2685   -0.1744 C   0  0  0  0  0  0  0  0  0  0  0  0
   -4.4389    0.1871   -0.4274 C   0  0  0  0  0  0  0  0  0  0  0  0
   -3.1376    0.5362   -0.7227 O   0  0  0  0  0  0  0  0  0  0  0  0
   -2.2550    0.0964    0.2647 C   0  0  2  0  0  0  0  0  0  0  0  0
   -0.9039    0.7527    0.1211 C   0  0  1  0  0  0  0  0  0  0  0  0
   -0.7535    1.0812   -1.3510 C   0  0  0  0  0  0  0  0  0  0  0  0
   -1.2640    2.8557   -1.2595 S   0  0  0  0  0  0  0  0  0  0  0  0
   -0.8435    3.0353    0.4695 C   0  0  0  0  0  0  0  0  0  0  0  0
   -0.6957    4.2656    1.1313 N   0  0  0  0  0  0  0  0  0  0  0  0
   -0.7181    1.8824    0.9285 N   0  0  0  0  0  0  0  0  0  0  0  0
    0.2244   -0.1919    0.4179 C   0  0  0  0  0  0  0  0  0  0  0  0
    1.4910    0.3181    0.2431 C   0  0  0  0  0  0  0  0  0  0  0  0
    2.6141   -0.4657    0.4894 C   0  0  0  0  0  0  0  0  0  0  0  0
    3.9528    0.0684    0.3062 C   0  0  0  0  0  0  0  0  0  0  0  0
    4.9390   -0.6399   -0.3363 C   0  0  0  0  0  0  0  0  0  0  0  0
    6.2154   -0.0916   -0.4929 C   0  0  0  0  0  0  0  0  0  0  0  0
    6.4952    1.1650   -0.0038 C   0  0  0  0  0  0  0  0  0  0  0  0
    5.5147    1.8362    0.6198 N   0  0  0  0  0  0  0  0  0  0  0  0
    4.2598    1.3188    0.7839 C   0  0  0  0  0  0  0  0  0  0  0  0
    3.2851    2.0131    1.4162 F   0  0  0  0  0  0  0  0  0  0  0  0
    2.4252   -1.7633    0.9122 C   0  0  0  0  0  0  0  0  0  0  0  0
    1.1867   -2.2768    1.0879 C   0  0  0  0  0  0  0  0  0  0  0  0
    0.0721   -1.4765    0.8361 C   0  0  0  0  0  0  0  0  0  0  0  0
   -1.2068   -1.9712    1.0060 O   0  0  0  0  0  0  0  0  0  0  0  0
   -1.0958   -1.8121   -1.5758 H   0  0  0  0  0  0  0  0  0  0  0  0
   -2.4527   -2.9940   -1.2431 H   0  0  0  0  0  0  0  0  0  0  0  0
   -2.8660   -1.3834   -1.8459 H   0  0  0  0  0  0  0  0  0  0  0  0
   -3.6840   -1.4812    1.7633 H   0  0  0  0  0  0  0  0  0  0  0  0
   -3.6811   -2.9720    0.6710 H   0  0  0  0  0  0  0  0  0  0  0  0
   -5.6230   -1.3803    0.3588 H   0  0  0  0  0  0  0  0  0  0  0  0
   -4.7046   -1.8736   -1.0963 H   0  0  0  0  0  0  0  0  0  0  0  0
   -4.8709    0.8099    0.3925 H   0  0  0  0  0  0  0  0  0  0  0  0
   -5.0553    0.4490   -1.3366 H   0  0  0  0  0  0  0  0  0  0  0  0
   -2.6341    0.3763    1.2907 H   0  0  0  0  0  0  0  0  0  0  0  0
   -1.4235    0.5245   -2.0033 H   0  0  0  0  0  0  0  0  0  0  0  0
    0.2958    1.0969   -1.6697 H   0  0  0  0  0  0  0  0  0  0  0  0
    0.1235    4.4892    1.7711 H   0  0  0  0  0  0  0  0  0  0  0  0
   -1.3870    5.0370    1.0324 H   0  0  0  0  0  0  0  0  0  0  0  0
    1.6795    1.3440   -0.0915 H   0  0  0  0  0  0  0  0  0  0  0  0
    4.7033   -1.6142   -0.7095 H   0  0  0  0  0  0  0  0  0  0  0  0
    7.0010   -0.6319   -0.9937 H   0  0  0  0  0  0  0  0  0  0  0  0
    7.4928    1.6138   -0.1169 H   0  0  0  0  0  0  0  0  0  0  0  0
    3.2942   -2.3671    1.1020 H   0  0  0  0  0  0  0  0  0  0  0  0
    1.0289   -3.3083    1.4240 H   0  0  0  0  0  0  0  0  0  0  0  0
  2  1  1  6
  2  3  1  0
  3  4  1  0
  4  5  1  0
  5  6  1  0
  6  7  1  0
  7  8  1  0
  8  9  1  6
  9 10  1  0
 10 11  1  0
 11 12  1  0
 11 13  2  0
  8 14  1  0
 14 15  2  0
 15 16  1  0
 16 17  1  0
 17 18  2  0
 18 19  1  0
 19 20  2  0
 20 21  1  0
 21 22  2  0
 22 23  1  0
 16 24  2  0
 24 25  1  0
 25 26  2  0
 26 27  1  0
  7  2  1  0
 13  8  1  0
 26 14  1  0
 27  2  1  0
 22 17  1  0
  1 28  1  0
  1 29  1  0
  1 30  1  0
  3 31  1  0
  3 32  1  0
  4 33  1  0
  4 34  1  0
  5 35  1  0
  5 36  1  0
  7 37  1  1
  9 38  1  0
  9 39  1  0
 12 40  1  0
 12 41  1  0
 15 42  1  0
 18 43  1  0
 19 44  1  0
 20 45  1  0
 24 46  1  0
 25 47  1  0
M  END
$$$$
