@<TRIPOS>MOLECULE
*****
 47 51 0 0 0
SMALL
GASTEIGER

@<TRIPOS>ATOM
      1 C          -2.1378   -1.9138   -1.2100 C.3     1  UNL1       -0.0224
      2 C          -2.2286   -1.4000    0.2167 C.3     1  UNL1        0.1364
      3 C          -3.5940   -1.8751    0.7344 C.3     1  UNL1       -0.0085
      4 C          -4.6391   -1.2685   -0.1744 C.3     1  UNL1       -0.0258
      5 C          -4.4389    0.1871   -0.4274 C.3     1  UNL1        0.0484
      6 O          -3.1376    0.5362   -0.7227 O.3     1  UNL1       -0.3698
      7 C          -2.2550    0.0964    0.2647 C.3     1  UNL1        0.1279
      8 C          -0.9039    0.7527    0.1211 C.3     1  UNL1        0.1314
      9 C          -0.7535    1.0812   -1.3510 C.3     1  UNL1        0.0330
     10 S          -1.2640    2.8557   -1.2595 S.3     1  UNL1       -0.0883
     11 C          -0.8435    3.0353    0.4695 C.2     1  UNL1        0.1477
     12 N          -0.6957    4.2656    1.1313 N.pl3   1  UNL1       -0.3380
     13 N          -0.7181    1.8824    0.9285 N.2     1  UNL1       -0.2485
     14 C           0.2244   -0.1919    0.4179 C.ar    1  UNL1        0.0256
     15 C           1.4910    0.3181    0.2431 C.ar    1  UNL1       -0.0448
     16 C           2.6141   -0.4657    0.4894 C.ar    1  UNL1       -0.0130
     17 C           3.9528    0.0684    0.3062 C.ar    1  UNL1        0.0365
     18 C           4.9390   -0.6399   -0.3363 C.ar    1  UNL1       -0.0483
     19 C           6.2154   -0.0916   -0.4929 C.ar    1  UNL1       -0.0428
     20 C           6.4952    1.1650   -0.0038 C.ar    1  UNL1        0.0307
     21 N           5.5147    1.8362    0.6198 N.ar    1  UNL1       -0.2271
     22 C           4.2598    1.3188    0.7839 C.ar    1  UNL1        0.2209
     23 F           3.2851    2.0131    1.4162 F       1  UNL1       -0.1832
     24 C           2.4252   -1.7633    0.9122 C.ar    1  UNL1       -0.0504
     25 C           1.1867   -2.2768    1.0879 C.ar    1  UNL1       -0.0190
     26 C           0.0721   -1.4765    0.8361 C.ar    1  UNL1        0.1270
     27 O          -1.2068   -1.9712    1.0060 O.3     1  UNL1       -0.4829
     28 H          -1.0958   -1.8121   -1.5758 H       1  UNL1        0.0269
     29 H          -2.4527   -2.9940   -1.2431 H       1  UNL1        0.0269
     30 H          -2.8660   -1.3834   -1.8459 H       1  UNL1        0.0269
     31 H          -3.6840   -1.4812    1.7633 H       1  UNL1        0.0305
     32 H          -3.6811   -2.9720    0.6710 H       1  UNL1        0.0305
     33 H          -5.6230   -1.3803    0.3588 H       1  UNL1        0.0289
     34 H          -4.7046   -1.8736   -1.0963 H       1  UNL1        0.0289
     35 H          -4.8709    0.8099    0.3925 H       1  UNL1        0.0560
     36 H          -5.0553    0.4490   -1.3366 H       1  UNL1        0.0560
     37 H          -2.6341    0.3763    1.2907 H       1  UNL1        0.0664
     38 H          -1.4235    0.5245   -2.0033 H       1  UNL1        0.0408
     39 H           0.2958    1.0969   -1.6697 H       1  UNL1        0.0408
     40 H           0.1235    4.4892    1.7711 H       1  UNL1        0.1442
     41 H          -1.3870    5.0370    1.0324 H       1  UNL1        0.1442
     42 H           1.6795    1.3440   -0.0915 H       1  UNL1        0.0628
     43 H           4.7033   -1.6142   -0.7095 H       1  UNL1        0.0625
     44 H           7.0010   -0.6319   -0.9937 H       1  UNL1        0.0633
     45 H           7.4928    1.6138   -0.1169 H       1  UNL1        0.0830
     46 H           3.2942   -2.3671    1.1020 H       1  UNL1        0.0625
     47 H           1.0289   -3.3083    1.4240 H       1  UNL1        0.0654
@<TRIPOS>BOND
     1     2     1    1
     2     2     3    1
     3     3     4    1
     4     4     5    1
     5     5     6    1
     6     6     7    1
     7     7     8    1
     8     8     9    1
     9     9    10    1
    10    10    11    1
    11    11    12    1
    12    11    13    2
    13     8    14    1
    14    14    15   ar
    15    15    16   ar
    16    16    17    1
    17    17    18   ar
    18    18    19   ar
    19    19    20   ar
    20    20    21   ar
    21    21    22   ar
    22    22    23    1
    23    16    24   ar
    24    24    25   ar
    25    25    26   ar
    26    26    27    1
    27     7     2    1
    28    13     8    1
    29    26    14   ar
    30    27     2    1
    31    22    17   ar
    32     1    28    1
    33     1    29    1
    34     1    30    1
    35     3    31    1
    36     3    32    1
    37     4    33    1
    38     4    34    1
    39     5    35    1
    40     5    36    1
    41     7    37    1
    42     9    38    1
    43     9    39    1
    44    12    40    1
    45    12    41    1
    46    15    42    1
    47    18    43    1
    48    19    44    1
    49    20    45    1
    50    24    46    1
    51    25    47    1
