
     RDKit          3D

 60 65  0  0  0  0  0  0  0  0999 V2000
   -1.6740    0.3535   -4.5634 C   0  0  0  0  0  0  0  0  0  0  0  0
   -1.6811    0.0316   -3.1180 C   0  0  0  0  0  0  0  0  0  0  0  0
   -2.7602   -0.2144   -2.3084 C   0  0  0  0  0  0  0  0  0  0  0  0
   -2.3693   -0.4692   -1.0550 N   0  0  0  0  0  0  0  0  0  0  0  0
   -3.2182   -0.7754    0.0882 C   0  0  0  0  0  0  0  0  0  0  0  0
   -3.8064    0.4882    0.6839 C   0  0  0  0  0  0  0  0  0  0  0  0
   -5.0633   -0.0012    1.3281 C   0  0  0  0  0  0  0  0  0  0  0  0
   -5.4957   -1.1112    0.4658 N   0  0  0  0  0  0  0  0  0  0  0  0
   -6.8714   -1.5706    0.4678 C   0  0  0  0  0  0  0  0  0  0  0  0
   -4.3809   -1.5718   -0.2803 C   0  0  0  0  0  0  0  0  0  0  0  0
   -4.4191   -2.5049   -1.1068 O   0  0  0  0  0  0  0  0  0  0  0  0
   -1.0018   -0.3868   -1.0496 C   0  0  0  0  0  0  0  0  0  0  0  0
   -0.5510   -0.0809   -2.3026 C   0  0  0  0  0  0  0  0  0  0  0  0
    0.9046   -0.0015   -2.2857 C   0  0  0  0  0  0  0  0  0  0  0  0
    1.6373    0.2648   -3.2859 O   0  0  0  0  0  0  0  0  0  0  0  0
    1.3012   -0.2772   -0.9561 N   0  0  0  0  0  0  0  0  0  0  0  0
    2.6949   -0.3145   -0.5491 C   0  0  0  0  0  0  0  0  0  0  0  0
    3.3114   -1.5418   -0.6131 C   0  0  0  0  0  0  0  0  0  0  0  0
    4.6360   -1.6655   -0.2488 C   0  0  0  0  0  0  0  0  0  0  0  0
    5.2667   -2.9997   -0.3299 C   0  0  0  0  0  0  0  0  0  0  0  0
    5.2884   -0.5278    0.1699 C   0  0  0  0  0  0  0  0  0  0  0  0
    6.5473   -0.3577    0.5737 N   0  0  0  0  0  0  0  0  0  0  0  0
    6.7469    0.8947    0.8823 N   0  0  0  0  0  0  0  0  0  0  0  0
    5.5858    1.5413    0.6703 C   0  0  0  0  0  0  0  0  0  0  0  0
    5.2937    2.9917    0.8741 C   0  0  0  0  0  0  0  0  0  0  0  0
    4.6577    0.6720    0.2242 N   0  0  0  0  0  0  0  0  0  0  0  0
    3.3761    0.7825   -0.1302 C   0  0  0  0  0  0  0  0  0  0  0  0
    0.1521   -0.5069   -0.1649 C   0  0  0  0  0  0  0  0  0  0  0  0
    0.0460    0.3367    1.0496 C   0  0  0  0  0  0  0  0  0  0  0  0
   -0.2870   -0.2365    2.2591 C   0  0  0  0  0  0  0  0  0  0  0  0
   -0.4073    0.4929    3.4217 C   0  0  0  0  0  0  0  0  0  0  0  0
   -0.1902    1.8542    3.3986 C   0  0  0  0  0  0  0  0  0  0  0  0
   -0.3315    2.8161    4.8456 Cl  0  0  0  0  0  0  0  0  0  0  0  0
    0.1449    2.4598    2.2035 C   0  0  0  0  0  0  0  0  0  0  0  0
    0.2570    1.6998    1.0577 C   0  0  0  0  0  0  0  0  0  0  0  0
   -0.6583    0.4316   -4.9471 H   0  0  0  0  0  0  0  0  0  0  0  0
   -2.2290   -0.4191   -5.1501 H   0  0  0  0  0  0  0  0  0  0  0  0
   -2.2101    1.3221   -4.7545 H   0  0  0  0  0  0  0  0  0  0  0  0
   -3.8010   -0.1997   -2.6601 H   0  0  0  0  0  0  0  0  0  0  0  0
   -2.6265   -1.2647    0.8868 H   0  0  0  0  0  0  0  0  0  0  0  0
   -3.9803    1.2741   -0.0795 H   0  0  0  0  0  0  0  0  0  0  0  0
   -3.1084    0.8667    1.4473 H   0  0  0  0  0  0  0  0  0  0  0  0
   -5.8161    0.8113    1.3185 H   0  0  0  0  0  0  0  0  0  0  0  0
   -4.8200   -0.3695    2.3396 H   0  0  0  0  0  0  0  0  0  0  0  0
   -7.4911   -0.8176   -0.0192 H   0  0  0  0  0  0  0  0  0  0  0  0
   -6.9040   -2.5724   -0.0076 H   0  0  0  0  0  0  0  0  0  0  0  0
   -7.2374   -1.7118    1.5175 H   0  0  0  0  0  0  0  0  0  0  0  0
    2.7746   -2.4409   -0.9503 H   0  0  0  0  0  0  0  0  0  0  0  0
    6.2733   -3.0238    0.1149 H   0  0  0  0  0  0  0  0  0  0  0  0
    5.3543   -3.3251   -1.3826 H   0  0  0  0  0  0  0  0  0  0  0  0
    4.5553   -3.7101    0.1806 H   0  0  0  0  0  0  0  0  0  0  0  0
    5.5218    3.5275   -0.0661 H   0  0  0  0  0  0  0  0  0  0  0  0
    5.9633    3.3780    1.6691 H   0  0  0  0  0  0  0  0  0  0  0  0
    4.2570    3.1484    1.2283 H   0  0  0  0  0  0  0  0  0  0  0  0
    2.8952    1.7341   -0.0848 H   0  0  0  0  0  0  0  0  0  0  0  0
    0.2338   -1.5815    0.2012 H   0  0  0  0  0  0  0  0  0  0  0  0
   -0.4590   -1.3207    2.2732 H   0  0  0  0  0  0  0  0  0  0  0  0
   -0.6704    0.0102    4.3545 H   0  0  0  0  0  0  0  0  0  0  0  0
    0.3253    3.5459    2.1492 H   0  0  0  0  0  0  0  0  0  0  0  0
    0.5179    2.1423    0.1047 H   0  0  0  0  0  0  0  0  0  0  0  0
  1  2  1  0
  2  3  2  0
  3  4  1  0
  4  5  1  0
  5  6  1  0
  6  7  1  0
  7  8  1  0
  8  9  1  0
  8 10  1  0
 10 11  2  0
  4 12  1  0
 12 13  2  0
 13 14  1  0
 14 15  2  0
 14 16  1  0
 16 17  1  0
 17 18  1  0
 18 19  2  0
 19 20  1  0
 19 21  1  0
 21 22  2  0
 22 23  1  0
 23 24  2  0
 24 25  1  0
 24 26  1  0
 26 27  1  0
 16 28  1  0
 28 29  1  0
 29 30  2  0
 30 31  1  0
 31 32  2  0
 32 33  1  0
 32 34  1  0
 34 35  2  0
 13  2  1  0
 27 17  2  0
 35 29  1  0
 10  5  1  0
 28 12  1  0
 26 21  1  0
  1 36  1  0
  1 37  1  0
  1 38  1  0
  3 39  1  0
  5 40  1  0
  6 41  1  0
  6 42  1  0
  7 43  1  0
  7 44  1  0
  9 45  1  0
  9 46  1  0
  9 47  1  0
 18 48  1  0
 20 49  1  0
 20 50  1  0
 20 51  1  0
 25 52  1  0
 25 53  1  0
 25 54  1  0
 27 55  1  0
 28 56  1  0
 30 57  1  0
 31 58  1  0
 34 59  1  0
 35 60  1  0
M  END
$$$$
