@<TRIPOS>MOLECULE
*****
 60 65 0 0 0
SMALL
GASTEIGER

@<TRIPOS>ATOM
      1 C          -1.6740    0.3535   -4.5634 C.3     1  UNL1       -0.0376
      2 C          -1.6811    0.0316   -3.1180 C.ar    1  UNL1       -0.0205
      3 C          -2.7602   -0.2144   -2.3084 C.ar    1  UNL1        0.0094
      4 N          -2.3693   -0.4692   -1.0550 N.ar    1  UNL1       -0.3358
      5 C          -3.2182   -0.7754    0.0882 C.3     1  UNL1        0.1117
      6 C          -3.8064    0.4882    0.6839 C.3     1  UNL1       -0.0077
      7 C          -5.0633   -0.0012    1.3281 C.3     1  UNL1        0.0168
      8 N          -5.4957   -1.1112    0.4658 N.am    1  UNL1       -0.3028
      9 C          -6.8714   -1.5706    0.4678 C.3     1  UNL1        0.0032
     10 C          -4.3809   -1.5718   -0.2803 C.2     1  UNL1        0.2383
     11 O          -4.4191   -2.5049   -1.1068 O.2     1  UNL1       -0.2733
     12 C          -1.0018   -0.3868   -1.0496 C.ar    1  UNL1        0.0574
     13 C          -0.5510   -0.0809   -2.3026 C.ar    1  UNL1        0.0630
     14 C           0.9046   -0.0015   -2.2857 C.2     1  UNL1        0.2538
     15 O           1.6373    0.2648   -3.2859 O.2     1  UNL1       -0.2695
     16 N           1.3012   -0.2772   -0.9561 N.am    1  UNL1       -0.2530
     17 C           2.6949   -0.3145   -0.5491 C.ar    1  UNL1        0.0545
     18 C           3.3114   -1.5418   -0.6131 C.ar    1  UNL1       -0.0324
     19 C           4.6360   -1.6655   -0.2488 C.ar    1  UNL1       -0.0041
     20 C           5.2667   -2.9997   -0.3299 C.3     1  UNL1       -0.0361
     21 C           5.2884   -0.5278    0.1699 C.ar    1  UNL1        0.1641
     22 N           6.5473   -0.3577    0.5737 N.ar    1  UNL1       -0.1292
     23 N           6.7469    0.8947    0.8823 N.ar    1  UNL1       -0.1340
     24 C           5.5858    1.5413    0.6703 C.ar    1  UNL1        0.1347
     25 C           5.2937    2.9917    0.8741 C.3     1  UNL1       -0.0041
     26 N           4.6577    0.6720    0.2242 N.ar    1  UNL1       -0.2846
     27 C           3.3761    0.7825   -0.1302 C.ar    1  UNL1        0.0344
     28 C           0.1521   -0.5069   -0.1649 C.3     1  UNL1        0.0973
     29 C           0.0460    0.3367    1.0496 C.ar    1  UNL1       -0.0208
     30 C          -0.2870   -0.2365    2.2591 C.ar    1  UNL1       -0.0550
     31 C          -0.4073    0.4929    3.4217 C.ar    1  UNL1       -0.0431
     32 C          -0.1902    1.8542    3.3986 C.ar    1  UNL1        0.0410
     33 CL         -0.3315    2.8161    4.8456 Cl      1  UNL1       -0.0835
     34 C           0.1449    2.4598    2.2035 C.ar    1  UNL1       -0.0431
     35 C           0.2570    1.6998    1.0577 C.ar    1  UNL1       -0.0550
     36 H          -0.6583    0.4316   -4.9471 H       1  UNL1        0.0278
     37 H          -2.2290   -0.4191   -5.1501 H       1  UNL1        0.0278
     38 H          -2.2101    1.3221   -4.7545 H       1  UNL1        0.0278
     39 H          -3.8010   -0.1997   -2.6601 H       1  UNL1        0.0812
     40 H          -2.6265   -1.2647    0.8868 H       1  UNL1        0.0624
     41 H          -3.9803    1.2741   -0.0795 H       1  UNL1        0.0305
     42 H          -3.1084    0.8667    1.4473 H       1  UNL1        0.0305
     43 H          -5.8161    0.8113    1.3185 H       1  UNL1        0.0465
     44 H          -4.8200   -0.3695    2.3396 H       1  UNL1        0.0465
     45 H          -7.4911   -0.8176   -0.0192 H       1  UNL1        0.0428
     46 H          -6.9040   -2.5724   -0.0076 H       1  UNL1        0.0428
     47 H          -7.2374   -1.7118    1.5175 H       1  UNL1        0.0428
     48 H           2.7746   -2.4409   -0.9503 H       1  UNL1        0.0640
     49 H           6.2733   -3.0238    0.1149 H       1  UNL1        0.0279
     50 H           5.3543   -3.3251   -1.3826 H       1  UNL1        0.0279
     51 H           4.5553   -3.7101    0.1806 H       1  UNL1        0.0279
     52 H           5.5218    3.5275   -0.0661 H       1  UNL1        0.0308
     53 H           5.9633    3.3780    1.6691 H       1  UNL1        0.0308
     54 H           4.2570    3.1484    1.2283 H       1  UNL1        0.0308
     55 H           2.8952    1.7341   -0.0848 H       1  UNL1        0.0833
     56 H           0.2338   -1.5815    0.2012 H       1  UNL1        0.0619
     57 H          -0.4590   -1.3207    2.2732 H       1  UNL1        0.0621
     58 H          -0.6704    0.0102    4.3545 H       1  UNL1        0.0632
     59 H           0.3253    3.5459    2.1492 H       1  UNL1        0.0632
     60 H           0.5179    2.1423    0.1047 H       1  UNL1        0.0621
@<TRIPOS>BOND
     1     1     2    1
     2     2     3   ar
     3     3     4   ar
     4     4     5    1
     5     5     6    1
     6     6     7    1
     7     7     8    1
     8     8     9    1
     9     8    10   am
    10    10    11    2
    11     4    12   ar
    12    12    13   ar
    13    13    14    1
    14    14    15    2
    15    14    16   am
    16    16    17    1
    17    17    18   ar
    18    18    19   ar
    19    19    20    1
    20    19    21   ar
    21    21    22   ar
    22    22    23   ar
    23    23    24   ar
    24    24    25    1
    25    24    26   ar
    26    26    27   ar
    27    16    28    1
    28    28    29    1
    29    29    30   ar
    30    30    31   ar
    31    31    32   ar
    32    32    33    1
    33    32    34   ar
    34    34    35   ar
    35    13     2   ar
    36    27    17   ar
    37    35    29   ar
    38    10     5    1
    39    28    12    1
    40    26    21   ar
    41     1    36    1
    42     1    37    1
    43     1    38    1
    44     3    39    1
    45     5    40    1
    46     6    41    1
    47     6    42    1
    48     7    43    1
    49     7    44    1
    50     9    45    1
    51     9    46    1
    52     9    47    1
    53    18    48    1
    54    20    49    1
    55    20    50    1
    56    20    51    1
    57    25    52    1
    58    25    53    1
    59    25    54    1
    60    27    55    1
    61    28    56    1
    62    30    57    1
    63    31    58    1
    64    34    59    1
    65    35    60    1
