@<TRIPOS>MOLECULE
*****
 51 56 0 0 0
SMALL
GASTEIGER

@<TRIPOS>ATOM
      1 N          -6.2885    1.1424   -4.4209 N.pl3   1  UNL1       -0.3275
      2 C          -5.5862    0.9021   -3.2214 C.ar    1  UNL1        0.2131
      3 N          -4.7192    1.8055   -2.7328 N.ar    1  UNL1       -0.2225
      4 C          -4.0554    1.5654   -1.5883 C.ar    1  UNL1        0.0404
      5 C          -4.2435    0.3981   -0.8911 C.ar    1  UNL1        0.0192
      6 C          -3.6028    0.0838    0.2816 C.ar    1  UNL1       -0.0417
      7 C          -3.7885   -1.0780    0.9775 C.ar    1  UNL1        0.0063
      8 C          -3.0715   -1.3404    2.2160 C.ar    1  UNL1        0.1323
      9 N          -3.7475   -1.8394    3.2726 N.ar    1  UNL1       -0.2481
     10 C          -3.1392   -2.1035    4.4469 C.ar    1  UNL1        0.0466
     11 C          -1.7906   -1.8672    4.6014 C.ar    1  UNL1        0.0495
     12 N          -1.0979   -1.3706    3.5626 N.ar    1  UNL1       -0.2180
     13 C          -1.7263   -1.1137    2.3969 C.ar    1  UNL1        0.2419
     14 O          -0.9891   -0.6064    1.3544 O.3     1  UNL1       -0.4685
     15 C           0.3967   -0.3453    1.4579 C.3     1  UNL1        0.1330
     16 C           0.8303    0.9972    0.9122 C.3     1  UNL1        0.0522
     17 N           1.9709    0.3514    0.3331 N.pl3   1  UNL1       -0.3080
     18 C           3.2950    0.7285   -0.0733 C.ar    1  UNL1        0.1221
     19 C           3.7542    2.0058    0.0555 C.ar    1  UNL1       -0.0211
     20 C           5.0345    2.3730   -0.3369 C.ar    1  UNL1       -0.0493
     21 C           5.8681    1.4161   -0.8738 C.ar    1  UNL1        0.0005
     22 C           7.1464    1.7535   -1.2724 C.ar    1  UNL1       -0.0526
     23 C           7.9520    0.7661   -1.8059 C.ar    1  UNL1       -0.0611
     24 C           7.4963   -0.5318   -1.9409 C.ar    1  UNL1       -0.0597
     25 C           6.2159   -0.8406   -1.5348 C.ar    1  UNL1       -0.0357
     26 C           5.3927    0.1278   -0.9992 C.ar    1  UNL1        0.0731
     27 N           4.1262   -0.1870   -0.5996 N.ar    1  UNL1       -0.2320
     28 C           1.2278   -0.8925    0.3178 C.3     1  UNL1        0.0522
     29 C          -4.6944   -2.0026    0.4510 C.ar    1  UNL1       -0.0504
     30 C          -5.3608   -1.7272   -0.7263 C.ar    1  UNL1       -0.0350
     31 C          -5.1443   -0.5442   -1.3959 C.ar    1  UNL1        0.0761
     32 N          -5.7766   -0.2425   -2.5463 N.ar    1  UNL1       -0.2147
     33 H          -6.9160    1.9433   -4.5989 H       1  UNL1        0.1452
     34 H          -6.1483    0.4294   -5.1951 H       1  UNL1        0.1452
     35 H          -3.3676    2.2977   -1.2135 H       1  UNL1        0.0837
     36 H          -2.9065    0.8068    0.6762 H       1  UNL1        0.0631
     37 H          -3.6913   -2.5024    5.2843 H       1  UNL1        0.0845
     38 H          -1.3206   -2.0851    5.5499 H       1  UNL1        0.0846
     39 H           0.8444   -0.5754    2.4272 H       1  UNL1        0.0765
     40 H           0.0708    1.3634    0.1841 H       1  UNL1        0.0501
     41 H           1.0524    1.7657    1.6782 H       1  UNL1        0.0501
     42 H           3.1045    2.7673    0.4776 H       1  UNL1        0.0652
     43 H           5.4158    3.3671   -0.2456 H       1  UNL1        0.0625
     44 H           7.4769    2.7761   -1.1554 H       1  UNL1        0.0624
     45 H           8.9481    1.0604   -2.1091 H       1  UNL1        0.0618
     46 H           8.1525   -1.2941   -2.3656 H       1  UNL1        0.0618
     47 H           5.8151   -1.8300   -1.6178 H       1  UNL1        0.0639
     48 H           0.6830   -0.9822   -0.6443 H       1  UNL1        0.0501
     49 H           1.8621   -1.7510    0.5869 H       1  UNL1        0.0501
     50 H          -4.8844   -2.9286    0.9457 H       1  UNL1        0.0625
     51 H          -6.0758   -2.4121   -1.1791 H       1  UNL1        0.0639
@<TRIPOS>BOND
     1     1     2    1
     2     2     3   ar
     3     3     4   ar
     4     4     5   ar
     5     5     6   ar
     6     6     7   ar
     7     7     8    1
     8     8     9   ar
     9     9    10   ar
    10    10    11   ar
    11    11    12   ar
    12    12    13   ar
    13    13    14    1
    14    14    15    1
    15    15    16    1
    16    16    17    1
    17    17    18    1
    18    18    19   ar
    19    19    20   ar
    20    20    21   ar
    21    21    22   ar
    22    22    23   ar
    23    23    24   ar
    24    24    25   ar
    25    25    26   ar
    26    26    27   ar
    27    17    28    1
    28     7    29   ar
    29    29    30   ar
    30    30    31   ar
    31    31    32   ar
    32    32     2   ar
    33    31     5   ar
    34    13     8   ar
    35    28    15    1
    36    27    18   ar
    37    26    21   ar
    38     1    33    1
    39     1    34    1
    40     4    35    1
    41     6    36    1
    42    10    37    1
    43    11    38    1
    44    15    39    1
    45    16    40    1
    46    16    41    1
    47    19    42    1
    48    20    43    1
    49    22    44    1
    50    23    45    1
    51    24    46    1
    52    25    47    1
    53    28    48    1
    54    28    49    1
    55    29    50    1
    56    30    51    1
