
     RDKit          3D

 56 60  0  0  0  0  0  0  0  0999 V2000
   -1.5505   -2.4445    0.5336 O   0  0  0  0  0  0  0  0  0  0  0  0
   -2.1522   -1.3223    0.6996 C   0  0  0  0  0  0  0  0  0  0  0  0
   -3.4667   -1.1167    0.0640 C   0  0  0  0  0  0  0  0  0  0  0  0
   -4.1411   -0.0034    0.1872 C   0  0  0  0  0  0  0  0  0  0  0  0
   -5.4134    0.3656   -0.3419 C   0  0  0  0  0  0  0  0  0  0  0  0
   -5.7649    1.7115   -0.5545 C   0  0  0  0  0  0  0  0  0  0  0  0
   -4.9085    2.8576   -0.3560 C   0  0  0  0  0  0  0  0  0  0  0  0
   -3.7227    2.7660    0.0398 O   0  0  0  0  0  0  0  0  0  0  0  0
   -5.4495    4.1376   -0.6258 O   0  0  0  0  0  0  0  0  0  0  0  0
   -7.0216    1.7783   -0.9835 N   0  0  0  0  0  0  0  0  0  0  0  0
   -7.5290    0.5598   -1.0685 C   0  0  0  0  0  0  0  0  0  0  0  0
   -8.7615    0.1231   -1.4305 C   0  0  0  0  0  0  0  0  0  0  0  0
   -9.0662   -1.2331   -1.4077 C   0  0  0  0  0  0  0  0  0  0  0  0
  -10.2994   -1.6449   -1.7735 F   0  0  0  0  0  0  0  0  0  0  0  0
   -8.0921   -2.1227   -1.0092 C   0  0  0  0  0  0  0  0  0  0  0  0
   -6.8291   -1.7019   -0.6365 C   0  0  0  0  0  0  0  0  0  0  0  0
   -5.9457   -2.6172   -0.1959 F   0  0  0  0  0  0  0  0  0  0  0  0
   -6.5360   -0.3536   -0.6672 C   0  0  0  0  0  0  0  0  0  0  0  0
   -1.4625   -0.3922    1.4944 N   0  0  0  0  0  0  0  0  0  0  0  0
   -0.1774   -0.7130    2.0628 C   0  0  0  0  0  0  0  0  0  0  0  0
   -0.1344   -1.2960    3.3043 C   0  0  0  0  0  0  0  0  0  0  0  0
    1.0917   -1.6281    3.9024 C   0  0  0  0  0  0  0  0  0  0  0  0
    2.2645   -1.3566    3.2159 C   0  0  0  0  0  0  0  0  0  0  0  0
    2.2335   -0.7702    1.9659 C   0  0  0  0  0  0  0  0  0  0  0  0
    3.4935   -0.5118    1.2996 C   0  0  0  0  0  0  0  0  0  0  0  0
    3.6334    0.0406    0.1067 C   0  0  0  0  0  0  0  0  0  0  0  0
    4.9306    0.2738   -0.5093 C   0  0  0  0  0  0  0  0  0  0  0  0
    4.9889    0.8540   -1.7539 C   0  0  0  0  0  0  0  0  0  0  0  0
    6.2177    1.0960   -2.3824 C   0  0  0  0  0  0  0  0  0  0  0  0
    7.3816    0.7440   -1.7361 C   0  0  0  0  0  0  0  0  0  0  0  0
    8.6087    0.9655   -2.3207 C   0  0  0  0  0  0  0  0  0  0  0  0
    9.7841    0.6203   -1.6900 C   0  0  0  0  0  0  0  0  0  0  0  0
    9.7016    0.0409   -0.4448 C   0  0  0  0  0  0  0  0  0  0  0  0
   11.1778   -0.4089    0.3819 Cl  0  0  0  0  0  0  0  0  0  0  0  0
    8.4679   -0.1719    0.1216 C   0  0  0  0  0  0  0  0  0  0  0  0
    7.2845    0.1663   -0.4932 C   0  0  0  0  0  0  0  0  0  0  0  0
    6.0724   -0.0573    0.0943 N   0  0  0  0  0  0  0  0  0  0  0  0
    1.0155   -0.4653    1.4253 C   0  0  0  0  0  0  0  0  0  0  0  0
   -3.8559   -1.8971   -0.5803 H   0  0  0  0  0  0  0  0  0  0  0  0
   -3.5918    0.7297    0.8493 H   0  0  0  0  0  0  0  0  0  0  0  0
   -4.8391    4.9346   -0.4845 H   0  0  0  0  0  0  0  0  0  0  0  0
   -7.5545    2.6522   -1.2255 H   0  0  0  0  0  0  0  0  0  0  0  0
   -9.5113    0.8404   -1.7392 H   0  0  0  0  0  0  0  0  0  0  0  0
   -8.2855   -3.2012   -0.9735 H   0  0  0  0  0  0  0  0  0  0  0  0
   -1.8922    0.5499    1.6748 H   0  0  0  0  0  0  0  0  0  0  0  0
   -1.0145   -1.5165    3.8553 H   0  0  0  0  0  0  0  0  0  0  0  0
    1.0910   -2.0852    4.8790 H   0  0  0  0  0  0  0  0  0  0  0  0
    3.2377   -1.6079    3.6642 H   0  0  0  0  0  0  0  0  0  0  0  0
    4.4345   -0.7809    1.7889 H   0  0  0  0  0  0  0  0  0  0  0  0
    2.7315    0.3231   -0.4148 H   0  0  0  0  0  0  0  0  0  0  0  0
    4.1164    1.1543   -2.3161 H   0  0  0  0  0  0  0  0  0  0  0  0
    6.2404    1.5505   -3.3552 H   0  0  0  0  0  0  0  0  0  0  0  0
    8.6592    1.4257   -3.3083 H   0  0  0  0  0  0  0  0  0  0  0  0
   10.7515    0.8027   -2.1674 H   0  0  0  0  0  0  0  0  0  0  0  0
    8.3964   -0.6322    1.1114 H   0  0  0  0  0  0  0  0  0  0  0  0
    0.9630   -0.0116    0.4607 H   0  0  0  0  0  0  0  0  0  0  0  0
  1  2  2  0
  2  3  1  0
  3  4  2  0
  4  5  1  0
  5  6  2  0
  6  7  1  0
  7  8  2  0
  7  9  1  0
  6 10  1  0
 10 11  1  0
 11 12  2  0
 12 13  1  0
 13 14  1  0
 13 15  2  0
 15 16  1  0
 16 17  1  0
 16 18  2  0
  2 19  1  0
 19 20  1  0
 20 21  2  0
 21 22  1  0
 22 23  2  0
 23 24  1  0
 24 25  1  0
 25 26  2  0
 26 27  1  0
 27 28  2  0
 28 29  1  0
 29 30  2  0
 30 31  1  0
 31 32  2  0
 32 33  1  0
 33 34  1  0
 33 35  2  0
 35 36  1  0
 36 37  2  0
 24 38  2  0
 18  5  1  0
 38 20  1  0
 18 11  1  0
 37 27  1  0
 36 30  1  0
  3 39  1  0
  4 40  1  0
  9 41  1  0
 10 42  1  0
 12 43  1  0
 15 44  1  0
 19 45  1  0
 21 46  1  0
 22 47  1  0
 23 48  1  0
 25 49  1  0
 26 50  1  0
 28 51  1  0
 29 52  1  0
 31 53  1  0
 32 54  1  0
 35 55  1  0
 38 56  1  0
M  END
$$$$
