@<TRIPOS>MOLECULE
*****
 56 60 0 0 0
SMALL
GASTEIGER

@<TRIPOS>ATOM
      1 O          -1.5505   -2.4445    0.5336 O.2     1  UNL1       -0.2705
      2 C          -2.1522   -1.3223    0.6996 C.2     1  UNL1        0.2411
      3 C          -3.4667   -1.1167    0.0640 C.2     1  UNL1        0.0011
      4 C          -4.1411   -0.0034    0.1872 C.2     1  UNL1       -0.0468
      5 C          -5.4134    0.3656   -0.3419 C.ar    1  UNL1        0.0173
      6 CA         -5.7649    1.7115   -0.5545 C.ar    1  UNL1        0.1325
      7 C          -4.9085    2.8576   -0.3560 C.2     1  UNL1        0.3539
      8 O          -3.7227    2.7660    0.0398 O.2     1  UNL1       -0.2435
      9 OXT        -5.4495    4.1376   -0.6258 O.3     1  UNL1       -0.4761
     10 N          -7.0216    1.7783   -0.9835 N.ar    1  UNL1       -0.3484
     11 C          -7.5290    0.5598   -1.0685 C.ar    1  UNL1        0.0531
     12 C          -8.7615    0.1231   -1.4305 C.ar    1  UNL1       -0.0023
     13 C          -9.0662   -1.2331   -1.4077 C.ar    1  UNL1        0.1281
     14 F         -10.2994   -1.6449   -1.7735 F       1  UNL1       -0.2053
     15 C          -8.0921   -2.1227   -1.0092 C.ar    1  UNL1        0.0095
     16 C          -6.8291   -1.7019   -0.6365 C.ar    1  UNL1        0.1358
     17 F          -5.9457   -2.6172   -0.1959 F       1  UNL1       -0.2047
     18 C          -6.5360   -0.3536   -0.6672 C.ar    1  UNL1        0.0430
     19 N          -1.4625   -0.3922    1.4944 N.am    1  UNL1       -0.2820
     20 C          -0.1774   -0.7130    2.0628 C.ar    1  UNL1        0.0342
     21 C          -0.1344   -1.2960    3.3043 C.ar    1  UNL1       -0.0404
     22 C           1.0917   -1.6281    3.9024 C.ar    1  UNL1       -0.0595
     23 C           2.2645   -1.3566    3.2159 C.ar    1  UNL1       -0.0545
     24 C           2.2335   -0.7702    1.9659 C.ar    1  UNL1       -0.0232
     25 C           3.4935   -0.5118    1.2996 C.2     1  UNL1       -0.0525
     26 C           3.6334    0.0406    0.1067 C.2     1  UNL1       -0.0357
     27 C           4.9306    0.2738   -0.5093 C.ar    1  UNL1        0.0646
     28 C           4.9889    0.8540   -1.7539 C.ar    1  UNL1       -0.0357
     29 C           6.2177    1.0960   -2.3824 C.ar    1  UNL1       -0.0506
     30 C           7.3816    0.7440   -1.7361 C.ar    1  UNL1        0.0005
     31 C           8.6087    0.9655   -2.3207 C.ar    1  UNL1       -0.0512
     32 C           9.7841    0.6203   -1.6900 C.ar    1  UNL1       -0.0427
     33 C           9.7016    0.0409   -0.4448 C.ar    1  UNL1        0.0430
     34 CL         11.1778   -0.4089    0.3819 Cl      1  UNL1       -0.0835
     35 C           8.4679   -0.1719    0.1216 C.ar    1  UNL1       -0.0174
     36 C           7.2845    0.1663   -0.4932 C.ar    1  UNL1        0.0730
     37 N           6.0724   -0.0573    0.0943 N.ar    1  UNL1       -0.2472
     38 C           1.0155   -0.4653    1.4253 C.ar    1  UNL1       -0.0333
     39 H          -3.8559   -1.8971   -0.5803 H       1  UNL1        0.0670
     40 H          -3.5918    0.7297    0.8493 H       1  UNL1        0.0626
     41 HXT        -4.8391    4.9346   -0.4845 H       1  UNL1        0.2955
     42 H          -7.5545    2.6522   -1.2255 H       1  UNL1        0.1661
     43 H          -9.5113    0.8404   -1.7392 H       1  UNL1        0.0667
     44 H          -8.2855   -3.2012   -0.9735 H       1  UNL1        0.0675
     45 H          -1.8922    0.5499    1.6748 H       1  UNL1        0.1551
     46 H          -1.0145   -1.5165    3.8553 H       1  UNL1        0.0636
     47 H           1.0910   -2.0852    4.8790 H       1  UNL1        0.0618
     48 H           3.2377   -1.6079    3.6642 H       1  UNL1        0.0623
     49 H           4.4345   -0.7809    1.7889 H       1  UNL1        0.0624
     50 H           2.7315    0.3231   -0.4148 H       1  UNL1        0.0639
     51 H           4.1164    1.1543   -2.3161 H       1  UNL1        0.0639
     52 H           6.2404    1.5505   -3.3552 H       1  UNL1        0.0625
     53 H           8.6592    1.4257   -3.3083 H       1  UNL1        0.0625
     54 H          10.7515    0.8027   -2.1674 H       1  UNL1        0.0632
     55 H           8.3964   -0.6322    1.1114 H       1  UNL1        0.0653
     56 H           0.9630   -0.0116    0.4607 H       1  UNL1        0.0642
@<TRIPOS>BOND
     1     1     2    2
     2     2     3    1
     3     3     4    2
     4     4     5    1
     5     5     6   ar
     6     6     7    1
     7     7     8    2
     8     7     9    1
     9     6    10   ar
    10    10    11   ar
    11    11    12   ar
    12    12    13   ar
    13    13    14    1
    14    13    15   ar
    15    15    16   ar
    16    16    17    1
    17    16    18   ar
    18     2    19   am
    19    19    20    1
    20    20    21   ar
    21    21    22   ar
    22    22    23   ar
    23    23    24   ar
    24    24    25    1
    25    25    26    2
    26    26    27    1
    27    27    28   ar
    28    28    29   ar
    29    29    30   ar
    30    30    31   ar
    31    31    32   ar
    32    32    33   ar
    33    33    34    1
    34    33    35   ar
    35    35    36   ar
    36    36    37   ar
    37    24    38   ar
    38    18     5   ar
    39    38    20   ar
    40    18    11   ar
    41    37    27   ar
    42    36    30   ar
    43     3    39    1
    44     4    40    1
    45     9    41    1
    46    10    42    1
    47    12    43    1
    48    15    44    1
    49    19    45    1
    50    21    46    1
    51    22    47    1
    52    23    48    1
    53    25    49    1
    54    26    50    1
    55    28    51    1
    56    29    52    1
    57    31    53    1
    58    32    54    1
    59    35    55    1
    60    38    56    1
