@<TRIPOS>MOLECULE
*****
 34 35 0 0 0
SMALL
GASTEIGER

@<TRIPOS>ATOM
      1 N           4.8165   -1.8508    1.1414 N.am    1  UNL1       -0.3286
      2 C           3.8064   -0.8548    0.9832 C.2     1  UNL1        0.2228
      3 O           4.2601    0.1131    1.6629 O.2     1  UNL1       -0.2750
      4 C           2.5822   -1.1372    0.1511 C.3     1  UNL1        0.1004
      5 S           1.5730    0.2961    0.1815 S.O     1  UNL1        0.0429
      6 O           1.6994    1.1963    1.3492 O.2     1  UNL1       -0.2558
      7 C           0.0704    0.2674   -0.7032 C.3     1  UNL1        0.0851
      8 C          -0.6372    1.5650   -0.5549 C.ar    1  UNL1       -0.0277
      9 C          -0.8823    2.2174    0.6318 C.ar    1  UNL1       -0.0571
     10 C          -1.5366    3.4176    0.7299 C.ar    1  UNL1       -0.0615
     11 C          -1.9927    4.0446   -0.3895 C.ar    1  UNL1       -0.0617
     12 C          -1.7941    3.4669   -1.6261 C.ar    1  UNL1       -0.0615
     13 C          -1.1334    2.2666   -1.6609 C.ar    1  UNL1       -0.0571
     14 C          -0.8192   -0.8945   -0.4617 C.ar    1  UNL1       -0.0277
     15 C          -0.8335   -1.2908    0.8789 C.ar    1  UNL1       -0.0571
     16 C          -1.6031   -2.3539    1.2933 C.ar    1  UNL1       -0.0615
     17 C          -2.3778   -3.0485    0.3803 C.ar    1  UNL1       -0.0617
     18 C          -2.3605   -2.6553   -0.9367 C.ar    1  UNL1       -0.0615
     19 C          -1.5959   -1.5943   -1.3650 C.ar    1  UNL1       -0.0571
     20 H           5.2842   -2.4224    1.8991 H       1  UNL1        0.1450
     21 H           5.3180   -2.1944    0.2856 H       1  UNL1        0.1450
     22 H           2.9537   -1.3058   -0.8798 H       1  UNL1        0.0496
     23 H           2.0907   -2.0600    0.5224 H       1  UNL1        0.0496
     24 H           0.3354    0.2003   -1.8017 H       1  UNL1        0.0535
     25 H          -0.5400    1.7527    1.5449 H       1  UNL1        0.0621
     26 H          -1.6996    3.8856    1.7108 H       1  UNL1        0.0618
     27 H          -2.5140    4.9910   -0.3669 H       1  UNL1        0.0618
     28 H          -2.1351    3.9207   -2.5468 H       1  UNL1        0.0618
     29 H          -0.9820    1.8178   -2.6515 H       1  UNL1        0.0621
     30 H          -0.2691   -0.8185    1.6636 H       1  UNL1        0.0621
     31 H          -1.6348   -2.6820    2.3168 H       1  UNL1        0.0618
     32 H          -2.9903   -3.8892    0.6909 H       1  UNL1        0.0618
     33 H          -2.9449   -3.1598   -1.6941 H       1  UNL1        0.0618
     34 H          -1.5140   -1.2071   -2.3791 H       1  UNL1        0.0621
@<TRIPOS>BOND
     1     1     2   am
     2     2     3    2
     3     2     4    1
     4     4     5    1
     5     5     6    2
     6     5     7    1
     7     7     8    1
     8     8     9   ar
     9     9    10   ar
    10    10    11   ar
    11    11    12   ar
    12    12    13   ar
    13     7    14    1
    14    14    15   ar
    15    15    16   ar
    16    16    17   ar
    17    17    18   ar
    18    18    19   ar
    19    13     8   ar
    20    19    14   ar
    21     1    20    1
    22     1    21    1
    23     4    22    1
    24     4    23    1
    25     7    24    1
    26     9    25    1
    27    10    26    1
    28    11    27    1
    29    12    28    1
    30    13    29    1
    31    15    30    1
    32    16    31    1
    33    17    32    1
    34    18    33    1
    35    19    34    1
