
     RDKit          3D

 95 97  0  0  0  0  0  0  0  0999 V2000
   -7.4267   -0.9631    4.8110 C   0  0  0  0  0  0  0  0  0  0  0  0
   -6.3296   -1.7584    4.0874 C   0  0  0  0  0  0  0  0  0  0  0  0
   -6.8597   -3.1395    3.8569 C   0  0  0  0  0  0  0  0  0  0  0  0
   -6.0340   -1.0361    2.7958 C   0  0  0  0  0  0  0  0  0  0  0  0
   -6.9934   -0.9028    1.8204 C   0  0  0  0  0  0  0  0  0  0  0  0
   -6.6971   -0.2221    0.6359 C   0  0  0  0  0  0  0  0  0  0  0  0
   -5.4660    0.3260    0.4083 C   0  0  0  0  0  0  0  0  0  0  0  0
   -4.5036    0.1885    1.3934 C   0  0  0  0  0  0  0  0  0  0  0  0
   -4.7928   -0.4841    2.5655 C   0  0  0  0  0  0  0  0  0  0  0  0
   -3.1900    0.8049    1.0889 C   0  0  1  0  0  0  0  0  0  0  0  0
   -2.4978    0.0185    0.0951 N   0  0  0  0  0  0  0  0  0  0  0  0
   -1.1367    0.4944   -0.1556 C   0  0  0  0  0  0  0  0  0  0  0  0
   -0.4581   -0.2506   -1.2163 C   0  0  1  0  0  0  0  0  0  0  0  0
   -1.0736   -0.1584   -2.4804 O   0  0  0  0  0  0  0  0  0  0  0  0
    0.9856   -0.1258   -1.3446 C   0  0  2  0  0  0  0  0  0  0  0  0
    1.5513    1.0960   -2.0434 C   0  0  0  0  0  0  0  0  0  0  0  0
    1.2884    2.4159   -1.4871 C   0  0  2  0  0  0  0  0  0  0  0  0
    2.0000    3.4358   -2.4217 C   0  0  0  0  0  0  0  0  0  0  0  0
    1.6087    2.7498   -0.1013 C   0  0  0  0  0  0  0  0  0  0  0  0
    2.9798    2.9259    0.3839 C   0  0  0  0  0  0  0  0  0  0  0  0
    3.9701    1.8229    0.1460 C   0  0  0  0  0  0  0  0  0  0  0  0
    5.1945    2.0231    1.0336 C   0  0  0  0  0  0  0  0  0  0  0  0
    6.2631    0.9849    0.8427 C   0  0  0  0  0  0  0  0  0  0  0  0
    5.6664   -0.3752    0.7268 C   0  0  0  0  0  0  0  0  0  0  0  0
    6.6119   -1.5436    0.8899 C   0  0  0  0  0  0  0  0  0  0  0  0
    5.7346   -2.7891    0.5102 C   0  0  0  0  0  0  0  0  0  0  0  0
    5.5762   -2.7378   -0.9344 C   0  0  0  0  0  0  0  0  0  0  0  0
    6.7807   -2.3586   -1.4462 O   0  0  0  0  0  0  0  0  0  0  0  0
    4.8162   -2.8809   -2.0542 N   0  0  0  0  0  0  0  0  0  0  0  0
    5.5531   -2.7372   -3.3781 C   0  0  0  0  0  0  0  0  0  0  0  0
    3.4536   -3.1512   -2.3040 C   0  0  1  0  0  0  0  0  0  0  0  0
    2.9749   -4.4948   -1.7935 C   0  0  0  0  0  0  0  0  0  0  0  0
    2.5778   -2.0224   -1.8383 C   0  0  0  0  0  0  0  0  0  0  0  0
    3.0204   -1.6148   -0.6700 O   0  0  0  0  0  0  0  0  0  0  0  0
    1.5153   -1.2891   -2.1911 N   0  0  0  0  0  0  0  0  0  0  0  0
   -3.4834    2.2205    0.6242 C   0  0  0  0  0  0  0  0  0  0  0  0
   -4.3289    2.2431   -0.6146 C   0  0  0  0  0  0  0  0  0  0  0  0
   -3.6099    2.5969   -1.8700 C   0  0  0  0  0  0  0  0  0  0  0  0
   -5.4046    3.3218   -0.4011 C   0  0  0  0  0  0  0  0  0  0  0  0
   -5.0858    1.0201   -0.7389 O   0  0  0  0  0  0  0  0  0  0  0  0
   -7.4605    0.0723    4.3668 H   0  0  0  0  0  0  0  0  0  0  0  0
   -8.4256   -1.3983    4.6090 H   0  0  0  0  0  0  0  0  0  0  0  0
   -7.2241   -0.8532    5.8848 H   0  0  0  0  0  0  0  0  0  0  0  0
   -5.4388   -1.7235    4.7125 H   0  0  0  0  0  0  0  0  0  0  0  0
   -6.8963   -3.6291    4.8661 H   0  0  0  0  0  0  0  0  0  0  0  0
   -7.8974   -3.1435    3.4703 H   0  0  0  0  0  0  0  0  0  0  0  0
   -6.2683   -3.7311    3.1279 H   0  0  0  0  0  0  0  0  0  0  0  0
   -7.9651   -1.3062    1.9409 H   0  0  0  0  0  0  0  0  0  0  0  0
   -7.4568   -0.1149   -0.1408 H   0  0  0  0  0  0  0  0  0  0  0  0
   -4.0063   -0.5771    3.3296 H   0  0  0  0  0  0  0  0  0  0  0  0
   -2.5355    0.8841    1.9757 H   0  0  0  0  0  0  0  0  0  0  0  0
   -3.0251   -0.1603   -0.7642 H   0  0  0  0  0  0  0  0  0  0  0  0
   -0.5712    0.3076    0.8088 H   0  0  0  0  0  0  0  0  0  0  0  0
   -1.1579    1.5712   -0.2652 H   0  0  0  0  0  0  0  0  0  0  0  0
   -0.6288   -1.3850   -0.9890 H   0  0  0  0  0  0  0  0  0  0  0  0
   -1.9312   -0.6444   -2.4757 H   0  0  0  0  0  0  0  0  0  0  0  0
    1.5102   -0.2096   -0.3942 H   0  0  0  0  0  0  0  0  0  0  0  0
    1.0847    1.0754   -3.0895 H   0  0  0  0  0  0  0  0  0  0  0  0
    2.6335    0.9535   -2.2615 H   0  0  0  0  0  0  0  0  0  0  0  0
    0.1944    2.6637   -1.6607 H   0  0  0  0  0  0  0  0  0  0  0  0
    2.2232    4.3645   -1.8834 H   0  0  0  0  0  0  0  0  0  0  0  0
    1.3629    3.6361   -3.2973 H   0  0  0  0  0  0  0  0  0  0  0  0
    2.9242    2.9473   -2.7762 H   0  0  0  0  0  0  0  0  0  0  0  0
    0.9940    2.1069    0.6250 H   0  0  0  0  0  0  0  0  0  0  0  0
    1.0861    3.7688    0.0895 H   0  0  0  0  0  0  0  0  0  0  0  0
    3.4294    3.9285    0.0528 H   0  0  0  0  0  0  0  0  0  0  0  0
    2.9875    3.0780    1.5184 H   0  0  0  0  0  0  0  0  0  0  0  0
    3.5343    0.8491    0.3969 H   0  0  0  0  0  0  0  0  0  0  0  0
    4.3315    1.7927   -0.9038 H   0  0  0  0  0  0  0  0  0  0  0  0
    5.6211    3.0128    0.7785 H   0  0  0  0  0  0  0  0  0  0  0  0
    4.8887    1.9804    2.1017 H   0  0  0  0  0  0  0  0  0  0  0  0
    6.9329    1.1991    0.0027 H   0  0  0  0  0  0  0  0  0  0  0  0
    6.8937    1.0034    1.7636 H   0  0  0  0  0  0  0  0  0  0  0  0
    5.2735   -0.4010   -0.3543 H   0  0  0  0  0  0  0  0  0  0  0  0
    4.7821   -0.5290    1.3545 H   0  0  0  0  0  0  0  0  0  0  0  0
    6.9048   -1.6942    1.9423 H   0  0  0  0  0  0  0  0  0  0  0  0
    7.4783   -1.4766    0.2276 H   0  0  0  0  0  0  0  0  0  0  0  0
    6.2335   -3.6968    0.8976 H   0  0  0  0  0  0  0  0  0  0  0  0
    4.8338   -2.6265    1.1102 H   0  0  0  0  0  0  0  0  0  0  0  0
    4.9814   -3.2040   -4.1924 H   0  0  0  0  0  0  0  0  0  0  0  0
    5.7099   -1.6904   -3.6093 H   0  0  0  0  0  0  0  0  0  0  0  0
    6.4861   -3.3641   -3.3395 H   0  0  0  0  0  0  0  0  0  0  0  0
    3.2544   -3.2319   -3.4165 H   0  0  0  0  0  0  0  0  0  0  0  0
    2.1788   -4.4094   -1.0293 H   0  0  0  0  0  0  0  0  0  0  0  0
    3.8622   -4.9048   -1.2159 H   0  0  0  0  0  0  0  0  0  0  0  0
    2.7078   -5.2098   -2.5638 H   0  0  0  0  0  0  0  0  0  0  0  0
    0.8928   -1.3177   -2.9700 H   0  0  0  0  0  0  0  0  0  0  0  0
   -2.5326    2.7697    0.5545 H   0  0  0  0  0  0  0  0  0  0  0  0
   -4.0238    2.7101    1.4892 H   0  0  0  0  0  0  0  0  0  0  0  0
   -3.0541    1.7838   -2.3474 H   0  0  0  0  0  0  0  0  0  0  0  0
   -4.4048    2.9109   -2.6067 H   0  0  0  0  0  0  0  0  0  0  0  0
   -3.0127    3.4936   -1.6831 H   0  0  0  0  0  0  0  0  0  0  0  0
   -5.7625    3.1858    0.6406 H   0  0  0  0  0  0  0  0  0  0  0  0
   -5.0139    4.3270   -0.5777 H   0  0  0  0  0  0  0  0  0  0  0  0
   -6.2694    3.0603   -1.0619 H   0  0  0  0  0  0  0  0  0  0  0  0
  1  2  1  0
  2  3  1  0
  2  4  1  0
  4  5  2  0
  5  6  1  0
  6  7  2  0
  7  8  1  0
  8  9  2  0
  8 10  1  0
 10 11  1  0
 11 12  1  0
 12 13  1  0
 13 14  1  0
 13 15  1  0
 15 16  1  0
 16 17  1  0
 17 18  1  0
 17 19  1  0
 19 20  1  0
 20 21  1  0
 21 22  1  0
 22 23  1  0
 23 24  1  0
 24 25  1  0
 25 26  1  0
 26 27  1  0
 27 28  2  0
 27 29  1  0
 29 30  1  0
 29 31  1  0
 31 32  1  0
 31 33  1  0
 33 34  2  0
 33 35  1  0
 10 36  1  0
 36 37  1  0
 37 38  1  0
 37 39  1  0
 37 40  1  0
  9  4  1  0
 35 15  1  0
 40  7  1  0
  1 41  1  0
  1 42  1  0
  1 43  1  0
  2 44  1  0
  3 45  1  0
  3 46  1  0
  3 47  1  0
  5 48  1  0
  6 49  1  0
  9 50  1  0
 10 51  1  1
 11 52  1  0
 12 53  1  0
 12 54  1  0
 13 55  1  1
 14 56  1  0
 15 57  1  1
 16 58  1  0
 16 59  1  0
 17 60  1  1
 18 61  1  0
 18 62  1  0
 18 63  1  0
 19 64  1  0
 19 65  1  0
 20 66  1  0
 20 67  1  0
 21 68  1  0
 21 69  1  0
 22 70  1  0
 22 71  1  0
 23 72  1  0
 23 73  1  0
 24 74  1  0
 24 75  1  0
 25 76  1  0
 25 77  1  0
 26 78  1  0
 26 79  1  0
 30 80  1  0
 30 81  1  0
 30 82  1  0
 31 83  1  6
 32 84  1  0
 32 85  1  0
 32 86  1  0
 35 87  1  0
 36 88  1  0
 36 89  1  0
 38 90  1  0
 38 91  1  0
 38 92  1  0
 39 93  1  0
 39 94  1  0
 39 95  1  0
M  END
$$$$
