@<TRIPOS>MOLECULE
*****
 95 97 0 0 0
SMALL
GASTEIGER

@<TRIPOS>ATOM
      1 C          -7.4267   -0.9631    4.8110 C.3     1  UNL1       -0.0586
      2 C          -6.3296   -1.7584    4.0874 C.3     1  UNL1       -0.0215
      3 C          -6.8597   -3.1395    3.8569 C.3     1  UNL1       -0.0586
      4 C          -6.0340   -1.0361    2.7958 C.ar    1  UNL1       -0.0443
      5 C          -6.9934   -0.9028    1.8204 C.ar    1  UNL1       -0.0549
      6 C          -6.6971   -0.2221    0.6359 C.ar    1  UNL1       -0.0193
      7 C          -5.4660    0.3260    0.4083 C.ar    1  UNL1        0.1260
      8 C          -4.5036    0.1885    1.3934 C.ar    1  UNL1        0.0115
      9 C          -4.7928   -0.4841    2.5655 C.ar    1  UNL1       -0.0502
     10 C          -3.1900    0.8049    1.0889 C.3     1  UNL1        0.0400
     11 N          -2.4978    0.0185    0.0951 N.3     1  UNL1       -0.3066
     12 C          -1.1367    0.4944   -0.1556 C.3     1  UNL1        0.0242
     13 C          -0.4581   -0.2506   -1.2163 C.3     1  UNL1        0.0859
     14 O          -1.0736   -0.1584   -2.4804 O.3     1  UNL1       -0.3887
     15 C           0.9856   -0.1258   -1.3446 C.3     1  UNL1        0.0505
     16 C           1.5513    1.0960   -2.0434 C.3     1  UNL1       -0.0295
     17 C           1.2884    2.4159   -1.4871 C.3     1  UNL1       -0.0421
     18 C           2.0000    3.4358   -2.4217 C.3     1  UNL1       -0.0624
     19 C           1.6087    2.7498   -0.1013 C.3     1  UNL1       -0.0504
     20 C           2.9798    2.9259    0.3839 C.3     1  UNL1       -0.0528
     21 C           3.9701    1.8229    0.1460 C.3     1  UNL1       -0.0530
     22 C           5.1945    2.0231    1.0336 C.3     1  UNL1       -0.0531
     23 C           6.2631    0.9849    0.8427 C.3     1  UNL1       -0.0530
     24 C           5.6664   -0.3752    0.7268 C.3     1  UNL1       -0.0526
     25 C           6.6119   -1.5436    0.8899 C.3     1  UNL1       -0.0448
     26 C           5.7346   -2.7891    0.5102 C.3     1  UNL1        0.0242
     27 C           5.5762   -2.7378   -0.9344 C.2     1  UNL1        0.2159
     28 O           6.7807   -2.3586   -1.4462 O.2     1  UNL1       -0.2756
     29 N           4.8162   -2.8809   -2.0542 N.am    1  UNL1       -0.2932
     30 C           5.5531   -2.7372   -3.3781 C.3     1  UNL1        0.0039
     31 C           3.4536   -3.1512   -2.3040 C.3     1  UNL1        0.0991
     32 C           2.9749   -4.4948   -1.7935 C.3     1  UNL1       -0.0379
     33 C           2.5778   -2.0224   -1.8383 C.2     1  UNL1        0.2336
     34 O           3.0204   -1.6148   -0.6700 O.2     1  UNL1       -0.2738
     35 N           1.5153   -1.2891   -2.1911 N.am    1  UNL1       -0.3084
     36 C          -3.4834    2.2205    0.6242 C.3     1  UNL1        0.0062
     37 C          -4.3289    2.2431   -0.6146 C.3     1  UNL1        0.1068
     38 C          -3.6099    2.5969   -1.8700 C.3     1  UNL1       -0.0251
     39 C          -5.4046    3.3218   -0.4011 C.3     1  UNL1       -0.0251
     40 O          -5.0858    1.0201   -0.7389 O.3     1  UNL1       -0.4859
     41 H          -7.4605    0.0723    4.3668 H       1  UNL1        0.0235
     42 H          -8.4256   -1.3983    4.6090 H       1  UNL1        0.0235
     43 H          -7.2241   -0.8532    5.8848 H       1  UNL1        0.0235
     44 H          -5.4388   -1.7235    4.7125 H       1  UNL1        0.0343
     45 H          -6.8963   -3.6291    4.8661 H       1  UNL1        0.0235
     46 H          -7.8974   -3.1435    3.4703 H       1  UNL1        0.0235
     47 H          -6.2683   -3.7311    3.1279 H       1  UNL1        0.0235
     48 H          -7.9651   -1.3062    1.9409 H       1  UNL1        0.0622
     49 H          -7.4568   -0.1149   -0.1408 H       1  UNL1        0.0654
     50 H          -4.0063   -0.5771    3.3296 H       1  UNL1        0.0625
     51 H          -2.5355    0.8841    1.9757 H       1  UNL1        0.0512
     52 H          -3.0251   -0.1603   -0.7642 H       1  UNL1        0.1226
     53 H          -0.5712    0.3076    0.8088 H       1  UNL1        0.0450
     54 H          -1.1579    1.5712   -0.2652 H       1  UNL1        0.0450
     55 H          -0.6288   -1.3850   -0.9890 H       1  UNL1        0.0624
     56 H          -1.9312   -0.6444   -2.4757 H       1  UNL1        0.2099
     57 H           1.5102   -0.2096   -0.3942 H       1  UNL1        0.0524
     58 H           1.0847    1.0754   -3.0895 H       1  UNL1        0.0286
     59 H           2.6335    0.9535   -2.2615 H       1  UNL1        0.0286
     60 H           0.1944    2.6637   -1.6607 H       1  UNL1        0.0299
     61 H           2.2232    4.3645   -1.8834 H       1  UNL1        0.0232
     62 H           1.3629    3.6361   -3.2973 H       1  UNL1        0.0232
     63 H           2.9242    2.9473   -2.7762 H       1  UNL1        0.0232
     64 H           0.9940    2.1069    0.6250 H       1  UNL1        0.0268
     65 H           1.0861    3.7688    0.0895 H       1  UNL1        0.0268
     66 H           3.4294    3.9285    0.0528 H       1  UNL1        0.0265
     67 H           2.9875    3.0780    1.5184 H       1  UNL1        0.0265
     68 H           3.5343    0.8491    0.3969 H       1  UNL1        0.0265
     69 H           4.3315    1.7927   -0.9038 H       1  UNL1        0.0265
     70 H           5.6211    3.0128    0.7785 H       1  UNL1        0.0265
     71 H           4.8887    1.9804    2.1017 H       1  UNL1        0.0265
     72 H           6.9329    1.1991    0.0027 H       1  UNL1        0.0265
     73 H           6.8937    1.0034    1.7636 H       1  UNL1        0.0265
     74 H           5.2735   -0.4010   -0.3543 H       1  UNL1        0.0265
     75 H           4.7821   -0.5290    1.3545 H       1  UNL1        0.0265
     76 H           6.9048   -1.6942    1.9423 H       1  UNL1        0.0270
     77 H           7.4783   -1.4766    0.2276 H       1  UNL1        0.0270
     78 H           6.2335   -3.6968    0.8976 H       1  UNL1        0.0358
     79 H           4.8338   -2.6265    1.1102 H       1  UNL1        0.0358
     80 H           4.9814   -3.2040   -4.1924 H       1  UNL1        0.0429
     81 H           5.7099   -1.6904   -3.6093 H       1  UNL1        0.0429
     82 H           6.4861   -3.3641   -3.3395 H       1  UNL1        0.0429
     83 H           3.2544   -3.2319   -3.4165 H       1  UNL1        0.0594
     84 H           2.1788   -4.4094   -1.0293 H       1  UNL1        0.0252
     85 H           3.8622   -4.9048   -1.2159 H       1  UNL1        0.0252
     86 H           2.7078   -5.2098   -2.5638 H       1  UNL1        0.0252
     87 H           0.8928   -1.3177   -2.9700 H       1  UNL1        0.1491
     88 H          -2.5326    2.7697    0.5545 H       1  UNL1        0.0322
     89 H          -4.0238    2.7101    1.4892 H       1  UNL1        0.0322
     90 H          -3.0541    1.7838   -2.3474 H       1  UNL1        0.0268
     91 H          -4.4048    2.9109   -2.6067 H       1  UNL1        0.0268
     92 H          -3.0127    3.4936   -1.6831 H       1  UNL1        0.0268
     93 H          -5.7625    3.1858    0.6406 H       1  UNL1        0.0268
     94 H          -5.0139    4.3270   -0.5777 H       1  UNL1        0.0268
     95 H          -6.2694    3.0603   -1.0619 H       1  UNL1        0.0268
@<TRIPOS>BOND
     1     1     2    1
     2     2     3    1
     3     2     4    1
     4     4     5   ar
     5     5     6   ar
     6     6     7   ar
     7     7     8   ar
     8     8     9   ar
     9     8    10    1
    10    10    11    1
    11    11    12    1
    12    12    13    1
    13    13    14    1
    14    13    15    1
    15    15    16    1
    16    16    17    1
    17    17    18    1
    18    17    19    1
    19    19    20    1
    20    20    21    1
    21    21    22    1
    22    22    23    1
    23    23    24    1
    24    24    25    1
    25    25    26    1
    26    26    27    1
    27    27    28    2
    28    27    29   am
    29    29    30    1
    30    29    31    1
    31    31    32    1
    32    31    33    1
    33    33    34    2
    34    33    35   am
    35    10    36    1
    36    36    37    1
    37    37    38    1
    38    37    39    1
    39    37    40    1
    40     9     4   ar
    41    35    15    1
    42    40     7    1
    43     1    41    1
    44     1    42    1
    45     1    43    1
    46     2    44    1
    47     3    45    1
    48     3    46    1
    49     3    47    1
    50     5    48    1
    51     6    49    1
    52     9    50    1
    53    10    51    1
    54    11    52    1
    55    12    53    1
    56    12    54    1
    57    13    55    1
    58    14    56    1
    59    15    57    1
    60    16    58    1
    61    16    59    1
    62    17    60    1
    63    18    61    1
    64    18    62    1
    65    18    63    1
    66    19    64    1
    67    19    65    1
    68    20    66    1
    69    20    67    1
    70    21    68    1
    71    21    69    1
    72    22    70    1
    73    22    71    1
    74    23    72    1
    75    23    73    1
    76    24    74    1
    77    24    75    1
    78    25    76    1
    79    25    77    1
    80    26    78    1
    81    26    79    1
    82    30    80    1
    83    30    81    1
    84    30    82    1
    85    31    83    1
    86    32    84    1
    87    32    85    1
    88    32    86    1
    89    35    87    1
    90    36    88    1
    91    36    89    1
    92    38    90    1
    93    38    91    1
    94    38    92    1
    95    39    93    1
    96    39    94    1
    97    39    95    1
