@<TRIPOS>MOLECULE
*****
 33 34 0 0 0
SMALL
GASTEIGER

@<TRIPOS>ATOM
      1 C          -1.3265    1.3072    1.2706 C.3     1  UNL1        0.0474
      2 C          -2.1695    2.5476    1.5263 C.3     1  UNL1       -0.0424
      3 N          -0.1395    1.7313    0.5740 N.pl3   1  UNL1       -0.3189
      4 C           0.8211    0.7456    0.2163 C.2     1  UNL1        0.1481
      5 N           0.6276   -0.5314    0.2017 N.am    1  UNL1       -0.1579
      6 C           1.7941   -1.2458   -0.2044 C.2     1  UNL1        0.2632
      7 O           1.5945   -2.4530   -0.5714 O.2     1  UNL1       -0.2718
      8 C           3.1230   -0.5733   -0.1789 C.3     1  UNL1        0.1925
      9 C           3.8751   -0.8366    1.0768 C.3     1  UNL1       -0.0329
     10 S           2.5126    1.1585   -0.2874 S.3     1  UNL1       -0.0681
     11 C           3.9150   -0.8421   -1.4299 C.3     1  UNL1        0.4127
     12 F           3.1709   -0.3540   -2.5111 F       1  UNL1       -0.1686
     13 F           5.0660   -0.0803   -1.3675 F       1  UNL1       -0.1686
     14 F           4.2434   -2.1468   -1.6304 F       1  UNL1       -0.1686
     15 C          -2.0960    0.2832    0.4907 C.ar    1  UNL1        0.0076
     16 C          -1.9631    0.4090   -0.8909 C.ar    1  UNL1        0.1283
     17 F          -1.2200    1.3529   -1.4831 F       1  UNL1       -0.2051
     18 C          -2.6187   -0.4691   -1.7240 C.ar    1  UNL1       -0.0261
     19 C          -3.3982   -1.4609   -1.1543 C.ar    1  UNL1       -0.0590
     20 C          -3.5301   -1.5862    0.2084 C.ar    1  UNL1       -0.0613
     21 C          -2.8724   -0.7049    1.0521 C.ar    1  UNL1       -0.0541
     22 H          -1.1095    0.8599    2.2622 H       1  UNL1        0.0546
     23 H          -1.7971    3.0018    2.4707 H       1  UNL1        0.0251
     24 H          -1.9634    3.2707    0.7193 H       1  UNL1        0.0251
     25 H          -3.2413    2.3017    1.6272 H       1  UNL1        0.0251
     26 H           0.0491    2.7258    0.3195 H       1  UNL1        0.1483
     27 H           3.4292   -0.2117    1.9018 H       1  UNL1        0.0251
     28 H           3.7721   -1.9317    1.3297 H       1  UNL1        0.0251
     29 H           4.9449   -0.6506    0.9655 H       1  UNL1        0.0251
     30 H          -2.5278   -0.3876   -2.8078 H       1  UNL1        0.0646
     31 H          -3.9249   -2.1640   -1.7523 H       1  UNL1        0.0618
     32 H          -4.1191   -2.3325    0.7327 H       1  UNL1        0.0618
     33 H          -2.9218   -0.7328    2.1292 H       1  UNL1        0.0622
@<TRIPOS>BOND
     1     1     2    1
     2     1     3    1
     3     3     4    1
     4     4     5    2
     5     5     6    1
     6     6     7    2
     7     6     8    1
     8     8     9    1
     9     8    10    1
    10     8    11    1
    11    11    12    1
    12    11    13    1
    13    11    14    1
    14     1    15    1
    15    15    16   ar
    16    16    17    1
    17    16    18   ar
    18    18    19   ar
    19    19    20   ar
    20    20    21   ar
    21    10     4    1
    22    21    15   ar
    23     1    22    1
    24     2    23    1
    25     2    24    1
    26     2    25    1
    27     3    26    1
    28     9    27    1
    29     9    28    1
    30     9    29    1
    31    18    30    1
    32    19    31    1
    33    20    32    1
    34    21    33    1
