@<TRIPOS>MOLECULE
*****
 62 63 0 0 0
SMALL
GASTEIGER

@<TRIPOS>ATOM
      1 C          -3.6029    0.3742    2.8471 C.3     0  UNK0       -0.0151
      2 N          -2.4688    0.1331    2.0137 N.3     1  PHE1       -0.3084
      3 CA         -2.6321    0.5153    0.6469 C.3     1  PHE1        0.0887
      4 CB         -3.4172   -0.5360   -0.0909 C.3     1  PHE1       -0.0037
      5 CG         -4.7725   -0.8113    0.3764 C.ar    1  PHE1       -0.0454
      6 CD1        -5.8294   -0.0460   -0.0912 C.ar    1  PHE1       -0.0585
      7 CE1        -7.1266   -0.2820    0.2839 C.ar    1  PHE1       -0.0615
      8 CZ         -7.3474   -1.3214    1.1546 C.ar    1  PHE1       -0.0617
      9 CE2        -6.3210   -2.1045    1.6409 C.ar    1  PHE1       -0.0615
     10 CD2        -5.0422   -1.8372    1.2431 C.ar    1  PHE1       -0.0585
     11 C          -1.3100    0.7383   -0.0205 C.2     1  PHE1        0.2335
     12 O          -0.2964    0.3877    0.6063 O.2     1  PHE1       -0.2739
     13 N          -1.2362    1.3137   -1.2856 N.am    2  PRO2       -0.2886
     14 CD         -2.4268    1.8482   -2.0046 C.3     2  PRO2        0.0156
     15 CG         -1.8828    3.2202   -2.4331 C.3     2  PRO2       -0.0350
     16 CB         -0.3510    3.1075   -2.3406 C.3     2  PRO2       -0.0243
     17 CA         -0.1973    1.5867   -2.2387 C.3     2  PRO2        0.1023
     18 C           1.1443    1.1542   -1.9950 C.2     2  PRO2        0.2341
     19 O           2.0730    2.0177   -2.2326 O.2     2  PRO2       -0.2738
     20 N           1.5649   -0.0995   -1.5332 N.am    3  ARG3       -0.3044
     21 CA          2.9505   -0.4651   -1.2993 C.3     3  ARG3        0.0786
     22 C           3.3085   -1.5453   -2.2434 C.2     3  ARG3        0.1404
     23 O           4.4080   -2.0683   -2.3342 O.2     3  ARG3       -0.2991
     24 CB          3.2083   -0.8961    0.0949 C.3     3  ARG3       -0.0249
     25 CG          4.6459   -1.2707    0.3417 C.3     3  ARG3       -0.0166
     26 CD          5.5908   -0.1229    0.0635 C.3     3  ARG3        0.1048
     27 NE          6.9299   -0.5990    0.3337 N.pl3   3  ARG3       -0.1138
     28 CZ          7.3768   -0.7849    1.5303 C.cat   3  ARG3        0.3765
     29 NH1         8.7027   -1.2548    1.7335 N.pl3   3  ARG3       -0.2893
     30 NH2         6.5933   -0.5385    2.6904 N.pl3   3  ARG3       -0.2893
     31 H          -4.4630    0.7488    2.2807 H       0  UNK0        0.0388
     32 H          -3.9224   -0.5101    3.4632 H       0  UNK0        0.0388
     33 H          -3.3727    1.2167    3.5821 H       0  UNK0        0.0388
     34 H          -1.5701    0.4498    2.4295 H       1  PHE1        0.1223
     35 HA         -3.2447    1.4459    0.6265 H       1  PHE1        0.0560
     36 HB1        -3.4184   -0.3205   -1.1867 H       1  PHE1        0.0333
     37 HB2        -2.8446   -1.5333   -0.0477 H       1  PHE1        0.0333
     38 HD1        -5.6677    0.7786   -0.7801 H       1  PHE1        0.0620
     39 HE1        -7.9671    0.3036   -0.0694 H       1  PHE1        0.0618
     40 HZ         -8.3555   -1.5324    1.4684 H       1  PHE1        0.0618
     41 HE2        -6.5603   -2.9185    2.3322 H       1  PHE1        0.0618
     42 HD2        -4.2274   -2.4503    1.6222 H       1  PHE1        0.0620
     43 HD1        -2.5822    1.1757   -2.8557 H       2  PRO2        0.0465
     44 HD2        -3.2860    1.9708   -1.3402 H       2  PRO2        0.0465
     45 HG1        -2.1869    3.4480   -3.4727 H       2  PRO2        0.0281
     46 HG2        -2.2574    4.0156   -1.7681 H       2  PRO2        0.0281
     47 HB1         0.1366    3.5107   -3.2316 H       2  PRO2        0.0288
     48 HB2        -0.0318    3.5869   -1.4007 H       2  PRO2        0.0288
     49 HA         -0.5944    1.2325   -3.2469 H       2  PRO2        0.0597
     50 H           0.8662   -0.8448   -1.3620 H       3  ARG3        0.1494
     51 HA          3.5535    0.4285   -1.5578 H       3  ARG3        0.0574
     52 H           2.5311   -1.9142   -2.9215 H       3  ARG3        0.1046
     53 HB1         2.9431   -0.0690    0.7903 H       3  ARG3        0.0288
     54 HB2         2.6089   -1.8221    0.3323 H       3  ARG3        0.0288
     55 HG1         4.7582   -1.4547    1.4599 H       3  ARG3        0.0298
     56 HG2         4.9829   -2.1922   -0.1225 H       3  ARG3        0.0298
     57 HD1         5.5816    0.1500   -1.0310 H       3  ARG3        0.0693
     58 HD2         5.3373    0.7376    0.6886 H       3  ARG3        0.0693
     59 HH11        9.1970   -1.7964    0.9808 H       3  ARG3        0.2546
     60 HH12        9.2320   -1.0865    2.6193 H       3  ARG3        0.2546
     61 HH21        6.3252    0.4418    2.9316 H       3  ARG3        0.2546
     62 HH22        6.2627   -1.2918    3.3290 H       3  ARG3        0.2546
@<TRIPOS>BOND
     1     1     2    1
     2     2     3    1
     3     3     4    1
     4     4     5    1
     5     5     6   ar
     6     6     7   ar
     7     7     8   ar
     8     8     9   ar
     9     9    10   ar
    10     3    11    1
    11    11    12    2
    12    11    13   am
    13    13    14    1
    14    14    15    1
    15    15    16    1
    16    16    17    1
    17    17    18    1
    18    18    19    2
    19    18    20   am
    20    20    21    1
    21    21    22    1
    22    22    23    2
    23    21    24    1
    24    24    25    1
    25    25    26    1
    26    26    27    1
    27    27    28    2
    28    28    29    1
    29    28    30    1
    30    10     5   ar
    31    17    13    1
    32     1    31    1
    33     1    32    1
    34     1    33    1
    35     2    34    1
    36     3    35    1
    37     4    36    1
    38     4    37    1
    39     6    38    1
    40     7    39    1
    41     8    40    1
    42     9    41    1
    43    10    42    1
    44    14    43    1
    45    14    44    1
    46    15    45    1
    47    15    46    1
    48    16    47    1
    49    16    48    1
    50    17    49    1
    51    20    50    1
    52    21    51    1
    53    22    52    1
    54    24    53    1
    55    24    54    1
    56    25    55    1
    57    25    56    1
    58    26    57    1
    59    26    58    1
    60    29    59    1
    61    29    60    1
    62    30    61    1
    63    30    62    1
