
     RDKit          3D

 50 54  0  0  0  0  0  0  0  0999 V2000
    5.6528    2.7168    0.3474 O   0  0  0  0  0  0  0  0  0  0  0  0
    4.7118    1.8987    0.2602 C   0  0  0  0  0  0  0  0  0  0  0  0
    3.3243    2.2124    0.2833 N   0  0  0  0  0  0  0  0  0  0  0  0
    2.5457    1.0259    0.1564 C   0  0  0  0  0  0  0  0  0  0  0  0
    1.1935    0.7944    0.1232 C   0  0  0  0  0  0  0  0  0  0  0  0
    0.6378   -0.4877   -0.0124 C   0  0  0  0  0  0  0  0  0  0  0  0
   -0.7731   -0.5690   -0.0302 N   0  0  0  0  0  0  0  0  0  0  0  0
   -1.5361   -1.7428   -0.1618 C   0  0  0  0  0  0  0  0  0  0  0  0
   -0.8619   -2.8296   -0.2752 O   0  0  0  0  0  0  0  0  0  0  0  0
   -2.9951   -1.8259   -0.1798 C   0  0  0  0  0  0  0  0  0  0  0  0
   -3.5580   -3.1035   -0.3230 C   0  0  0  0  0  0  0  0  0  0  0  0
   -4.8705   -3.3293   -0.3567 N   0  0  0  0  0  0  0  0  0  0  0  0
   -5.7156   -2.2873   -0.2487 C   0  0  0  0  0  0  0  0  0  0  0  0
   -5.2569   -0.9979   -0.1050 C   0  0  0  0  0  0  0  0  0  0  0  0
   -6.1476    0.1608    0.0156 C   0  0  0  0  0  0  0  0  0  0  0  0
   -6.5794    0.8645   -1.0882 C   0  0  0  0  0  0  0  0  0  0  0  0
   -7.4266    1.9689   -0.9713 C   0  0  0  0  0  0  0  0  0  0  0  0
   -7.8564    2.3858    0.2743 C   0  0  0  0  0  0  0  0  0  0  0  0
   -7.4143    1.6695    1.3702 C   0  0  0  0  0  0  0  0  0  0  0  0
   -6.5818    0.5835    1.2606 C   0  0  0  0  0  0  0  0  0  0  0  0
   -6.1469   -0.1227    2.3459 F   0  0  0  0  0  0  0  0  0  0  0  0
   -3.8604   -0.7988   -0.0736 C   0  0  0  0  0  0  0  0  0  0  0  0
   -3.4650    0.3689    0.0566 O   0  0  0  0  0  0  0  0  0  0  0  0
    1.5384   -1.5017   -0.1102 C   0  0  0  0  0  0  0  0  0  0  0  0
    2.9142   -1.2947   -0.0793 C   0  0  0  0  0  0  0  0  0  0  0  0
    3.4180   -0.0198    0.0551 C   0  0  0  0  0  0  0  0  0  0  0  0
    4.8085    0.4555    0.1137 C   0  0  0  0  0  0  0  0  0  0  0  0
    5.8994   -0.2724    0.0658 C   0  0  0  0  0  0  0  0  0  0  0  0
    7.2531    0.2823    0.1633 C   0  0  0  0  0  0  0  0  0  0  0  0
    7.7430    1.1119    1.1364 C   0  0  0  0  0  0  0  0  0  0  0  0
    9.0536    1.4115    0.8224 C   0  0  0  0  0  0  0  0  0  0  0  0
    9.2984    0.7351   -0.3473 C   0  0  0  0  0  0  0  0  0  0  0  0
    8.2214    0.0573   -0.7446 N   0  0  0  0  0  0  0  0  0  0  0  0
    2.9466    3.1710    0.3795 H   0  0  0  0  0  0  0  0  0  0  0  0
    0.5389    1.6523    0.2064 H   0  0  0  0  0  0  0  0  0  0  0  0
   -1.3395    0.3399    0.0642 H   0  0  0  0  0  0  0  0  0  0  0  0
   -2.9083   -3.9724   -0.4136 H   0  0  0  0  0  0  0  0  0  0  0  0
   -5.2970   -4.2759   -0.4628 H   0  0  0  0  0  0  0  0  0  0  0  0
   -6.7957   -2.4745   -0.2763 H   0  0  0  0  0  0  0  0  0  0  0  0
   -6.2474    0.5445   -2.0624 H   0  0  0  0  0  0  0  0  0  0  0  0
   -7.7681    2.5234   -1.8314 H   0  0  0  0  0  0  0  0  0  0  0  0
   -8.5187    3.2501    0.3623 H   0  0  0  0  0  0  0  0  0  0  0  0
   -7.7418    1.9828    2.3532 H   0  0  0  0  0  0  0  0  0  0  0  0
    1.2299   -2.5024   -0.2152 H   0  0  0  0  0  0  0  0  0  0  0  0
    3.6138   -2.1138   -0.1584 H   0  0  0  0  0  0  0  0  0  0  0  0
    5.7943   -1.3558   -0.0537 H   0  0  0  0  0  0  0  0  0  0  0  0
    7.2326    1.4856    2.0393 H   0  0  0  0  0  0  0  0  0  0  0  0
    9.7546    2.0433    1.3699 H   0  0  0  0  0  0  0  0  0  0  0  0
   10.2336    0.7320   -0.9008 H   0  0  0  0  0  0  0  0  0  0  0  0
    8.1038   -0.5508   -1.5976 H   0  0  0  0  0  0  0  0  0  0  0  0
  1  2  2  0
  2  3  1  0
  3  4  1  0
  4  5  2  0
  5  6  1  0
  6  7  1  0
  7  8  1  0
  8  9  2  0
  8 10  1  0
 10 11  2  0
 11 12  1  0
 12 13  1  0
 13 14  2  0
 14 15  1  0
 15 16  2  0
 16 17  1  0
 17 18  2  0
 18 19  1  0
 19 20  2  0
 20 21  1  0
 14 22  1  0
 22 23  2  0
  6 24  2  0
 24 25  1  0
 25 26  2  0
 26 27  1  0
 27 28  2  0
 28 29  1  0
 29 30  2  0
 30 31  1  0
 31 32  2  0
 32 33  1  0
 27  2  1  0
 33 29  1  0
 26  4  1  0
 22 10  1  0
 20 15  1  0
  3 34  1  0
  5 35  1  0
  7 36  1  0
 11 37  1  0
 12 38  1  0
 13 39  1  0
 16 40  1  0
 17 41  1  0
 18 42  1  0
 19 43  1  0
 24 44  1  0
 25 45  1  0
 28 46  1  0
 30 47  1  0
 31 48  1  0
 32 49  1  0
 33 50  1  0
M  END
$$$$
