@<TRIPOS>MOLECULE
*****
 50 54 0 0 0
SMALL
GASTEIGER

@<TRIPOS>ATOM
      1 O           5.6528    2.7168    0.3474 O.2     1  UNL1       -0.2698
      2 C           4.7118    1.8987    0.2602 C.2     1  UNL1        0.2490
      3 N           3.3243    2.2124    0.2833 N.am    1  UNL1       -0.2809
      4 C           2.5457    1.0259    0.1564 C.ar    1  UNL1        0.0433
      5 C           1.1935    0.7944    0.1232 C.ar    1  UNL1       -0.0186
      6 C           0.6378   -0.4877   -0.0124 C.ar    1  UNL1        0.0355
      7 N          -0.7731   -0.5690   -0.0302 N.am    1  UNL1       -0.2813
      8 C          -1.5361   -1.7428   -0.1618 C.2     1  UNL1        0.2534
      9 O          -0.8619   -2.8296   -0.2752 O.2     1  UNL1       -0.2697
     10 C          -2.9951   -1.8259   -0.1798 C.ar    1  UNL1        0.1000
     11 C          -3.5580   -3.1035   -0.3230 C.ar    1  UNL1        0.0176
     12 N          -4.8705   -3.3293   -0.3567 N.ar    1  UNL1       -0.3656
     13 C          -5.7156   -2.2873   -0.2487 C.ar    1  UNL1        0.0132
     14 C          -5.2569   -0.9979   -0.1050 C.ar    1  UNL1        0.0482
     15 C          -6.1476    0.1608    0.0156 C.ar    1  UNL1        0.0224
     16 C          -6.5794    0.8645   -1.0882 C.ar    1  UNL1       -0.0511
     17 C          -7.4266    1.9689   -0.9713 C.ar    1  UNL1       -0.0610
     18 C          -7.8564    2.3858    0.2743 C.ar    1  UNL1       -0.0590
     19 C          -7.4143    1.6695    1.3702 C.ar    1  UNL1       -0.0258
     20 C          -6.5818    0.5835    1.2606 C.ar    1  UNL1        0.1312
     21 F          -6.1469   -0.1227    2.3459 F       1  UNL1       -0.2048
     22 C          -3.8604   -0.7988   -0.0736 C.ar    1  UNL1        0.2016
     23 O          -3.4650    0.3689    0.0566 O.2     1  UNL1       -0.2864
     24 C           1.5384   -1.5017   -0.1102 C.ar    1  UNL1       -0.0398
     25 C           2.9142   -1.2947   -0.0793 C.ar    1  UNL1       -0.0503
     26 C           3.4180   -0.0198    0.0551 C.ar    1  UNL1        0.0085
     27 C           4.8085    0.4555    0.1137 C.2     1  UNL1        0.0479
     28 C           5.8994   -0.2724    0.0658 C.2     1  UNL1       -0.0256
     29 C           7.2531    0.2823    0.1633 C.ar    1  UNL1        0.0400
     30 C           7.7430    1.1119    1.1364 C.ar    1  UNL1       -0.0370
     31 C           9.0536    1.4115    0.8224 C.ar    1  UNL1       -0.0438
     32 C           9.2984    0.7351   -0.3473 C.ar    1  UNL1        0.0022
     33 N           8.2214    0.0573   -0.7446 N.ar    1  UNL1       -0.3611
     34 H           2.9466    3.1710    0.3795 H       1  UNL1        0.1552
     35 H           0.5389    1.6523    0.2064 H       1  UNL1        0.0655
     36 H          -1.3395    0.3399    0.0642 H       1  UNL1        0.1551
     37 H          -2.9083   -3.9724   -0.4136 H       1  UNL1        0.0815
     38 H          -5.2970   -4.2759   -0.4628 H       1  UNL1        0.1648
     39 H          -6.7957   -2.4745   -0.2763 H       1  UNL1        0.0814
     40 H          -6.2474    0.5445   -2.0624 H       1  UNL1        0.0625
     41 H          -7.7681    2.5234   -1.8314 H       1  UNL1        0.0618
     42 H          -8.5187    3.2501    0.3623 H       1  UNL1        0.0618
     43 H          -7.7418    1.9828    2.3532 H       1  UNL1        0.0646
     44 H           1.2299   -2.5024   -0.2152 H       1  UNL1        0.0636
     45 H           3.6138   -2.1138   -0.1584 H       1  UNL1        0.0625
     46 H           5.7943   -1.3558   -0.0537 H       1  UNL1        0.0646
     47 H           7.2326    1.4856    2.0393 H       1  UNL1        0.0638
     48 H           9.7546    2.0433    1.3699 H       1  UNL1        0.0633
     49 H          10.2336    0.7320   -0.9008 H       1  UNL1        0.0807
     50 H           8.1038   -0.5508   -1.5976 H       1  UNL1        0.1653
@<TRIPOS>BOND
     1     1     2    2
     2     2     3   am
     3     3     4    1
     4     4     5   ar
     5     5     6   ar
     6     6     7    1
     7     7     8   am
     8     8     9    2
     9     8    10    1
    10    10    11   ar
    11    11    12   ar
    12    12    13   ar
    13    13    14   ar
    14    14    15    1
    15    15    16   ar
    16    16    17   ar
    17    17    18   ar
    18    18    19   ar
    19    19    20   ar
    20    20    21    1
    21    14    22   ar
    22    22    23    2
    23     6    24   ar
    24    24    25   ar
    25    25    26   ar
    26    26    27    1
    27    27    28    2
    28    28    29    1
    29    29    30   ar
    30    30    31   ar
    31    31    32   ar
    32    32    33   ar
    33    27     2    1
    34    33    29   ar
    35    26     4   ar
    36    22    10   ar
    37    20    15   ar
    38     3    34    1
    39     5    35    1
    40     7    36    1
    41    11    37    1
    42    12    38    1
    43    13    39    1
    44    16    40    1
    45    17    41    1
    46    18    42    1
    47    19    43    1
    48    24    44    1
    49    25    45    1
    50    28    46    1
    51    30    47    1
    52    31    48    1
    53    32    49    1
    54    33    50    1
