
     RDKit          3D

 54 58  0  0  0  0  0  0  0  0999 V2000
    0.9175   -2.3318   -3.7713 C   0  0  0  0  0  0  0  0  0  0  0  0
    0.0448   -2.0887   -2.7100 O   0  0  0  0  0  0  0  0  0  0  0  0
    0.3801   -1.5056   -1.4986 C   0  0  0  0  0  0  0  0  0  0  0  0
    1.6538   -1.0935   -1.2111 C   0  0  0  0  0  0  0  0  0  0  0  0
    2.0177   -0.5088   -0.0104 C   0  0  0  0  0  0  0  0  0  0  0  0
    3.3099   -0.0937    0.2765 C   0  0  0  0  0  0  0  0  0  0  0  0
    4.3349   -0.2829   -0.6668 N   0  0  0  0  0  0  0  0  0  0  0  0
    5.6391    0.2250   -0.4173 C   0  0  0  0  0  0  0  0  0  0  0  0
    5.9563    1.3154    0.3319 C   0  0  0  0  0  0  0  0  0  0  0  0
    7.2760    1.7279    0.5421 C   0  0  0  0  0  0  0  0  0  0  0  0
    8.3113    1.0341   -0.0107 C   0  0  0  0  0  0  0  0  0  0  0  0
    9.9687    1.5051    0.2218 Cl  0  0  0  0  0  0  0  0  0  0  0  0
    8.0053   -0.0678   -0.7695 C   0  0  0  0  0  0  0  0  0  0  0  0
    9.3122   -0.9758   -1.4899 Cl  0  0  0  0  0  0  0  0  0  0  0  0
    6.7183   -0.4728   -0.9762 C   0  0  0  0  0  0  0  0  0  0  0  0
    3.5607    0.4718    1.4935 N   0  0  0  0  0  0  0  0  0  0  0  0
    2.6213    0.6471    2.4272 C   0  0  0  0  0  0  0  0  0  0  0  0
    1.3615    0.2450    2.1542 N   0  0  0  0  0  0  0  0  0  0  0  0
    1.0547   -0.3182    0.9739 C   0  0  0  0  0  0  0  0  0  0  0  0
   -0.2358   -0.7386    0.6762 C   0  0  0  0  0  0  0  0  0  0  0  0
   -0.6024   -1.3188   -0.5125 C   0  0  0  0  0  0  0  0  0  0  0  0
   -1.8615   -1.7123   -0.7679 O   0  0  0  0  0  0  0  0  0  0  0  0
   -3.0547   -1.6922   -0.1125 C   0  0  0  0  0  0  0  0  0  0  0  0
   -3.6263   -0.3396    0.2381 C   0  0  0  0  0  0  0  0  0  0  0  0
   -5.0125   -0.5085    0.8153 C   0  0  0  0  0  0  0  0  0  0  0  0
   -5.9936    0.3408    0.2369 N   0  0  0  0  0  0  0  0  0  0  0  0
   -7.2412    0.3599    0.9155 C   0  0  0  0  0  0  0  0  0  0  0  0
   -6.9738    1.7610    2.0796 S   0  0  0  0  0  0  0  0  0  0  0  0
   -5.4933    2.4548    1.2340 C   0  0  0  0  0  0  0  0  0  0  0  0
   -5.5739    1.6733   -0.0641 C   0  0  1  0  0  0  0  0  0  0  0  0
   -4.2524    1.6350   -0.7677 C   0  0  0  0  0  0  0  0  0  0  0  0
   -3.7928    0.3364   -0.9747 O   0  0  0  0  0  0  0  0  0  0  0  0
    0.5460   -3.2311   -4.3260 H   0  0  0  0  0  0  0  0  0  0  0  0
    0.8972   -1.4452   -4.4447 H   0  0  0  0  0  0  0  0  0  0  0  0
    1.9191   -2.5862   -3.4172 H   0  0  0  0  0  0  0  0  0  0  0  0
    2.4264   -1.2369   -1.9860 H   0  0  0  0  0  0  0  0  0  0  0  0
    4.2173   -0.7877   -1.5755 H   0  0  0  0  0  0  0  0  0  0  0  0
    5.1639    1.9076    0.7800 H   0  0  0  0  0  0  0  0  0  0  0  0
    7.4942    2.5967    1.1421 H   0  0  0  0  0  0  0  0  0  0  0  0
    6.5422   -1.3519   -1.5859 H   0  0  0  0  0  0  0  0  0  0  0  0
    2.8943    1.1083    3.3822 H   0  0  0  0  0  0  0  0  0  0  0  0
   -0.9491   -0.5741    1.4958 H   0  0  0  0  0  0  0  0  0  0  0  0
   -2.9015   -2.2420    0.8739 H   0  0  0  0  0  0  0  0  0  0  0  0
   -3.8530   -2.3052   -0.6075 H   0  0  0  0  0  0  0  0  0  0  0  0
   -3.0442    0.2137    0.9602 H   0  0  0  0  0  0  0  0  0  0  0  0
   -5.3203   -1.5628    0.6652 H   0  0  0  0  0  0  0  0  0  0  0  0
   -5.0110   -0.3587    1.9265 H   0  0  0  0  0  0  0  0  0  0  0  0
   -8.1169    0.5348    0.2821 H   0  0  0  0  0  0  0  0  0  0  0  0
   -7.3512   -0.5366    1.5751 H   0  0  0  0  0  0  0  0  0  0  0  0
   -5.6175    3.5388    1.0499 H   0  0  0  0  0  0  0  0  0  0  0  0
   -4.6095    2.2067    1.8328 H   0  0  0  0  0  0  0  0  0  0  0  0
   -6.3277    2.1494   -0.7049 H   0  0  0  0  0  0  0  0  0  0  0  0
   -4.2318    2.1581   -1.7321 H   0  0  0  0  0  0  0  0  0  0  0  0
   -3.4969    2.1215   -0.0891 H   0  0  0  0  0  0  0  0  0  0  0  0
  1  2  1  0
  2  3  1  0
  3  4  2  0
  4  5  1  0
  5  6  2  0
  6  7  1  0
  7  8  1  0
  8  9  2  0
  9 10  1  0
 10 11  2  0
 11 12  1  0
 11 13  1  0
 13 14  1  0
 13 15  2  0
  6 16  1  0
 16 17  2  0
 17 18  1  0
 18 19  2  0
 19 20  1  0
 20 21  2  0
 21 22  1  0
 22 23  1  0
 23 24  1  0
 24 25  1  0
 25 26  1  0
 26 27  1  0
 27 28  1  0
 28 29  1  0
 29 30  1  0
 30 31  1  0
 31 32  1  0
 21  3  1  0
 32 24  1  0
 19  5  1  0
 30 26  1  0
 15  8  1  0
  1 33  1  0
  1 34  1  0
  1 35  1  0
  4 36  1  0
  7 37  1  0
  9 38  1  0
 10 39  1  0
 15 40  1  0
 17 41  1  0
 20 42  1  0
 23 43  1  0
 23 44  1  0
 24 45  1  0
 25 46  1  0
 25 47  1  0
 27 48  1  0
 27 49  1  0
 29 50  1  0
 29 51  1  0
 30 52  1  6
 31 53  1  0
 31 54  1  0
M  END
$$$$
