@<TRIPOS>MOLECULE
*****
 54 58 0 0 0
SMALL
GASTEIGER

@<TRIPOS>ATOM
      1 C           0.9175   -2.3318   -3.7713 C.3     1  UNL1        0.0790
      2 O           0.0448   -2.0887   -2.7100 O.3     1  UNL1       -0.4914
      3 C           0.3801   -1.5056   -1.4986 C.ar    1  UNL1        0.1623
      4 C           1.6538   -1.0935   -1.2111 C.ar    1  UNL1       -0.0038
      5 C           2.0177   -0.5088   -0.0104 C.ar    1  UNL1        0.0441
      6 C           3.3099   -0.0937    0.2765 C.ar    1  UNL1        0.1340
      7 N           4.3349   -0.2829   -0.6668 N.pl3   1  UNL1       -0.2988
      8 C           5.6391    0.2250   -0.4173 C.ar    1  UNL1        0.0339
      9 C           5.9563    1.3154    0.3319 C.ar    1  UNL1       -0.0390
     10 C           7.2760    1.7279    0.5421 C.ar    1  UNL1       -0.0402
     11 C           8.3113    1.0341   -0.0107 C.ar    1  UNL1        0.0594
     12 CL          9.9687    1.5051    0.2218 Cl      1  UNL1       -0.0820
     13 C           8.0053   -0.0678   -0.7695 C.ar    1  UNL1        0.0610
     14 CL          9.3122   -0.9758   -1.4899 Cl      1  UNL1       -0.0820
     15 C           6.7183   -0.4728   -0.9762 C.ar    1  UNL1       -0.0207
     16 N           3.5607    0.4718    1.4935 N.ar    1  UNL1       -0.2200
     17 C           2.6213    0.6471    2.4272 C.ar    1  UNL1        0.1187
     18 N           1.3615    0.2450    2.1542 N.ar    1  UNL1       -0.2352
     19 C           1.0547   -0.3182    0.9739 C.ar    1  UNL1        0.0797
     20 C          -0.2358   -0.7386    0.6762 C.ar    1  UNL1        0.0098
     21 C          -0.6024   -1.3188   -0.5125 C.ar    1  UNL1        0.1641
     22 O          -1.8615   -1.7123   -0.7679 O.3     1  UNL1       -0.4856
     23 C          -3.0547   -1.6922   -0.1125 C.3     1  UNL1        0.1170
     24 C          -3.6263   -0.3396    0.2381 C.3     1  UNL1        0.1053
     25 C          -5.0125   -0.5085    0.8153 C.3     1  UNL1        0.0296
     26 N          -5.9936    0.3408    0.2369 N.3     1  UNL1       -0.2848
     27 C          -7.2412    0.3599    0.9155 C.3     1  UNL1        0.0459
     28 S          -6.9738    1.7610    2.0796 S.3     1  UNL1       -0.1436
     29 C          -5.4933    2.4548    1.2340 C.3     1  UNL1        0.0127
     30 C          -5.5739    1.6733   -0.0641 C.3     1  UNL1        0.0436
     31 C          -4.2524    1.6350   -0.7677 C.3     1  UNL1        0.0646
     32 O          -3.7928    0.3364   -0.9747 O.3     1  UNL1       -0.3704
     33 H           0.5460   -3.2311   -4.3260 H       1  UNL1        0.0660
     34 H           0.8972   -1.4452   -4.4447 H       1  UNL1        0.0660
     35 H           1.9191   -2.5862   -3.4172 H       1  UNL1        0.0660
     36 H           2.4264   -1.2369   -1.9860 H       1  UNL1        0.0663
     37 H           4.2173   -0.7877   -1.5755 H       1  UNL1        0.1536
     38 H           5.1639    1.9076    0.7800 H       1  UNL1        0.0636
     39 H           7.4942    2.5967    1.1421 H       1  UNL1        0.0633
     40 H           6.5422   -1.3519   -1.5859 H       1  UNL1        0.0651
     41 H           2.8943    1.1083    3.3822 H       1  UNL1        0.1048
     42 H          -0.9491   -0.5741    1.4958 H       1  UNL1        0.0677
     43 H          -2.9015   -2.2420    0.8739 H       1  UNL1        0.0723
     44 H          -3.8530   -2.3052   -0.6075 H       1  UNL1        0.0723
     45 H          -3.0442    0.2137    0.9602 H       1  UNL1        0.0643
     46 H          -5.3203   -1.5628    0.6652 H       1  UNL1        0.0453
     47 H          -5.0110   -0.3587    1.9265 H       1  UNL1        0.0453
     48 H          -8.1169    0.5348    0.2821 H       1  UNL1        0.0541
     49 H          -7.3512   -0.5366    1.5751 H       1  UNL1        0.0541
     50 H          -5.6175    3.5388    1.0499 H       1  UNL1        0.0393
     51 H          -4.6095    2.2067    1.8328 H       1  UNL1        0.0393
     52 H          -6.3277    2.1494   -0.7049 H       1  UNL1        0.0493
     53 H          -4.2318    2.1581   -1.7321 H       1  UNL1        0.0576
     54 H          -3.4969    2.1215   -0.0891 H       1  UNL1        0.0576
@<TRIPOS>BOND
     1     1     2    1
     2     2     3    1
     3     3     4   ar
     4     4     5   ar
     5     5     6   ar
     6     6     7    1
     7     7     8    1
     8     8     9   ar
     9     9    10   ar
    10    10    11   ar
    11    11    12    1
    12    11    13   ar
    13    13    14    1
    14    13    15   ar
    15     6    16   ar
    16    16    17   ar
    17    17    18   ar
    18    18    19   ar
    19    19    20   ar
    20    20    21   ar
    21    21    22    1
    22    22    23    1
    23    23    24    1
    24    24    25    1
    25    25    26    1
    26    26    27    1
    27    27    28    1
    28    28    29    1
    29    29    30    1
    30    30    31    1
    31    31    32    1
    32    21     3   ar
    33    32    24    1
    34    19     5   ar
    35    30    26    1
    36    15     8   ar
    37     1    33    1
    38     1    34    1
    39     1    35    1
    40     4    36    1
    41     7    37    1
    42     9    38    1
    43    10    39    1
    44    15    40    1
    45    17    41    1
    46    20    42    1
    47    23    43    1
    48    23    44    1
    49    24    45    1
    50    25    46    1
    51    25    47    1
    52    27    48    1
    53    27    49    1
    54    29    50    1
    55    29    51    1
    56    30    52    1
    57    31    53    1
    58    31    54    1
