@<TRIPOS>MOLECULE
*****
 54 55 0 0 0
SMALL
GASTEIGER

@<TRIPOS>ATOM
      1 C           6.1171   -1.0463    3.5208 C.3     1  UNL1        0.0705
      2 S           4.8504    0.1622    3.3614 S.O2    1  UNL1        0.0269
      3 O           5.4588    1.5136    3.0656 O.2     1  UNL1       -0.1585
      4 O           4.1305    0.2836    4.6718 O.2     1  UNL1       -0.1585
      5 N           3.6912   -0.2698    2.1569 N.3     1  UNL1       -0.1873
      6 C           4.3110   -0.3779    0.8455 C.3     1  UNL1        0.0801
      7 C           3.2505   -0.7505   -0.1255 C.ar    1  UNL1        0.1871
      8 N           2.8252   -1.9462   -0.5178 N.ar    1  UNL1       -0.0599
      9 O           1.8909   -1.7680   -1.3718 O.2     1  UNL1       -0.3377
     10 C           1.6463   -0.5036   -1.5920 C.ar    1  UNL1        0.2310
     11 C           0.6637    0.0937   -2.4891 C.3     1  UNL1        0.0464
     12 C          -0.7604   -0.2680   -2.1464 C.3     1  UNL1       -0.0413
     13 C          -1.1401    0.1826   -0.7502 C.3     1  UNL1       -0.0521
     14 C          -2.5547   -0.1996   -0.4643 C.3     1  UNL1       -0.0502
     15 C          -3.0793    0.1742    0.8713 C.3     1  UNL1       -0.0410
     16 C          -4.5252   -0.3070    0.9472 C.3     1  UNL1       -0.0502
     17 C          -5.2586    0.2741    2.1119 C.3     1  UNL1       -0.0528
     18 C          -4.3176    0.7032    3.2098 C.3     1  UNL1       -0.0530
     19 C          -3.3022    1.7096    2.7407 C.3     1  UNL1       -0.0528
     20 C          -3.0777    1.6072    1.2255 C.3     1  UNL1       -0.0502
     21 C           0.8839   -0.1900   -3.9529 C.3     1  UNL1        0.0372
     22 C           0.8539   -1.6127   -4.3110 C.2     1  UNL1        0.2362
     23 O           0.6520   -2.5722   -3.5297 O.2     1  UNL1       -0.2737
     24 N           1.0755   -1.9392   -5.6798 N.am    1  UNL1       -0.1975
     25 O           1.0636   -3.2144   -6.0852 O.3     1  UNL1       -0.2952
     26 N           2.5212    0.1565   -0.7900 N.ar    1  UNL1       -0.1945
     27 H           5.8382   -2.0268    3.0833 H       1  UNL1        0.0479
     28 H           6.3389   -1.2241    4.5999 H       1  UNL1        0.0479
     29 H           7.0375   -0.7217    3.0212 H       1  UNL1        0.0479
     30 H           2.9480    0.4744    2.1693 H       1  UNL1        0.1481
     31 H           4.8135    0.5493    0.5394 H       1  UNL1        0.0523
     32 H           5.0704   -1.1880    0.9242 H       1  UNL1        0.0523
     33 H           0.7197    1.2194   -2.4025 H       1  UNL1        0.0401
     34 H          -0.7999   -1.3965   -2.1188 H       1  UNL1        0.0273
     35 H          -1.4666    0.0376   -2.9176 H       1  UNL1        0.0273
     36 H          -0.9083    1.2399   -0.6082 H       1  UNL1        0.0266
     37 H          -0.4507   -0.3792   -0.0665 H       1  UNL1        0.0266
     38 H          -3.1906    0.2245   -1.2702 H       1  UNL1        0.0268
     39 H          -2.6384   -1.3031   -0.5647 H       1  UNL1        0.0268
     40 H          -2.5449   -0.3873    1.6817 H       1  UNL1        0.0301
     41 H          -4.5833   -1.4107    0.8838 H       1  UNL1        0.0268
     42 H          -5.0124    0.0849    0.0139 H       1  UNL1        0.0268
     43 H          -5.9129   -0.5130    2.5395 H       1  UNL1        0.0265
     44 H          -5.8798    1.1554    1.8467 H       1  UNL1        0.0265
     45 H          -4.9345    1.1774    4.0100 H       1  UNL1        0.0265
     46 H          -3.8282   -0.1743    3.6816 H       1  UNL1        0.0265
     47 H          -3.5613    2.7528    3.0288 H       1  UNL1        0.0265
     48 H          -2.3497    1.4790    3.2694 H       1  UNL1        0.0265
     49 H          -2.1496    2.1530    1.0331 H       1  UNL1        0.0268
     50 H          -3.9806    2.0899    0.7691 H       1  UNL1        0.0268
     51 H           1.8258    0.2552   -4.3308 H       1  UNL1        0.0366
     52 H           0.0181    0.2945   -4.4892 H       1  UNL1        0.0366
     53 H           1.2524   -1.2090   -6.4053 H       1  UNL1        0.1822
     54 H           0.4593   -3.3751   -6.8438 H       1  UNL1        0.2414
@<TRIPOS>BOND
     1     1     2    1
     2     2     3    2
     3     2     4    2
     4     2     5    1
     5     5     6    1
     6     6     7    1
     7     7     8   ar
     8     8     9   ar
     9     9    10   ar
    10    10    11    1
    11    11    12    1
    12    12    13    1
    13    13    14    1
    14    14    15    1
    15    15    16    1
    16    16    17    1
    17    17    18    1
    18    18    19    1
    19    19    20    1
    20    11    21    1
    21    21    22    1
    22    22    23    2
    23    22    24   am
    24    24    25    1
    25    10    26   ar
    26    26     7   ar
    27    20    15    1
    28     1    27    1
    29     1    28    1
    30     1    29    1
    31     5    30    1
    32     6    31    1
    33     6    32    1
    34    11    33    1
    35    12    34    1
    36    12    35    1
    37    13    36    1
    38    13    37    1
    39    14    38    1
    40    14    39    1
    41    15    40    1
    42    16    41    1
    43    16    42    1
    44    17    43    1
    45    17    44    1
    46    18    45    1
    47    18    46    1
    48    19    47    1
    49    19    48    1
    50    20    49    1
    51    20    50    1
    52    21    51    1
    53    21    52    1
    54    24    53    1
    55    25    54    1
