
     RDKit          3D

 55 58  0  0  0  0  0  0  0  0999 V2000
    3.2566   -0.7952    0.5856 C   0  0  1  0  0  0  0  0  0  0  0  0
    3.9061    0.0522   -0.4901 C   0  0  0  0  0  0  0  0  0  0  0  0
    5.1522   -0.4380   -0.8555 O   0  0  0  0  0  0  0  0  0  0  0  0
    5.9249    0.4351   -2.0269 P   0  0  0  0  0  0  0  0  0  0  0  0
    5.6169    2.1133   -1.8964 O   0  0  0  0  0  0  0  0  0  0  0  0
    5.6244    0.0629   -3.4399 O   0  0  0  0  0  0  0  0  0  0  0  0
    7.6064    0.2695   -1.7624 O   0  0  0  0  0  0  0  0  0  0  0  0
    7.9117    0.9316   -0.2256 P   0  0  0  0  0  0  0  0  0  0  0  0
    8.1863    2.5824   -0.4700 O   0  0  0  0  0  0  0  0  0  0  0  0
    9.3176    0.2889    0.4562 O   0  0  0  0  0  0  0  0  0  0  0  0
    6.7263    0.8041    0.6889 O   0  0  0  0  0  0  0  0  0  0  0  0
    2.0149   -0.3240    0.9635 O   0  0  0  0  0  0  0  0  0  0  0  0
    1.2533   -1.3845    1.3949 C   0  0  1  0  0  0  0  0  0  0  0  0
   -0.1376   -1.1521    1.0549 N   0  0  0  0  0  0  0  0  0  0  0  0
   -1.0018   -2.0992    0.6462 C   0  0  0  0  0  0  0  0  0  0  0  0
   -2.2069   -1.5602    0.4128 N   0  0  0  0  0  0  0  0  0  0  0  0
   -2.1445   -0.2446    0.6679 C   0  0  0  0  0  0  0  0  0  0  0  0
   -3.0193    0.8123    0.6188 C   0  0  0  0  0  0  0  0  0  0  0  0
   -4.3648    0.5926    0.2095 N   0  0  0  0  0  0  0  0  0  0  0  0
   -5.3324    1.6914    0.1426 C   0  0  0  0  0  0  0  0  0  0  0  0
   -6.6520    1.2159   -0.3059 C   0  0  0  0  0  0  0  0  0  0  0  0
   -7.5544    0.7955    0.6570 C   0  0  0  0  0  0  0  0  0  0  0  0
   -8.8041    0.3393    0.3096 C   0  0  0  0  0  0  0  0  0  0  0  0
   -9.1845    0.2909   -1.0030 C   0  0  0  0  0  0  0  0  0  0  0  0
   -8.3182    0.6996   -1.9961 C   0  0  0  0  0  0  0  0  0  0  0  0
   -7.0671    1.1544   -1.6222 C   0  0  0  0  0  0  0  0  0  0  0  0
   -2.5873    2.0362    0.9588 N   0  0  0  0  0  0  0  0  0  0  0  0
   -1.3294    2.3011    1.3523 C   0  0  0  0  0  0  0  0  0  0  0  0
   -0.4662    1.2667    1.4022 N   0  0  0  0  0  0  0  0  0  0  0  0
   -0.8306    0.0052    1.0739 C   0  0  0  0  0  0  0  0  0  0  0  0
    1.7278   -2.6207    0.6850 C   0  0  2  0  0  0  0  0  0  0  0  0
    1.8099   -3.6960    1.5623 O   0  0  0  0  0  0  0  0  0  0  0  0
    3.0925   -2.2317    0.1723 C   0  0  2  0  0  0  0  0  0  0  0  0
    4.0331   -3.0369    0.7854 O   0  0  0  0  0  0  0  0  0  0  0  0
    3.9221   -0.7223    1.4724 H   0  0  0  0  0  0  0  0  0  0  0  0
    4.0818    1.0539   -0.0408 H   0  0  0  0  0  0  0  0  0  0  0  0
    3.2266    0.2156   -1.3521 H   0  0  0  0  0  0  0  0  0  0  0  0
    6.1987    2.5986   -2.5162 H   0  0  0  0  0  0  0  0  0  0  0  0
    8.7965    2.7654   -1.2128 H   0  0  0  0  0  0  0  0  0  0  0  0
    9.1223   -0.6525    0.7179 H   0  0  0  0  0  0  0  0  0  0  0  0
    1.3506   -1.5591    2.4944 H   0  0  0  0  0  0  0  0  0  0  0  0
   -0.8792   -3.1440    0.4909 H   0  0  0  0  0  0  0  0  0  0  0  0
   -4.6930   -0.3455   -0.0503 H   0  0  0  0  0  0  0  0  0  0  0  0
   -5.4467    2.1532    1.1344 H   0  0  0  0  0  0  0  0  0  0  0  0
   -4.9710    2.4673   -0.5855 H   0  0  0  0  0  0  0  0  0  0  0  0
   -7.2719    0.8262    1.7016 H   0  0  0  0  0  0  0  0  0  0  0  0
   -9.4699    0.0230    1.1009 H   0  0  0  0  0  0  0  0  0  0  0  0
  -10.1787   -0.0783   -1.1960 H   0  0  0  0  0  0  0  0  0  0  0  0
   -8.6551    0.6452   -3.0042 H   0  0  0  0  0  0  0  0  0  0  0  0
   -6.3706    1.4805   -2.3881 H   0  0  0  0  0  0  0  0  0  0  0  0
   -0.9942    3.3092    1.6267 H   0  0  0  0  0  0  0  0  0  0  0  0
    1.0467   -2.9146   -0.1414 H   0  0  0  0  0  0  0  0  0  0  0  0
    1.3327   -3.4408    2.3905 H   0  0  0  0  0  0  0  0  0  0  0  0
    3.0778   -2.3205   -0.9191 H   0  0  0  0  0  0  0  0  0  0  0  0
    4.6146   -3.5181    0.1415 H   0  0  0  0  0  0  0  0  0  0  0  0
  1  2  1  0
  2  3  1  0
  3  4  1  0
  4  5  1  0
  4  6  2  0
  4  7  1  0
  7  8  1  0
  8  9  1  0
  8 10  1  0
  8 11  2  0
  1 12  1  0
 12 13  1  0
 13 14  1  0
 14 15  1  0
 15 16  2  0
 16 17  1  0
 17 18  2  0
 18 19  1  0
 19 20  1  0
 20 21  1  0
 21 22  2  0
 22 23  1  0
 23 24  2  0
 24 25  1  0
 25 26  2  0
 18 27  1  0
 27 28  2  0
 28 29  1  0
 29 30  2  0
 13 31  1  0
 31 32  1  0
 31 33  1  0
 33 34  1  0
 33  1  1  0
 30 14  1  0
 30 17  1  0
 26 21  1  0
  1 35  1  1
  2 36  1  0
  2 37  1  0
  5 38  1  0
  9 39  1  0
 10 40  1  0
 13 41  1  1
 15 42  1  0
 19 43  1  0
 20 44  1  0
 20 45  1  0
 22 46  1  0
 23 47  1  0
 24 48  1  0
 25 49  1  0
 26 50  1  0
 28 51  1  0
 31 52  1  6
 32 53  1  0
 33 54  1  6
 34 55  1  0
M  END
$$$$
