@<TRIPOS>MOLECULE
*****
 55 58 0 0 0
SMALL
GASTEIGER

@<TRIPOS>ATOM
      1 C           3.2566   -0.7952    0.5856 C.3     1  UNL1        0.1134
      2 C           3.9061    0.0522   -0.4901 C.3     1  UNL1        0.0879
      3 O           5.1522   -0.4380   -0.8555 O.3     1  UNL1       -0.2837
      4 P           5.9249    0.4351   -2.0269 P.3     1  UNL1        0.4834
      5 O           5.6169    2.1133   -1.8964 O.3     1  UNL1       -0.3022
      6 O           5.6244    0.0629   -3.4399 O.2     1  UNL1       -0.2269
      7 O           7.6064    0.2695   -1.7624 O.3     1  UNL1       -0.1862
      8 P           7.9117    0.9316   -0.2256 P.3     1  UNL1        0.4808
      9 O           8.1863    2.5824   -0.4700 O.3     1  UNL1       -0.3023
     10 O           9.3176    0.2889    0.4562 O.3     1  UNL1       -0.3023
     11 O           6.7263    0.8041    0.6889 O.2     1  UNL1       -0.2271
     12 O           2.0149   -0.3240    0.9635 O.3     1  UNL1       -0.3456
     13 C           1.2533   -1.3845    1.3949 C.3     1  UNL1        0.1667
     14 N          -0.1376   -1.1521    1.0549 N.ar    1  UNL1       -0.2855
     15 C          -1.0018   -2.0992    0.6462 C.ar    1  UNL1        0.1004
     16 N          -2.2069   -1.5602    0.4128 N.ar    1  UNL1       -0.2306
     17 C          -2.1445   -0.2446    0.6679 C.ar    1  UNL1        0.1475
     18 C          -3.0193    0.8123    0.6188 C.ar    1  UNL1        0.1500
     19 N          -4.3648    0.5926    0.2095 N.pl3   1  UNL1       -0.3231
     20 C          -5.3324    1.6914    0.1426 C.3     1  UNL1        0.0357
     21 C          -6.6520    1.2159   -0.3059 C.ar    1  UNL1       -0.0304
     22 C          -7.5544    0.7955    0.6570 C.ar    1  UNL1       -0.0571
     23 C          -8.8041    0.3393    0.3096 C.ar    1  UNL1       -0.0615
     24 C          -9.1845    0.2909   -1.0030 C.ar    1  UNL1       -0.0617
     25 C          -8.3182    0.6996   -1.9961 C.ar    1  UNL1       -0.0615
     26 C          -7.0671    1.1544   -1.6222 C.ar    1  UNL1       -0.0571
     27 N          -2.5873    2.0362    0.9588 N.ar    1  UNL1       -0.2186
     28 C          -1.3294    2.3011    1.3523 C.ar    1  UNL1        0.1205
     29 N          -0.4662    1.2667    1.4022 N.ar    1  UNL1       -0.2159
     30 C          -0.8306    0.0052    1.0739 C.ar    1  UNL1        0.1674
     31 C           1.7278   -2.6207    0.6850 C.3     1  UNL1        0.1285
     32 O           1.8099   -3.6960    1.5623 O.3     1  UNL1       -0.3847
     33 C           3.0925   -2.2317    0.1723 C.3     1  UNL1        0.1135
     34 O           4.0331   -3.0369    0.7854 O.3     1  UNL1       -0.3864
     35 H           3.9221   -0.7223    1.4724 H       1  UNL1        0.0647
     36 H           4.0818    1.0539   -0.0408 H       1  UNL1        0.0592
     37 H           3.2266    0.2156   -1.3521 H       1  UNL1        0.0592
     38 H           6.1987    2.5986   -2.5162 H       1  UNL1        0.2220
     39 H           8.7965    2.7654   -1.2128 H       1  UNL1        0.2220
     40 H           9.1223   -0.6525    0.7179 H       1  UNL1        0.2220
     41 H           1.3506   -1.5591    2.4944 H       1  UNL1        0.0866
     42 H          -0.8792   -3.1440    0.4909 H       1  UNL1        0.1030
     43 H          -4.6930   -0.3455   -0.0503 H       1  UNL1        0.1479
     44 H          -5.4467    2.1532    1.1344 H       1  UNL1        0.0511
     45 H          -4.9710    2.4673   -0.5855 H       1  UNL1        0.0511
     46 H          -7.2719    0.8262    1.7016 H       1  UNL1        0.0621
     47 H          -9.4699    0.0230    1.1009 H       1  UNL1        0.0618
     48 H         -10.1787   -0.0783   -1.1960 H       1  UNL1        0.0618
     49 H          -8.6551    0.6452   -3.0042 H       1  UNL1        0.0618
     50 H          -6.3706    1.4805   -2.3881 H       1  UNL1        0.0621
     51 H          -0.9942    3.3092    1.6267 H       1  UNL1        0.1048
     52 H           1.0467   -2.9146   -0.1414 H       1  UNL1        0.0665
     53 H           1.3327   -3.4408    2.3905 H       1  UNL1        0.2101
     54 H           3.0778   -2.3205   -0.9191 H       1  UNL1        0.0647
     55 H           4.6146   -3.5181    0.1415 H       1  UNL1        0.2100
@<TRIPOS>BOND
     1     1     2    1
     2     2     3    1
     3     3     4    1
     4     4     5    1
     5     4     6    2
     6     4     7    1
     7     7     8    1
     8     8     9    1
     9     8    10    1
    10     8    11    2
    11     1    12    1
    12    12    13    1
    13    13    14    1
    14    14    15   ar
    15    15    16   ar
    16    16    17   ar
    17    17    18   ar
    18    18    19    1
    19    19    20    1
    20    20    21    1
    21    21    22   ar
    22    22    23   ar
    23    23    24   ar
    24    24    25   ar
    25    25    26   ar
    26    18    27   ar
    27    27    28   ar
    28    28    29   ar
    29    29    30   ar
    30    13    31    1
    31    31    32    1
    32    31    33    1
    33    33    34    1
    34    33     1    1
    35    30    14   ar
    36    30    17   ar
    37    26    21   ar
    38     1    35    1
    39     2    36    1
    40     2    37    1
    41     5    38    1
    42     9    39    1
    43    10    40    1
    44    13    41    1
    45    15    42    1
    46    19    43    1
    47    20    44    1
    48    20    45    1
    49    22    46    1
    50    23    47    1
    51    24    48    1
    52    25    49    1
    53    26    50    1
    54    28    51    1
    55    31    52    1
    56    32    53    1
    57    33    54    1
    58    34    55    1
