
     RDKit          3D

 49 51  0  0  0  0  0  0  0  0999 V2000
    3.1299    1.6165    0.5479 O   0  0  0  0  0  0  0  0  0  0  0  0
    2.7049    1.0794   -0.5078 C   0  0  0  0  0  0  0  0  0  0  0  0
    1.5796    1.5969   -1.3224 C   0  0  0  0  0  0  0  0  0  0  0  0
    0.9470    2.8284   -0.7401 C   0  0  0  0  0  0  0  0  0  0  0  0
    0.3565    2.6364    0.6160 C   0  0  0  0  0  0  0  0  0  0  0  0
   -0.7102    1.5763    0.5331 C   0  0  0  0  0  0  0  0  0  0  0  0
   -2.0515    1.7500    0.2709 C   0  0  0  0  0  0  0  0  0  0  0  0
   -2.6291    0.5161    0.2951 N   0  0  0  0  0  0  0  0  0  0  0  0
   -1.6749   -0.3887    0.5635 C   0  0  0  0  0  0  0  0  0  0  0  0
   -0.5145    0.2766    0.7049 N   0  0  0  0  0  0  0  0  0  0  0  0
   -1.9173   -1.8483    0.6725 C   0  0  0  0  0  0  0  0  0  0  0  0
   -1.5240   -2.3072    1.9502 O   0  0  0  0  0  0  0  0  0  0  0  0
   -3.3654   -2.1899    0.5110 C   0  0  0  0  0  0  0  0  0  0  0  0
   -4.0374   -1.8983    1.7140 O   0  0  0  0  0  0  0  0  0  0  0  0
   -3.9761   -1.2550   -0.5402 C   0  0  0  0  0  0  0  0  0  0  0  0
   -5.2377   -1.6858   -0.9141 O   0  0  0  0  0  0  0  0  0  0  0  0
   -3.9882    0.1226    0.0889 C   0  0  0  0  0  0  0  0  0  0  0  0
   -4.7500    1.0978   -0.7835 C   0  0  0  0  0  0  0  0  0  0  0  0
   -6.0636    0.6668   -0.9505 O   0  0  0  0  0  0  0  0  0  0  0  0
    3.4106   -0.1174   -0.8880 N   0  0  0  0  0  0  0  0  0  0  0  0
    4.4896   -0.6231   -0.1170 C   0  0  0  0  0  0  0  0  0  0  0  0
    5.7833   -0.2237   -0.3718 C   0  0  0  0  0  0  0  0  0  0  0  0
    6.8621   -0.6861    0.3485 C   0  0  0  0  0  0  0  0  0  0  0  0
    6.6697   -1.5935    1.3806 C   0  0  0  0  0  0  0  0  0  0  0  0
    5.3804   -1.9981    1.6423 C   0  0  0  0  0  0  0  0  0  0  0  0
    4.3012   -1.5304    0.9158 C   0  0  0  0  0  0  0  0  0  0  0  0
    1.9950    1.8773   -2.3239 H   0  0  0  0  0  0  0  0  0  0  0  0
    0.8552    0.7559   -1.4264 H   0  0  0  0  0  0  0  0  0  0  0  0
    0.2283    3.3036   -1.4232 H   0  0  0  0  0  0  0  0  0  0  0  0
    1.7783    3.5871   -0.6180 H   0  0  0  0  0  0  0  0  0  0  0  0
    1.0961    2.3240    1.3482 H   0  0  0  0  0  0  0  0  0  0  0  0
   -0.1103    3.5781    0.9717 H   0  0  0  0  0  0  0  0  0  0  0  0
   -2.5613    2.6831    0.0803 H   0  0  0  0  0  0  0  0  0  0  0  0
   -1.3306   -2.3766   -0.1136 H   0  0  0  0  0  0  0  0  0  0  0  0
   -0.7492   -2.8981    1.8535 H   0  0  0  0  0  0  0  0  0  0  0  0
   -3.5431   -3.2402    0.2449 H   0  0  0  0  0  0  0  0  0  0  0  0
   -5.0246   -1.9114    1.5060 H   0  0  0  0  0  0  0  0  0  0  0  0
   -3.2661   -1.2068   -1.3962 H   0  0  0  0  0  0  0  0  0  0  0  0
   -5.4065   -1.3866   -1.8621 H   0  0  0  0  0  0  0  0  0  0  0  0
   -4.4794    0.0150    1.0861 H   0  0  0  0  0  0  0  0  0  0  0  0
   -4.6533    2.1264   -0.4420 H   0  0  0  0  0  0  0  0  0  0  0  0
   -4.2826    1.0417   -1.8062 H   0  0  0  0  0  0  0  0  0  0  0  0
   -6.7194    1.3012   -0.5925 H   0  0  0  0  0  0  0  0  0  0  0  0
    3.1304   -0.6313   -1.7471 H   0  0  0  0  0  0  0  0  0  0  0  0
    5.9700    0.4814   -1.1677 H   0  0  0  0  0  0  0  0  0  0  0  0
    7.8859   -0.3580    0.1327 H   0  0  0  0  0  0  0  0  0  0  0  0
    7.5313   -1.9325    1.9203 H   0  0  0  0  0  0  0  0  0  0  0  0
    5.2019   -2.7086    2.4458 H   0  0  0  0  0  0  0  0  0  0  0  0
    3.2792   -1.8432    1.1138 H   0  0  0  0  0  0  0  0  0  0  0  0
  1  2  2  0
  2  3  1  0
  3  4  1  0
  4  5  1  0
  5  6  1  0
  6  7  2  0
  7  8  1  0
  8  9  1  0
  9 10  2  0
  9 11  1  0
 11 12  1  0
 11 13  1  0
 13 14  1  0
 13 15  1  0
 15 16  1  0
 15 17  1  0
 17 18  1  0
 18 19  1  0
  2 20  1  0
 20 21  1  0
 21 22  2  0
 22 23  1  0
 23 24  2  0
 24 25  1  0
 25 26  2  0
 10  6  1  0
 26 21  1  0
 17  8  1  0
  3 27  1  0
  3 28  1  0
  4 29  1  0
  4 30  1  0
  5 31  1  0
  5 32  1  0
  7 33  1  0
 11 34  1  0
 12 35  1  0
 13 36  1  0
 14 37  1  0
 15 38  1  0
 16 39  1  0
 17 40  1  0
 18 41  1  0
 18 42  1  0
 19 43  1  0
 20 44  1  0
 22 45  1  0
 23 46  1  0
 24 47  1  0
 25 48  1  0
 26 49  1  0
M  END
$$$$
