@<TRIPOS>MOLECULE
*****
 49 51 0 0 0
SMALL
GASTEIGER

@<TRIPOS>ATOM
      1 O           3.1299    1.6165    0.5479 O.2     1  UNL1       -0.2755
      2 C           2.7049    1.0794   -0.5078 C.2     1  UNL1        0.2172
      3 C           1.5796    1.5969   -1.3224 C.3     1  UNL1        0.0246
      4 C           0.9470    2.8284   -0.7401 C.3     1  UNL1       -0.0393
      5 C           0.3565    2.6364    0.6160 C.3     1  UNL1       -0.0085
      6 C          -0.7102    1.5763    0.5331 C.ar    1  UNL1        0.0595
      7 C          -2.0515    1.7500    0.2709 C.ar    1  UNL1        0.0280
      8 N          -2.6291    0.5161    0.2951 N.ar    1  UNL1       -0.3241
      9 C          -1.6749   -0.3887    0.5635 C.ar    1  UNL1        0.1417
     10 N          -0.5145    0.2766    0.7049 N.ar    1  UNL1       -0.2345
     11 C          -1.9173   -1.8483    0.6725 C.3     1  UNL1        0.1409
     12 O          -1.5240   -2.3072    1.9502 O.3     1  UNL1       -0.3814
     13 C          -3.3654   -2.1899    0.5110 C.3     1  UNL1        0.1158
     14 O          -4.0374   -1.8983    1.7140 O.3     1  UNL1       -0.3861
     15 C          -3.9761   -1.2550   -0.5402 C.3     1  UNL1        0.1067
     16 O          -5.2377   -1.6858   -0.9141 O.3     1  UNL1       -0.3870
     17 C          -3.9882    0.1226    0.0889 C.3     1  UNL1        0.0871
     18 C          -4.7500    1.0978   -0.7835 C.3     1  UNL1        0.0675
     19 O          -6.0636    0.6668   -0.9505 O.3     1  UNL1       -0.3929
     20 N           3.4106   -0.1174   -0.8880 N.am    1  UNL1       -0.2855
     21 C           4.4896   -0.6231   -0.1170 C.ar    1  UNL1        0.0334
     22 C           5.7833   -0.2237   -0.3718 C.ar    1  UNL1       -0.0405
     23 C           6.8621   -0.6861    0.3485 C.ar    1  UNL1       -0.0600
     24 C           6.6697   -1.5935    1.3806 C.ar    1  UNL1       -0.0616
     25 C           5.3804   -1.9981    1.6423 C.ar    1  UNL1       -0.0600
     26 C           4.3012   -1.5304    0.9158 C.ar    1  UNL1       -0.0405
     27 H           1.9950    1.8773   -2.3239 H       1  UNL1        0.0358
     28 H           0.8552    0.7559   -1.4264 H       1  UNL1        0.0358
     29 H           0.2283    3.3036   -1.4232 H       1  UNL1        0.0273
     30 H           1.7783    3.5871   -0.6180 H       1  UNL1        0.0273
     31 H           1.0961    2.3240    1.3482 H       1  UNL1        0.0329
     32 H          -0.1103    3.5781    0.9717 H       1  UNL1        0.0329
     33 H          -2.5613    2.6831    0.0803 H       1  UNL1        0.0828
     34 H          -1.3306   -2.3766   -0.1136 H       1  UNL1        0.0702
     35 H          -0.7492   -2.8981    1.8535 H       1  UNL1        0.2105
     36 H          -3.5431   -3.2402    0.2449 H       1  UNL1        0.0650
     37 H          -5.0246   -1.9114    1.5060 H       1  UNL1        0.2100
     38 H          -3.2661   -1.2068   -1.3962 H       1  UNL1        0.0642
     39 H          -5.4065   -1.3866   -1.8621 H       1  UNL1        0.2100
     40 H          -4.4794    0.0150    1.0861 H       1  UNL1        0.0577
     41 H          -4.6533    2.1264   -0.4420 H       1  UNL1        0.0579
     42 H          -4.2826    1.0417   -1.8062 H       1  UNL1        0.0579
     43 H          -6.7194    1.3012   -0.5925 H       1  UNL1        0.2095
     44 H           3.1304   -0.6313   -1.7471 H       1  UNL1        0.1548
     45 H           5.9700    0.4814   -1.1677 H       1  UNL1        0.0636
     46 H           7.8859   -0.3580    0.1327 H       1  UNL1        0.0618
     47 H           7.5313   -1.9325    1.9203 H       1  UNL1        0.0618
     48 H           5.2019   -2.7086    2.4458 H       1  UNL1        0.0618
     49 H           3.2792   -1.8432    1.1138 H       1  UNL1        0.0636
@<TRIPOS>BOND
     1     1     2    2
     2     2     3    1
     3     3     4    1
     4     4     5    1
     5     5     6    1
     6     6     7   ar
     7     7     8   ar
     8     8     9   ar
     9     9    10   ar
    10     9    11    1
    11    11    12    1
    12    11    13    1
    13    13    14    1
    14    13    15    1
    15    15    16    1
    16    15    17    1
    17    17    18    1
    18    18    19    1
    19     2    20   am
    20    20    21    1
    21    21    22   ar
    22    22    23   ar
    23    23    24   ar
    24    24    25   ar
    25    25    26   ar
    26    10     6   ar
    27    26    21   ar
    28    17     8    1
    29     3    27    1
    30     3    28    1
    31     4    29    1
    32     4    30    1
    33     5    31    1
    34     5    32    1
    35     7    33    1
    36    11    34    1
    37    12    35    1
    38    13    36    1
    39    14    37    1
    40    15    38    1
    41    16    39    1
    42    17    40    1
    43    18    41    1
    44    18    42    1
    45    19    43    1
    46    20    44    1
    47    22    45    1
    48    23    46    1
    49    24    47    1
    50    25    48    1
    51    26    49    1
