@<TRIPOS>MOLECULE
*****
 67 72 0 0 0
SMALL
GASTEIGER

@<TRIPOS>ATOM
      1 C           0.8347   -0.2172   -1.1874 C.3     1  UNL1       -0.0586
      2 C           0.4582    1.2240   -0.8834 C.3     1  UNL1       -0.0186
      3 C          -0.2547    1.7989   -2.0871 C.3     1  UNL1       -0.0586
      4 C          -0.3508    1.2254    0.3531 C.ar    1  UNL1       -0.0023
      5 C          -1.6405    0.7008    0.4983 C.ar    1  UNL1        0.0622
      6 C          -2.4126   -0.0061   -0.5148 C.ar    1  UNL1        0.2536
      7 N          -2.1229   -0.3975   -1.7507 N.ar    1  UNL1       -0.1042
      8 N          -3.1671   -1.0227   -2.3039 N.ar    1  UNL1       -0.0714
      9 C          -4.1343   -1.0150   -1.3729 C.ar    1  UNL1        0.4167
     10 O          -5.4008   -1.5462   -1.4919 O.3     1  UNL1       -0.4449
     11 C          -6.3710   -1.5191   -0.4840 C.3     1  UNL1        0.1072
     12 C          -6.9237   -2.8975   -0.2395 C.3     1  UNL1       -0.0030
     13 C          -8.0102   -2.9203    0.8009 C.3     1  UNL1       -0.0008
     14 N          -8.5936   -1.6205    1.0287 N.3     1  UNL1       -0.3157
     15 C          -8.8159   -1.0112   -0.2780 C.3     1  UNL1       -0.0008
     16 C          -7.5283   -0.6533   -0.9607 C.3     1  UNL1       -0.0030
     17 O          -3.6540   -0.4034   -0.3199 O.2     1  UNL1       -0.3888
     18 C          -2.0432    0.9500    1.7931 C.ar    1  UNL1        0.0425
     19 N          -1.0482    1.5954    2.4105 N.ar    1  UNL1       -0.2341
     20 N          -0.9547    2.0584    3.6430 N.ar    1  UNL1       -0.1548
     21 C           0.1585    2.7067    4.0662 C.ar    1  UNL1        0.1388
     22 N           1.1927    2.9029    3.2722 N.ar    1  UNL1       -0.2167
     23 C           1.1412    2.4364    1.9764 C.ar    1  UNL1        0.1507
     24 N           2.2794    2.6953    1.1626 N.pl3   1  UNL1       -0.2954
     25 C           3.5004    2.0029    1.2960 C.ar    1  UNL1        0.0690
     26 C           4.0469    1.2831    0.2661 C.ar    1  UNL1       -0.0228
     27 C           5.2703    0.5888    0.3765 C.ar    1  UNL1        0.0737
     28 C           5.7891   -0.1369   -0.7738 C.2     1  UNL1        0.2471
     29 O           5.0582   -0.3187   -1.8029 O.2     1  UNL1       -0.2701
     30 N           7.0832   -0.6825   -0.8655 N.am    1  UNL1       -0.3084
     31 C           7.5456   -1.4098   -2.0573 C.3     1  UNL1        0.0235
     32 C           8.9450   -1.1326   -2.5161 C.3     1  UNL1       -0.0328
     33 C           8.6229   -2.3989   -1.8020 C.3     1  UNL1       -0.0328
     34 C           5.8974    0.6691    1.5834 C.ar    1  UNL1        0.1383
     35 F           7.0607    0.0370    1.8008 F       1  UNL1       -0.2046
     36 C           5.3486    1.4036    2.6455 C.ar    1  UNL1        0.0114
     37 C           4.1569    2.0736    2.5197 C.ar    1  UNL1        0.1472
     38 F           3.6783    2.7870    3.5844 F       1  UNL1       -0.2035
     39 C           0.0092    1.7852    1.5668 C.ar    1  UNL1        0.1095
     40 H           0.6172   -0.4735   -2.2582 H       1  UNL1        0.0235
     41 H           1.9092   -0.4347   -0.9800 H       1  UNL1        0.0235
     42 H           0.2893   -0.9262   -0.4948 H       1  UNL1        0.0235
     43 H           1.4116    1.7677   -0.7596 H       1  UNL1        0.0344
     44 H          -0.2728    1.1650   -2.9678 H       1  UNL1        0.0235
     45 H          -1.2554    2.1781   -1.8267 H       1  UNL1        0.0235
     46 H           0.3184    2.7351   -2.4125 H       1  UNL1        0.0235
     47 H          -5.9868   -1.0885    0.4726 H       1  UNL1        0.0735
     48 H          -6.0772   -3.5528    0.0625 H       1  UNL1        0.0313
     49 H          -7.3131   -3.3040   -1.2106 H       1  UNL1        0.0313
     50 H          -7.6042   -3.2947    1.7631 H       1  UNL1        0.0425
     51 H          -8.8330   -3.5773    0.4257 H       1  UNL1        0.0425
     52 H          -8.0453   -1.0147    1.6509 H       1  UNL1        0.1219
     53 H          -9.4009   -0.0996   -0.1077 H       1  UNL1        0.0425
     54 H          -9.4150   -1.7284   -0.8672 H       1  UNL1        0.0425
     55 H          -7.5801   -0.7073   -2.0560 H       1  UNL1        0.0313
     56 H          -7.2116    0.3957   -0.7095 H       1  UNL1        0.0313
     57 H          -3.0169    0.6552    2.2094 H       1  UNL1        0.0838
     58 H           0.2045    3.0755    5.0867 H       1  UNL1        0.1066
     59 H           2.2201    3.4521    0.4560 H       1  UNL1        0.1537
     60 H           3.5920    1.2031   -0.7146 H       1  UNL1        0.0645
     61 H           7.7674   -0.5911   -0.1030 H       1  UNL1        0.1493
     62 H           6.7510   -1.5763   -2.7846 H       1  UNL1        0.0498
     63 H           9.1290   -1.2389   -3.6097 H       1  UNL1        0.0284
     64 H           9.4603   -0.2893   -2.0348 H       1  UNL1        0.0284
     65 H           9.0962   -2.4480   -0.7767 H       1  UNL1        0.0284
     66 H           8.7196   -3.3474   -2.3350 H       1  UNL1        0.0284
     67 H           5.8756    1.4504    3.6032 H       1  UNL1        0.0676
@<TRIPOS>BOND
     1     1     2    1
     2     2     3    1
     3     2     4    1
     4     4     5   ar
     5     5     6    1
     6     6     7   ar
     7     7     8   ar
     8     8     9   ar
     9     9    10    1
    10    10    11    1
    11    11    12    1
    12    12    13    1
    13    13    14    1
    14    14    15    1
    15    15    16    1
    16     9    17   ar
    17     5    18   ar
    18    18    19   ar
    19    19    20   ar
    20    20    21   ar
    21    21    22   ar
    22    22    23   ar
    23    23    24    1
    24    24    25    1
    25    25    26   ar
    26    26    27   ar
    27    27    28    1
    28    28    29    2
    29    28    30   am
    30    30    31    1
    31    31    32    1
    32    32    33    1
    33    27    34   ar
    34    34    35    1
    35    34    36   ar
    36    36    37   ar
    37    37    38    1
    38    23    39   ar
    39    39     4   ar
    40    17     6   ar
    41    39    19   ar
    42    16    11    1
    43    37    25   ar
    44    33    31    1
    45     1    40    1
    46     1    41    1
    47     1    42    1
    48     2    43    1
    49     3    44    1
    50     3    45    1
    51     3    46    1
    52    11    47    1
    53    12    48    1
    54    12    49    1
    55    13    50    1
    56    13    51    1
    57    14    52    1
    58    15    53    1
    59    15    54    1
    60    16    55    1
    61    16    56    1
    62    18    57    1
    63    21    58    1
    64    24    59    1
    65    26    60    1
    66    30    61    1
    67    31    62    1
    68    32    63    1
    69    32    64    1
    70    33    65    1
    71    33    66    1
    72    36    67    1
