@<TRIPOS>MOLECULE
*****
 48 50 0 0 0
SMALL
GASTEIGER

@<TRIPOS>ATOM
      1 C           0.5512   -1.4580   -0.2196 C.3     1  UNL1        0.1142
      2 C           1.8168   -0.6817   -0.1133 C.3     1  UNL1        0.0879
      3 O           2.2378   -0.6622    1.2000 O.3     1  UNL1       -0.2837
      4 P           3.6629    0.1933    1.4178 P.3     1  UNL1        0.4834
      5 O           4.6328    0.0599    0.0166 O.3     1  UNL1       -0.3022
      6 O           4.4193   -0.2822    2.6397 O.2     1  UNL1       -0.2269
      7 O           3.4064    1.8587    1.6327 O.3     1  UNL1       -0.1862
      8 P           4.9142    2.6340    1.4844 P.3     1  UNL1        0.4808
      9 O           6.1088    1.7489    2.3091 O.3     1  UNL1       -0.3023
     10 O           5.3088    2.7146   -0.1552 O.3     1  UNL1       -0.3023
     11 O           4.8691    4.0023    2.1083 O.2     1  UNL1       -0.2271
     12 O          -0.4849   -0.9107    0.5564 O.3     1  UNL1       -0.3456
     13 C          -1.6234   -1.5732    0.1624 C.3     1  UNL1        0.1666
     14 N          -2.8489   -0.8335    0.3666 N.ar    1  UNL1       -0.2869
     15 C          -3.9378   -1.1782   -0.3799 C.ar    1  UNL1        0.1004
     16 N          -4.9468   -0.3641   -0.0219 N.ar    1  UNL1       -0.2287
     17 C          -4.5570    0.4926    0.9244 C.ar    1  UNL1        0.1672
     18 C          -3.2323    0.1897    1.1637 C.ar    1  UNL1        0.1483
     19 N          -2.4469    0.8214    2.0568 N.ar    1  UNL1       -0.3088
     20 C          -3.0497    1.8226    2.7475 C.ar    1  UNL1        0.2252
     21 N          -2.3173    2.4586    3.6238 N.2     1  UNL1       -0.2664
     22 N          -4.3542    2.1579    2.5462 N.ar    1  UNL1       -0.1758
     23 C          -5.1276    1.5173    1.6495 C.ar    1  UNL1        0.2453
     24 O          -6.4591    1.8398    1.4258 O.3     1  UNL1       -0.4908
     25 C          -1.4382   -1.9595   -1.2893 C.3     1  UNL1        0.1294
     26 O          -1.2683   -3.3377   -1.4175 O.3     1  UNL1       -0.3846
     27 C          -0.0895   -1.3312   -1.5961 C.3     1  UNL1        0.1283
     28 O           0.6122   -1.9954   -2.5684 O.3     1  UNL1       -0.2780
     29 P           1.1105   -0.8672   -3.7305 P.3     1  UNL1        0.4728
     30 O           0.4900   -1.2484   -5.2547 O.3     1  UNL1       -0.3026
     31 O           0.5868    0.7050   -3.3486 O.3     1  UNL1       -0.3026
     32 O           2.6113   -0.9096   -3.7887 O.2     1  UNL1       -0.2275
     33 H           0.6402   -2.5362   -0.0395 H       1  UNL1        0.0647
     34 H           1.5963    0.3566   -0.4291 H       1  UNL1        0.0592
     35 H           2.5620   -1.1767   -0.7587 H       1  UNL1        0.0592
     36 H           4.8587   -0.8975   -0.1740 H       1  UNL1        0.2220
     37 H           6.3025    0.9279    1.8152 H       1  UNL1        0.2220
     38 H           5.1484    3.6616   -0.4655 H       1  UNL1        0.2220
     39 H          -1.6580   -2.5239    0.7690 H       1  UNL1        0.0866
     40 H          -4.1958   -1.9035   -1.1528 H       1  UNL1        0.1030
     41 H          -1.4474    0.5678    2.2141 H       1  UNL1        0.1703
     42 H          -2.7824    3.2359    4.1612 H       1  UNL1        0.1898
     43 H          -7.2121    1.2011    1.6732 H       1  UNL1        0.2938
     44 H          -2.2502   -1.5900   -1.9386 H       1  UNL1        0.0666
     45 H          -1.2445   -3.8045   -0.5476 H       1  UNL1        0.2101
     46 H          -0.1743   -0.2372   -1.7775 H       1  UNL1        0.0656
     47 H           0.0485   -2.1244   -5.2911 H       1  UNL1        0.2220
     48 H           0.6511    1.2192   -4.2064 H       1  UNL1        0.2220
@<TRIPOS>BOND
     1     1     2    1
     2     2     3    1
     3     3     4    1
     4     4     5    1
     5     4     6    2
     6     4     7    1
     7     7     8    1
     8     8     9    1
     9     8    10    1
    10     8    11    2
    11     1    12    1
    12    12    13    1
    13    13    14    1
    14    14    15   ar
    15    15    16   ar
    16    16    17   ar
    17    17    18   ar
    18    18    19   ar
    19    19    20   ar
    20    20    21    2
    21    20    22   ar
    22    22    23   ar
    23    23    24    1
    24    13    25    1
    25    25    26    1
    26    25    27    1
    27    27    28    1
    28    28    29    1
    29    29    30    1
    30    29    31    1
    31    29    32    2
    32    27     1    1
    33    18    14   ar
    34    23    17   ar
    35     1    33    1
    36     2    34    1
    37     2    35    1
    38     5    36    1
    39     9    37    1
    40    10    38    1
    41    13    39    1
    42    15    40    1
    43    19    41    1
    44    21    42    1
    45    24    43    1
    46    25    44    1
    47    26    45    1
    48    27    46    1
    49    30    47    1
    50    31    48    1
