@<TRIPOS>MOLECULE
*****
 67 72 0 0 0
SMALL
GASTEIGER

@<TRIPOS>ATOM
      1 C          -4.8048    1.2232    2.4462 C.3     1  UNL1       -0.0380
      2 C          -5.3298    1.7227    1.1360 C.ar    1  UNL1       -0.0279
      3 C          -5.7703    3.0396    1.0571 C.ar    1  UNL1       -0.0557
      4 C          -6.3161    3.5093   -0.1027 C.ar    1  UNL1       -0.0433
      5 C          -6.4170    2.6547   -1.1767 C.ar    1  UNL1        0.0279
      6 N          -5.9906    1.3986   -1.0869 N.ar    1  UNL1       -0.2583
      7 C          -5.4304    0.8771    0.0629 C.ar    1  UNL1        0.0581
      8 C          -4.9360   -0.5188    0.0166 C.3     1  UNL1        0.0415
      9 N          -3.5928   -0.5949   -0.4252 N.3     1  UNL1       -0.2965
     10 C          -2.6917    0.2690    0.2529 C.3     1  UNL1        0.0017
     11 C          -1.3964    0.2808   -0.5568 C.3     1  UNL1       -0.0095
     12 C          -0.8003   -1.0793   -0.6425 C.3     1  UNL1        0.1241
     13 C          -1.7405   -2.2263   -0.6286 C.3     1  UNL1       -0.0095
     14 C          -3.1271   -1.9582   -0.1734 C.3     1  UNL1        0.0017
     15 C           0.2794   -1.1649    0.3853 C.2     1  UNL1        0.2516
     16 O           0.1505   -1.5325    1.5823 O.2     1  UNL1       -0.2724
     17 N           1.5122   -0.7664   -0.1753 N.am    1  UNL1       -0.1920
     18 C           2.7272   -0.3815    0.4615 C.ar    1  UNL1        0.0455
     19 C           2.9712    0.9563    0.7226 C.ar    1  UNL1       -0.0392
     20 C           4.1431    1.3069    1.3332 C.ar    1  UNL1       -0.0523
     21 C           5.1162    0.4117    1.7154 C.ar    1  UNL1       -0.0178
     22 C           6.3437    0.8585    2.3504 C.ar    1  UNL1       -0.0179
     23 C           7.5178    0.1598    2.1706 C.ar    1  UNL1       -0.0540
     24 C           8.7110    0.5601    2.7573 C.ar    1  UNL1       -0.0612
     25 C           8.7552    1.6928    3.5548 C.ar    1  UNL1       -0.0617
     26 C           7.5872    2.3918    3.7373 C.ar    1  UNL1       -0.0612
     27 C           6.4092    1.9840    3.1489 C.ar    1  UNL1       -0.0540
     28 C           4.8632   -0.9273    1.4503 C.ar    1  UNL1       -0.0523
     29 C           3.6885   -1.3032    0.8349 C.ar    1  UNL1       -0.0392
     30 C           1.3382   -0.7844   -1.5769 C.2     1  UNL1        0.3219
     31 O           2.2237   -0.4879   -2.4310 O.2     1  UNL1       -0.2512
     32 N           0.0025   -1.1915   -1.8826 N.am    1  UNL1       -0.2228
     33 C          -0.4249   -1.6069   -3.1689 C.ar    1  UNL1        0.1501
     34 C          -0.3532   -2.9020   -3.6272 C.ar    1  UNL1       -0.0144
     35 C          -0.7943   -3.2591   -4.8842 C.ar    1  UNL1        0.0074
     36 C          -1.3185   -2.2673   -5.6836 C.ar    1  UNL1        0.2648
     37 O          -1.7500   -2.5171   -6.8618 O.2     1  UNL1       -0.2664
     38 N          -1.3832   -1.0046   -5.2218 N.ar    1  UNL1       -0.2415
     39 N          -0.9534   -0.6942   -4.0183 N.ar    1  UNL1       -0.1554
     40 H          -3.7516    1.5175    2.5898 H       1  UNL1        0.0278
     41 H          -5.0219    0.1646    2.5958 H       1  UNL1        0.0278
     42 H          -5.3962    1.7880    3.2244 H       1  UNL1        0.0278
     43 H          -5.6521    3.6452    1.9553 H       1  UNL1        0.0621
     44 H          -6.6551    4.5466   -0.1416 H       1  UNL1        0.0633
     45 H          -6.8472    3.0336   -2.0899 H       1  UNL1        0.0829
     46 H          -5.5909   -1.0743   -0.7164 H       1  UNL1        0.0491
     47 H          -5.0689   -1.0118    1.0273 H       1  UNL1        0.0491
     48 H          -3.0471    1.3243    0.3077 H       1  UNL1        0.0427
     49 H          -2.5123   -0.0667    1.2882 H       1  UNL1        0.0427
     50 H          -0.7018    0.9777   -0.0411 H       1  UNL1        0.0303
     51 H          -1.6699    0.6644   -1.5558 H       1  UNL1        0.0303
     52 H          -1.3212   -3.0188    0.0660 H       1  UNL1        0.0303
     53 H          -1.7469   -2.7283   -1.6209 H       1  UNL1        0.0303
     54 H          -3.8260   -2.6394   -0.7307 H       1  UNL1        0.0427
     55 H          -3.3118   -2.1774    0.9015 H       1  UNL1        0.0427
     56 H           2.2177    1.6583    0.4264 H       1  UNL1        0.0636
     57 H           4.3166    2.3568    1.5279 H       1  UNL1        0.0624
     58 H           7.5164   -0.7308    1.5528 H       1  UNL1        0.0624
     59 H           9.6307    0.0342    2.6310 H       1  UNL1        0.0618
     60 H           9.6971    1.9895    4.0062 H       1  UNL1        0.0618
     61 H           7.5984    3.2755    4.3491 H       1  UNL1        0.0618
     62 H           5.4873    2.5360    3.2922 H       1  UNL1        0.0624
     63 H           5.6146   -1.6388    1.7452 H       1  UNL1        0.0624
     64 H           3.4873   -2.3600    0.6270 H       1  UNL1        0.0636
     65 H           0.0760   -3.6477   -2.9450 H       1  UNL1        0.0654
     66 H          -0.7471   -4.2666   -5.2586 H       1  UNL1        0.0673
     67 H          -1.7932   -0.2803   -5.8659 H       1  UNL1        0.1922
@<TRIPOS>BOND
     1     1     2    1
     2     2     3   ar
     3     3     4   ar
     4     4     5   ar
     5     5     6   ar
     6     6     7   ar
     7     7     8    1
     8     8     9    1
     9     9    10    1
    10    10    11    1
    11    11    12    1
    12    12    13    1
    13    13    14    1
    14    12    15    1
    15    15    16    2
    16    15    17   am
    17    17    18    1
    18    18    19   ar
    19    19    20   ar
    20    20    21   ar
    21    21    22    1
    22    22    23   ar
    23    23    24   ar
    24    24    25   ar
    25    25    26   ar
    26    26    27   ar
    27    21    28   ar
    28    28    29   ar
    29    17    30   am
    30    30    31    2
    31    30    32   am
    32    32    33    1
    33    33    34   ar
    34    34    35   ar
    35    35    36   ar
    36    36    37    2
    37    36    38   ar
    38    38    39   ar
    39     7     2   ar
    40    14     9    1
    41    29    18   ar
    42    39    33   ar
    43    32    12    1
    44    27    22   ar
    45     1    40    1
    46     1    41    1
    47     1    42    1
    48     3    43    1
    49     4    44    1
    50     5    45    1
    51     8    46    1
    52     8    47    1
    53    10    48    1
    54    10    49    1
    55    11    50    1
    56    11    51    1
    57    13    52    1
    58    13    53    1
    59    14    54    1
    60    14    55    1
    61    19    56    1
    62    20    57    1
    63    23    58    1
    64    24    59    1
    65    25    60    1
    66    26    61    1
    67    27    62    1
    68    28    63    1
    69    29    64    1
    70    34    65    1
    71    35    66    1
    72    38    67    1
