
     RDKit          3D

 67 72  0  0  0  0  0  0  0  0999 V2000
   -4.8048    1.2232    2.4462 C   0  0  0  0  0  0  0  0  0  0  0  0
   -5.3298    1.7227    1.1360 C   0  0  0  0  0  0  0  0  0  0  0  0
   -5.7703    3.0396    1.0571 C   0  0  0  0  0  0  0  0  0  0  0  0
   -6.3161    3.5093   -0.1027 C   0  0  0  0  0  0  0  0  0  0  0  0
   -6.4170    2.6547   -1.1767 C   0  0  0  0  0  0  0  0  0  0  0  0
   -5.9906    1.3986   -1.0869 N   0  0  0  0  0  0  0  0  0  0  0  0
   -5.4304    0.8771    0.0629 C   0  0  0  0  0  0  0  0  0  0  0  0
   -4.9360   -0.5188    0.0166 C   0  0  0  0  0  0  0  0  0  0  0  0
   -3.5928   -0.5949   -0.4252 N   0  0  0  0  0  0  0  0  0  0  0  0
   -2.6917    0.2690    0.2529 C   0  0  0  0  0  0  0  0  0  0  0  0
   -1.3964    0.2808   -0.5568 C   0  0  0  0  0  0  0  0  0  0  0  0
   -0.8003   -1.0793   -0.6425 C   0  0  0  0  0  0  0  0  0  0  0  0
   -1.7405   -2.2263   -0.6286 C   0  0  0  0  0  0  0  0  0  0  0  0
   -3.1271   -1.9582   -0.1734 C   0  0  0  0  0  0  0  0  0  0  0  0
    0.2794   -1.1649    0.3853 C   0  0  0  0  0  0  0  0  0  0  0  0
    0.1505   -1.5325    1.5823 O   0  0  0  0  0  0  0  0  0  0  0  0
    1.5122   -0.7664   -0.1753 N   0  0  0  0  0  0  0  0  0  0  0  0
    2.7272   -0.3815    0.4615 C   0  0  0  0  0  0  0  0  0  0  0  0
    2.9712    0.9563    0.7226 C   0  0  0  0  0  0  0  0  0  0  0  0
    4.1431    1.3069    1.3332 C   0  0  0  0  0  0  0  0  0  0  0  0
    5.1162    0.4117    1.7154 C   0  0  0  0  0  0  0  0  0  0  0  0
    6.3437    0.8585    2.3504 C   0  0  0  0  0  0  0  0  0  0  0  0
    7.5178    0.1598    2.1706 C   0  0  0  0  0  0  0  0  0  0  0  0
    8.7110    0.5601    2.7573 C   0  0  0  0  0  0  0  0  0  0  0  0
    8.7552    1.6928    3.5548 C   0  0  0  0  0  0  0  0  0  0  0  0
    7.5872    2.3918    3.7373 C   0  0  0  0  0  0  0  0  0  0  0  0
    6.4092    1.9840    3.1489 C   0  0  0  0  0  0  0  0  0  0  0  0
    4.8632   -0.9273    1.4503 C   0  0  0  0  0  0  0  0  0  0  0  0
    3.6885   -1.3032    0.8349 C   0  0  0  0  0  0  0  0  0  0  0  0
    1.3382   -0.7844   -1.5769 C   0  0  0  0  0  0  0  0  0  0  0  0
    2.2237   -0.4879   -2.4310 O   0  0  0  0  0  0  0  0  0  0  0  0
    0.0025   -1.1915   -1.8826 N   0  0  0  0  0  0  0  0  0  0  0  0
   -0.4249   -1.6069   -3.1689 C   0  0  0  0  0  0  0  0  0  0  0  0
   -0.3532   -2.9020   -3.6272 C   0  0  0  0  0  0  0  0  0  0  0  0
   -0.7943   -3.2591   -4.8842 C   0  0  0  0  0  0  0  0  0  0  0  0
   -1.3185   -2.2673   -5.6836 C   0  0  0  0  0  0  0  0  0  0  0  0
   -1.7500   -2.5171   -6.8618 O   0  0  0  0  0  0  0  0  0  0  0  0
   -1.3832   -1.0046   -5.2218 N   0  0  0  0  0  0  0  0  0  0  0  0
   -0.9534   -0.6942   -4.0183 N   0  0  0  0  0  0  0  0  0  0  0  0
   -3.7516    1.5175    2.5898 H   0  0  0  0  0  0  0  0  0  0  0  0
   -5.0219    0.1646    2.5958 H   0  0  0  0  0  0  0  0  0  0  0  0
   -5.3962    1.7880    3.2244 H   0  0  0  0  0  0  0  0  0  0  0  0
   -5.6521    3.6452    1.9553 H   0  0  0  0  0  0  0  0  0  0  0  0
   -6.6551    4.5466   -0.1416 H   0  0  0  0  0  0  0  0  0  0  0  0
   -6.8472    3.0336   -2.0899 H   0  0  0  0  0  0  0  0  0  0  0  0
   -5.5909   -1.0743   -0.7164 H   0  0  0  0  0  0  0  0  0  0  0  0
   -5.0689   -1.0118    1.0273 H   0  0  0  0  0  0  0  0  0  0  0  0
   -3.0471    1.3243    0.3077 H   0  0  0  0  0  0  0  0  0  0  0  0
   -2.5123   -0.0667    1.2882 H   0  0  0  0  0  0  0  0  0  0  0  0
   -0.7018    0.9777   -0.0411 H   0  0  0  0  0  0  0  0  0  0  0  0
   -1.6699    0.6644   -1.5558 H   0  0  0  0  0  0  0  0  0  0  0  0
   -1.3212   -3.0188    0.0660 H   0  0  0  0  0  0  0  0  0  0  0  0
   -1.7469   -2.7283   -1.6209 H   0  0  0  0  0  0  0  0  0  0  0  0
   -3.8260   -2.6394   -0.7307 H   0  0  0  0  0  0  0  0  0  0  0  0
   -3.3118   -2.1774    0.9015 H   0  0  0  0  0  0  0  0  0  0  0  0
    2.2177    1.6583    0.4264 H   0  0  0  0  0  0  0  0  0  0  0  0
    4.3166    2.3568    1.5279 H   0  0  0  0  0  0  0  0  0  0  0  0
    7.5164   -0.7308    1.5528 H   0  0  0  0  0  0  0  0  0  0  0  0
    9.6307    0.0342    2.6310 H   0  0  0  0  0  0  0  0  0  0  0  0
    9.6971    1.9895    4.0062 H   0  0  0  0  0  0  0  0  0  0  0  0
    7.5984    3.2755    4.3491 H   0  0  0  0  0  0  0  0  0  0  0  0
    5.4873    2.5360    3.2922 H   0  0  0  0  0  0  0  0  0  0  0  0
    5.6146   -1.6388    1.7452 H   0  0  0  0  0  0  0  0  0  0  0  0
    3.4873   -2.3600    0.6270 H   0  0  0  0  0  0  0  0  0  0  0  0
    0.0760   -3.6477   -2.9450 H   0  0  0  0  0  0  0  0  0  0  0  0
   -0.7471   -4.2666   -5.2586 H   0  0  0  0  0  0  0  0  0  0  0  0
   -1.7932   -0.2803   -5.8659 H   0  0  0  0  0  0  0  0  0  0  0  0
  1  2  1  0
  2  3  2  0
  3  4  1  0
  4  5  2  0
  5  6  1  0
  6  7  2  0
  7  8  1  0
  8  9  1  0
  9 10  1  0
 10 11  1  0
 11 12  1  0
 12 13  1  0
 13 14  1  0
 12 15  1  0
 15 16  2  0
 15 17  1  0
 17 18  1  0
 18 19  2  0
 19 20  1  0
 20 21  2  0
 21 22  1  0
 22 23  2  0
 23 24  1  0
 24 25  2  0
 25 26  1  0
 26 27  2  0
 21 28  1  0
 28 29  2  0
 17 30  1  0
 30 31  2  0
 30 32  1  0
 32 33  1  0
 33 34  1  0
 34 35  2  0
 35 36  1  0
 36 37  2  0
 36 38  1  0
 38 39  1  0
  7  2  1  0
 14  9  1  0
 29 18  1  0
 39 33  2  0
 32 12  1  0
 27 22  1  0
  1 40  1  0
  1 41  1  0
  1 42  1  0
  3 43  1  0
  4 44  1  0
  5 45  1  0
  8 46  1  0
  8 47  1  0
 10 48  1  0
 10 49  1  0
 11 50  1  0
 11 51  1  0
 13 52  1  0
 13 53  1  0
 14 54  1  0
 14 55  1  0
 19 56  1  0
 20 57  1  0
 23 58  1  0
 24 59  1  0
 25 60  1  0
 26 61  1  0
 27 62  1  0
 28 63  1  0
 29 64  1  0
 34 65  1  0
 35 66  1  0
 38 67  1  0
M  END
$$$$
