@<TRIPOS>MOLECULE
*****
 59 62 0 0 0
SMALL
GASTEIGER

@<TRIPOS>ATOM
      1 C           6.6295   -2.6897    1.7907 C.3     1  UNL1        0.0790
      2 O           6.8995   -1.6155    0.9094 O.3     1  UNL1       -0.4914
      3 C           5.8252   -0.8916    0.4157 C.ar    1  UNL1        0.1618
      4 C           4.5063   -1.1960    0.7638 C.ar    1  UNL1       -0.0124
      5 C           3.4582   -0.4581    0.2567 C.ar    1  UNL1       -0.0325
      6 C           3.7171    0.5858   -0.5999 C.ar    1  UNL1        0.0246
      7 C           5.0292    0.8876   -0.9449 C.ar    1  UNL1       -0.0056
      8 C           6.0963    0.1625   -0.4491 C.ar    1  UNL1        0.1622
      9 O           7.4069    0.4397   -0.7745 O.3     1  UNL1       -0.4914
     10 C           7.6679    1.5166   -1.6564 C.3     1  UNL1        0.0790
     11 C           2.4333    1.2012   -1.0084 C.2     1  UNL1        0.1669
     12 O           2.2254    2.3644   -1.4006 O.2     1  UNL1       -0.2917
     13 C           1.4756    0.0717   -0.8263 C.3     1  UNL1        0.0264
     14 C           0.0724    0.3535   -1.0705 C.3     1  UNL1       -0.0399
     15 C          -0.6379    1.3936   -0.2771 C.3     1  UNL1       -0.0381
     16 C          -0.6404    1.0441    1.1606 C.3     1  UNL1       -0.0373
     17 C          -1.9857    1.3365    1.8300 C.3     1  UNL1       -0.0005
     18 N          -2.9579    0.6123    1.0904 N.3     1  UNL1       -0.2981
     19 C          -4.0771    0.1093    1.7928 C.3     1  UNL1        0.0242
     20 C          -4.9701   -0.6074    0.8468 C.ar    1  UNL1       -0.0270
     21 C          -4.7677   -1.9565    0.5906 C.ar    1  UNL1       -0.0569
     22 C          -5.5687   -2.6786   -0.2767 C.ar    1  UNL1       -0.0551
     23 C          -6.6032   -2.0090   -0.9001 C.ar    1  UNL1        0.0156
     24 C          -6.8451   -0.6742   -0.6802 C.ar    1  UNL1        0.2734
     25 N          -7.9169   -0.0100   -1.3343 N.pl3   1  UNL1        0.0796
     26 O          -8.1384    1.1987   -1.1364 O.2     1  UNL1        0.0414
     27 O          -8.7404   -0.6779   -2.2037 O.co2   1  UNL1       -0.5760
     28 C          -6.0135    0.0023    0.1980 C.ar    1  UNL1        0.0200
     29 C          -3.1434    1.0439   -0.2422 C.3     1  UNL1       -0.0005
     30 C          -1.9715    1.7001   -0.8827 C.3     1  UNL1       -0.0373
     31 C           1.9512   -0.5084    0.4394 C.3     1  UNL1       -0.0170
     32 H           7.5577   -3.2598    2.0208 H       1  UNL1        0.0660
     33 H           5.8702   -3.3529    1.3573 H       1  UNL1        0.0660
     34 H           6.2091   -2.2470    2.7138 H       1  UNL1        0.0660
     35 H           4.3261   -2.0229    1.4399 H       1  UNL1        0.0658
     36 H           5.2217    1.7123   -1.6179 H       1  UNL1        0.0662
     37 H           8.7598    1.7092   -1.7525 H       1  UNL1        0.0660
     38 H           7.1187    2.4006   -1.2747 H       1  UNL1        0.0660
     39 H           7.2774    1.2184   -2.6547 H       1  UNL1        0.0660
     40 H           1.7836   -0.6837   -1.6363 H       1  UNL1        0.0384
     41 H          -0.0159    0.6530   -2.1676 H       1  UNL1        0.0275
     42 H          -0.4825   -0.6318   -1.0653 H       1  UNL1        0.0275
     43 H           0.0044    2.3277   -0.3645 H       1  UNL1        0.0302
     44 H           0.0901    1.5860    1.7601 H       1  UNL1        0.0280
     45 H          -0.5326   -0.0635    1.2423 H       1  UNL1        0.0280
     46 H          -2.2286    2.4211    1.7578 H       1  UNL1        0.0427
     47 H          -1.9138    0.9673    2.8562 H       1  UNL1        0.0427
     48 H          -3.7876   -0.5823    2.6113 H       1  UNL1        0.0476
     49 H          -4.7025    0.8956    2.2778 H       1  UNL1        0.0476
     50 H          -3.9586   -2.5120    1.0684 H       1  UNL1        0.0621
     51 H          -5.4138   -3.7174   -0.4751 H       1  UNL1        0.0620
     52 H          -7.2726   -2.5114   -1.5932 H       1  UNL1        0.0685
     53 H          -6.2203    1.0627    0.3651 H       1  UNL1        0.0688
     54 H          -4.0238    1.7472   -0.2543 H       1  UNL1        0.0427
     55 H          -3.4757    0.1712   -0.8479 H       1  UNL1        0.0427
     56 H          -1.9417    1.4165   -1.9619 H       1  UNL1        0.0280
     57 H          -2.1325    2.7983   -0.8690 H       1  UNL1        0.0280
     58 H           1.7910    0.0408    1.3631 H       1  UNL1        0.0320
     59 H           1.6766   -1.5940    0.5682 H       1  UNL1        0.0320
@<TRIPOS>UNITY_ATOM_ATTR
25 1
charge 1
27 1
charge -1
@<TRIPOS>BOND
     1     1     2    1
     2     2     3    1
     3     3     4   ar
     4     4     5   ar
     5     5     6   ar
     6     6     7   ar
     7     7     8   ar
     8     8     9    1
     9     9    10    1
    10     6    11    1
    11    11    12    2
    12    11    13    1
    13    13    14    1
    14    14    15    1
    15    15    16    1
    16    16    17    1
    17    17    18    1
    18    18    19    1
    19    19    20    1
    20    20    21   ar
    21    21    22   ar
    22    22    23   ar
    23    23    24   ar
    24    24    25    1
    25    25    26    2
    26    25    27    1
    27    24    28   ar
    28    18    29    1
    29    29    30    1
    30    13    31    1
    31     8     3   ar
    32    30    15    1
    33    31     5    1
    34    28    20   ar
    35     1    32    1
    36     1    33    1
    37     1    34    1
    38     4    35    1
    39     7    36    1
    40    10    37    1
    41    10    38    1
    42    10    39    1
    43    13    40    1
    44    14    41    1
    45    14    42    1
    46    15    43    1
    47    16    44    1
    48    16    45    1
    49    17    46    1
    50    17    47    1
    51    19    48    1
    52    19    49    1
    53    21    50    1
    54    22    51    1
    55    23    52    1
    56    28    53    1
    57    29    54    1
    58    29    55    1
    59    30    56    1
    60    30    57    1
    61    31    58    1
    62    31    59    1
