
     RDKit          3D

 59 62  0  0  0  0  0  0  0  0999 V2000
    6.6295   -2.6897    1.7907 C   0  0  0  0  0  0  0  0  0  0  0  0
    6.8995   -1.6155    0.9094 O   0  0  0  0  0  0  0  0  0  0  0  0
    5.8252   -0.8916    0.4157 C   0  0  0  0  0  0  0  0  0  0  0  0
    4.5063   -1.1960    0.7638 C   0  0  0  0  0  0  0  0  0  0  0  0
    3.4582   -0.4581    0.2567 C   0  0  0  0  0  0  0  0  0  0  0  0
    3.7171    0.5858   -0.5999 C   0  0  0  0  0  0  0  0  0  0  0  0
    5.0292    0.8876   -0.9449 C   0  0  0  0  0  0  0  0  0  0  0  0
    6.0963    0.1625   -0.4491 C   0  0  0  0  0  0  0  0  0  0  0  0
    7.4069    0.4397   -0.7745 O   0  0  0  0  0  0  0  0  0  0  0  0
    7.6679    1.5166   -1.6564 C   0  0  0  0  0  0  0  0  0  0  0  0
    2.4333    1.2012   -1.0084 C   0  0  0  0  0  0  0  0  0  0  0  0
    2.2254    2.3644   -1.4006 O   0  0  0  0  0  0  0  0  0  0  0  0
    1.4756    0.0717   -0.8263 C   0  0  0  0  0  0  0  0  0  0  0  0
    0.0724    0.3535   -1.0705 C   0  0  0  0  0  0  0  0  0  0  0  0
   -0.6379    1.3936   -0.2771 C   0  0  0  0  0  0  0  0  0  0  0  0
   -0.6404    1.0441    1.1606 C   0  0  0  0  0  0  0  0  0  0  0  0
   -1.9857    1.3365    1.8300 C   0  0  0  0  0  0  0  0  0  0  0  0
   -2.9579    0.6123    1.0904 N   0  0  0  0  0  0  0  0  0  0  0  0
   -4.0771    0.1093    1.7928 C   0  0  0  0  0  0  0  0  0  0  0  0
   -4.9701   -0.6074    0.8468 C   0  0  0  0  0  0  0  0  0  0  0  0
   -4.7677   -1.9565    0.5906 C   0  0  0  0  0  0  0  0  0  0  0  0
   -5.5687   -2.6786   -0.2767 C   0  0  0  0  0  0  0  0  0  0  0  0
   -6.6032   -2.0090   -0.9001 C   0  0  0  0  0  0  0  0  0  0  0  0
   -6.8451   -0.6742   -0.6802 C   0  0  0  0  0  0  0  0  0  0  0  0
   -7.9169   -0.0100   -1.3343 N   0  0  0  0  0  4  0  0  0  0  0  0
   -8.1384    1.1987   -1.1364 O   0  0  0  0  0  0  0  0  0  0  0  0
   -8.7404   -0.6779   -2.2037 O   0  0  0  0  0  1  0  0  0  0  0  0
   -6.0135    0.0023    0.1980 C   0  0  0  0  0  0  0  0  0  0  0  0
   -3.1434    1.0439   -0.2422 C   0  0  0  0  0  0  0  0  0  0  0  0
   -1.9715    1.7001   -0.8827 C   0  0  0  0  0  0  0  0  0  0  0  0
    1.9512   -0.5084    0.4394 C   0  0  0  0  0  0  0  0  0  0  0  0
    7.5577   -3.2598    2.0208 H   0  0  0  0  0  0  0  0  0  0  0  0
    5.8702   -3.3529    1.3573 H   0  0  0  0  0  0  0  0  0  0  0  0
    6.2091   -2.2470    2.7138 H   0  0  0  0  0  0  0  0  0  0  0  0
    4.3261   -2.0229    1.4399 H   0  0  0  0  0  0  0  0  0  0  0  0
    5.2217    1.7123   -1.6179 H   0  0  0  0  0  0  0  0  0  0  0  0
    8.7598    1.7092   -1.7525 H   0  0  0  0  0  0  0  0  0  0  0  0
    7.1187    2.4006   -1.2747 H   0  0  0  0  0  0  0  0  0  0  0  0
    7.2774    1.2184   -2.6547 H   0  0  0  0  0  0  0  0  0  0  0  0
    1.7836   -0.6837   -1.6363 H   0  0  0  0  0  0  0  0  0  0  0  0
   -0.0159    0.6530   -2.1676 H   0  0  0  0  0  0  0  0  0  0  0  0
   -0.4825   -0.6318   -1.0653 H   0  0  0  0  0  0  0  0  0  0  0  0
    0.0044    2.3277   -0.3645 H   0  0  0  0  0  0  0  0  0  0  0  0
    0.0901    1.5860    1.7601 H   0  0  0  0  0  0  0  0  0  0  0  0
   -0.5326   -0.0635    1.2423 H   0  0  0  0  0  0  0  0  0  0  0  0
   -2.2286    2.4211    1.7578 H   0  0  0  0  0  0  0  0  0  0  0  0
   -1.9138    0.9673    2.8562 H   0  0  0  0  0  0  0  0  0  0  0  0
   -3.7876   -0.5823    2.6113 H   0  0  0  0  0  0  0  0  0  0  0  0
   -4.7025    0.8956    2.2778 H   0  0  0  0  0  0  0  0  0  0  0  0
   -3.9586   -2.5120    1.0684 H   0  0  0  0  0  0  0  0  0  0  0  0
   -5.4138   -3.7174   -0.4751 H   0  0  0  0  0  0  0  0  0  0  0  0
   -7.2726   -2.5114   -1.5932 H   0  0  0  0  0  0  0  0  0  0  0  0
   -6.2203    1.0627    0.3651 H   0  0  0  0  0  0  0  0  0  0  0  0
   -4.0238    1.7472   -0.2543 H   0  0  0  0  0  0  0  0  0  0  0  0
   -3.4757    0.1712   -0.8479 H   0  0  0  0  0  0  0  0  0  0  0  0
   -1.9417    1.4165   -1.9619 H   0  0  0  0  0  0  0  0  0  0  0  0
   -2.1325    2.7983   -0.8690 H   0  0  0  0  0  0  0  0  0  0  0  0
    1.7910    0.0408    1.3631 H   0  0  0  0  0  0  0  0  0  0  0  0
    1.6766   -1.5940    0.5682 H   0  0  0  0  0  0  0  0  0  0  0  0
  1  2  1  0
  2  3  1  0
  3  4  2  0
  4  5  1  0
  5  6  2  0
  6  7  1  0
  7  8  2  0
  8  9  1  0
  9 10  1  0
  6 11  1  0
 11 12  2  0
 11 13  1  0
 13 14  1  0
 14 15  1  0
 15 16  1  0
 16 17  1  0
 17 18  1  0
 18 19  1  0
 19 20  1  0
 20 21  2  0
 21 22  1  0
 22 23  2  0
 23 24  1  0
 24 25  1  0
 25 26  2  0
 25 27  1  0
 24 28  2  0
 18 29  1  0
 29 30  1  0
 13 31  1  0
  8  3  1  0
 30 15  1  0
 31  5  1  0
 28 20  1  0
  1 32  1  0
  1 33  1  0
  1 34  1  0
  4 35  1  0
  7 36  1  0
 10 37  1  0
 10 38  1  0
 10 39  1  0
 13 40  1  0
 14 41  1  0
 14 42  1  0
 15 43  1  0
 16 44  1  0
 16 45  1  0
 17 46  1  0
 17 47  1  0
 19 48  1  0
 19 49  1  0
 21 50  1  0
 22 51  1  0
 23 52  1  0
 28 53  1  0
 29 54  1  0
 29 55  1  0
 30 56  1  0
 30 57  1  0
 31 58  1  0
 31 59  1  0
M  CHG  2  25   1  27  -1
M  END
$$$$
