@<TRIPOS>MOLECULE
*****
 76 79 0 0 0
SMALL
GASTEIGER

@<TRIPOS>ATOM
      1 C           1.9537    1.3056    3.2975 C.3     1  UNL1       -0.0421
      2 C           1.6736    1.3475    1.8430 C.3     1  UNL1        0.0515
      3 C           2.8256    0.7469    1.0953 C.ar    1  UNL1       -0.0271
      4 C           3.8063    1.5648    0.5411 C.ar    1  UNL1       -0.0562
      5 C           4.8913    1.0867   -0.1488 C.ar    1  UNL1       -0.0537
      6 C           5.0557   -0.2702   -0.3222 C.ar    1  UNL1       -0.0165
      7 C           6.2098   -0.7720   -1.0664 C.ar    1  UNL1       -0.0015
      8 C           6.1793   -1.9251   -1.8060 C.ar    1  UNL1       -0.0475
      9 C           7.3225   -2.3389   -2.4910 C.ar    1  UNL1        0.0036
     10 C           8.4920   -1.6008   -2.4379 C.ar    1  UNL1        0.2511
     11 O           9.4911   -2.0040   -3.0658 O.2     1  UNL1       -0.2677
     12 N           8.4878   -0.4770   -1.7057 N.ar    1  UNL1       -0.3177
     13 C           9.6941    0.3018   -1.6403 C.3     1  UNL1        0.0147
     14 C           7.3838   -0.0568   -1.0285 C.ar    1  UNL1        0.0153
     15 C           4.1051   -1.0970    0.2146 C.ar    1  UNL1       -0.0537
     16 C           2.9976   -0.5962    0.9178 C.ar    1  UNL1       -0.0562
     17 N           0.4596    0.7674    1.4016 N.am    1  UNL1       -0.2605
     18 C          -0.0680   -0.5429    1.7002 C.3     1  UNL1        0.0224
     19 C          -1.5464   -0.3340    1.9762 C.3     1  UNL1        0.0075
     20 C          -2.2551   -0.1139    0.6114 C.3     1  UNL1        0.1431
     21 C          -3.5775    0.4073    0.9755 C.3     1  UNL1        0.0111
     22 C          -4.6061    0.7155   -0.0571 C.3     1  UNL1        0.0407
     23 C          -4.2233    1.7010   -1.0971 C.3     1  UNL1       -0.0451
     24 C          -5.1588   -0.5949   -0.5389 C.3     1  UNL1       -0.0451
     25 N          -5.6963    1.3666    0.7039 N.3     1  UNL1       -0.1787
     26 C          -5.1672    2.4979    1.4615 C.3     1  UNL1        0.0091
     27 S          -7.0427    1.8450   -0.1647 S.O2    1  UNL1        0.0292
     28 C          -7.9521    0.5627   -0.9688 C.3     1  UNL1        0.0707
     29 O          -6.8322    2.9831   -1.1379 O.2     1  UNL1       -0.1583
     30 O          -8.0470    2.4487    0.8462 O.2     1  UNL1       -0.1583
     31 C          -2.1527   -1.3263   -0.2010 C.ar    1  UNL1       -0.0041
     32 C          -1.9523   -2.5835    0.3130 C.ar    1  UNL1       -0.0548
     33 C          -1.8178   -3.6762   -0.4975 C.ar    1  UNL1       -0.0614
     34 C          -1.8813   -3.5444   -1.8902 C.ar    1  UNL1       -0.0617
     35 C          -2.0814   -2.2899   -2.4182 C.ar    1  UNL1       -0.0614
     36 C          -2.2110   -1.2269   -1.5863 C.ar    1  UNL1       -0.0548
     37 O          -1.4339    0.8723   -0.0352 O.3     1  UNL1       -0.4388
     38 C          -0.4201    1.5704    0.5849 C.2     1  UNL1        0.4042
     39 O          -0.2306    2.8058    0.4807 O.2     1  UNL1       -0.2262
     40 H           2.7897    2.0448    3.4806 H       1  UNL1        0.0251
     41 H           1.1362    1.5986    3.9537 H       1  UNL1        0.0251
     42 H           2.4052    0.3084    3.5663 H       1  UNL1        0.0251
     43 H           1.7016    2.4499    1.5136 H       1  UNL1        0.0549
     44 H           3.6827    2.6241    0.6770 H       1  UNL1        0.0621
     45 H           5.6515    1.7299   -0.5829 H       1  UNL1        0.0624
     46 H           5.2566   -2.4800   -1.8339 H       1  UNL1        0.0626
     47 H           7.3020   -3.2360   -3.0682 H       1  UNL1        0.0672
     48 H          10.4364   -0.2590   -1.0419 H       1  UNL1        0.0457
     49 H          10.1674    0.4502   -2.6514 H       1  UNL1        0.0457
     50 H           9.5034    1.2947   -1.2033 H       1  UNL1        0.0457
     51 H           7.4783    0.8669   -0.4625 H       1  UNL1        0.0816
     52 H           4.2357   -2.1708    0.0810 H       1  UNL1        0.0624
     53 H           2.3050   -1.3054    1.3063 H       1  UNL1        0.0621
     54 H           0.4262   -1.0313    2.5689 H       1  UNL1        0.0467
     55 H          -0.0055   -1.1566    0.7871 H       1  UNL1        0.0467
     56 H          -1.6710    0.6404    2.4872 H       1  UNL1        0.0322
     57 H          -2.0148   -1.0997    2.5748 H       1  UNL1        0.0322
     58 H          -4.0525   -0.3323    1.6693 H       1  UNL1        0.0325
     59 H          -3.4006    1.3000    1.6308 H       1  UNL1        0.0325
     60 H          -3.1125    1.9093   -1.1454 H       1  UNL1        0.0248
     61 H          -4.5412    1.3989   -2.1301 H       1  UNL1        0.0248
     62 H          -4.6445    2.7126   -0.9389 H       1  UNL1        0.0248
     63 H          -5.2291   -0.7111   -1.6211 H       1  UNL1        0.0248
     64 H          -4.5755   -1.4812   -0.1183 H       1  UNL1        0.0248
     65 H          -6.1723   -0.8239   -0.0852 H       1  UNL1        0.0248
     66 H          -4.2921    2.9690    1.0286 H       1  UNL1        0.0408
     67 H          -4.9383    2.2326    2.5136 H       1  UNL1        0.0408
     68 H          -5.9715    3.2896    1.4932 H       1  UNL1        0.0408
     69 H          -7.4389    0.0835   -1.8030 H       1  UNL1        0.0479
     70 H          -8.8763    1.0306   -1.4704 H       1  UNL1        0.0479
     71 H          -8.3846   -0.1422   -0.2309 H       1  UNL1        0.0479
     72 H          -1.8984   -2.7308    1.3774 H       1  UNL1        0.0622
     73 H          -1.6599   -4.6948   -0.1481 H       1  UNL1        0.0618
     74 H          -1.7778   -4.3826   -2.5445 H       1  UNL1        0.0618
     75 H          -2.1308   -2.1808   -3.5186 H       1  UNL1        0.0618
     76 H          -2.3649   -0.2408   -2.0575 H       1  UNL1        0.0622
@<TRIPOS>BOND
     1     1     2    1
     2     2     3    1
     3     3     4   ar
     4     4     5   ar
     5     5     6   ar
     6     6     7    1
     7     7     8   ar
     8     8     9   ar
     9     9    10   ar
    10    10    11    2
    11    10    12   ar
    12    12    13    1
    13    12    14   ar
    14     6    15   ar
    15    15    16   ar
    16     2    17    1
    17    17    18    1
    18    18    19    1
    19    19    20    1
    20    20    21    1
    21    21    22    1
    22    22    23    1
    23    22    24    1
    24    22    25    1
    25    25    26    1
    26    25    27    1
    27    27    28    1
    28    27    29    2
    29    27    30    2
    30    20    31    1
    31    31    32   ar
    32    32    33   ar
    33    33    34   ar
    34    34    35   ar
    35    35    36   ar
    36    20    37    1
    37    37    38    1
    38    38    39    2
    39    16     3   ar
    40    38    17   am
    41    14     7   ar
    42    36    31   ar
    43     1    40    1
    44     1    41    1
    45     1    42    1
    46     2    43    1
    47     4    44    1
    48     5    45    1
    49     8    46    1
    50     9    47    1
    51    13    48    1
    52    13    49    1
    53    13    50    1
    54    14    51    1
    55    15    52    1
    56    16    53    1
    57    18    54    1
    58    18    55    1
    59    19    56    1
    60    19    57    1
    61    21    58    1
    62    21    59    1
    63    23    60    1
    64    23    61    1
    65    23    62    1
    66    24    63    1
    67    24    64    1
    68    24    65    1
    69    26    66    1
    70    26    67    1
    71    26    68    1
    72    28    69    1
    73    28    70    1
    74    28    71    1
    75    32    72    1
    76    33    73    1
    77    34    74    1
    78    35    75    1
    79    36    76    1
