
     RDKit          3D

 76 79  0  0  0  0  0  0  0  0999 V2000
    1.9537    1.3056    3.2975 C   0  0  0  0  0  0  0  0  0  0  0  0
    1.6736    1.3475    1.8430 C   0  0  1  0  0  0  0  0  0  0  0  0
    2.8256    0.7469    1.0953 C   0  0  0  0  0  0  0  0  0  0  0  0
    3.8063    1.5648    0.5411 C   0  0  0  0  0  0  0  0  0  0  0  0
    4.8913    1.0867   -0.1488 C   0  0  0  0  0  0  0  0  0  0  0  0
    5.0557   -0.2702   -0.3222 C   0  0  0  0  0  0  0  0  0  0  0  0
    6.2098   -0.7720   -1.0664 C   0  0  0  0  0  0  0  0  0  0  0  0
    6.1793   -1.9251   -1.8060 C   0  0  0  0  0  0  0  0  0  0  0  0
    7.3225   -2.3389   -2.4910 C   0  0  0  0  0  0  0  0  0  0  0  0
    8.4920   -1.6008   -2.4379 C   0  0  0  0  0  0  0  0  0  0  0  0
    9.4911   -2.0040   -3.0658 O   0  0  0  0  0  0  0  0  0  0  0  0
    8.4878   -0.4770   -1.7057 N   0  0  0  0  0  0  0  0  0  0  0  0
    9.6941    0.3018   -1.6403 C   0  0  0  0  0  0  0  0  0  0  0  0
    7.3838   -0.0568   -1.0285 C   0  0  0  0  0  0  0  0  0  0  0  0
    4.1051   -1.0970    0.2146 C   0  0  0  0  0  0  0  0  0  0  0  0
    2.9976   -0.5962    0.9178 C   0  0  0  0  0  0  0  0  0  0  0  0
    0.4596    0.7674    1.4016 N   0  0  0  0  0  0  0  0  0  0  0  0
   -0.0680   -0.5429    1.7002 C   0  0  0  0  0  0  0  0  0  0  0  0
   -1.5464   -0.3340    1.9762 C   0  0  0  0  0  0  0  0  0  0  0  0
   -2.2551   -0.1139    0.6114 C   0  0  2  0  0  0  0  0  0  0  0  0
   -3.5775    0.4073    0.9755 C   0  0  0  0  0  0  0  0  0  0  0  0
   -4.6061    0.7155   -0.0571 C   0  0  0  0  0  0  0  0  0  0  0  0
   -4.2233    1.7010   -1.0971 C   0  0  0  0  0  0  0  0  0  0  0  0
   -5.1588   -0.5949   -0.5389 C   0  0  0  0  0  0  0  0  0  0  0  0
   -5.6963    1.3666    0.7039 N   0  0  0  0  0  0  0  0  0  0  0  0
   -5.1672    2.4979    1.4615 C   0  0  0  0  0  0  0  0  0  0  0  0
   -7.0427    1.8450   -0.1647 S   0  0  0  0  0  6  0  0  0  0  0  0
   -7.9521    0.5627   -0.9688 C   0  0  0  0  0  0  0  0  0  0  0  0
   -6.8322    2.9831   -1.1379 O   0  0  0  0  0  0  0  0  0  0  0  0
   -8.0470    2.4487    0.8462 O   0  0  0  0  0  0  0  0  0  0  0  0
   -2.1527   -1.3263   -0.2010 C   0  0  0  0  0  0  0  0  0  0  0  0
   -1.9523   -2.5835    0.3130 C   0  0  0  0  0  0  0  0  0  0  0  0
   -1.8178   -3.6762   -0.4975 C   0  0  0  0  0  0  0  0  0  0  0  0
   -1.8813   -3.5444   -1.8902 C   0  0  0  0  0  0  0  0  0  0  0  0
   -2.0814   -2.2899   -2.4182 C   0  0  0  0  0  0  0  0  0  0  0  0
   -2.2110   -1.2269   -1.5863 C   0  0  0  0  0  0  0  0  0  0  0  0
   -1.4339    0.8723   -0.0352 O   0  0  0  0  0  0  0  0  0  0  0  0
   -0.4201    1.5704    0.5849 C   0  0  0  0  0  0  0  0  0  0  0  0
   -0.2306    2.8058    0.4807 O   0  0  0  0  0  0  0  0  0  0  0  0
    2.7897    2.0448    3.4806 H   0  0  0  0  0  0  0  0  0  0  0  0
    1.1362    1.5986    3.9537 H   0  0  0  0  0  0  0  0  0  0  0  0
    2.4052    0.3084    3.5663 H   0  0  0  0  0  0  0  0  0  0  0  0
    1.7016    2.4499    1.5136 H   0  0  0  0  0  0  0  0  0  0  0  0
    3.6827    2.6241    0.6770 H   0  0  0  0  0  0  0  0  0  0  0  0
    5.6515    1.7299   -0.5829 H   0  0  0  0  0  0  0  0  0  0  0  0
    5.2566   -2.4800   -1.8339 H   0  0  0  0  0  0  0  0  0  0  0  0
    7.3020   -3.2360   -3.0682 H   0  0  0  0  0  0  0  0  0  0  0  0
   10.4364   -0.2590   -1.0419 H   0  0  0  0  0  0  0  0  0  0  0  0
   10.1674    0.4502   -2.6514 H   0  0  0  0  0  0  0  0  0  0  0  0
    9.5034    1.2947   -1.2033 H   0  0  0  0  0  0  0  0  0  0  0  0
    7.4783    0.8669   -0.4625 H   0  0  0  0  0  0  0  0  0  0  0  0
    4.2357   -2.1708    0.0810 H   0  0  0  0  0  0  0  0  0  0  0  0
    2.3050   -1.3054    1.3063 H   0  0  0  0  0  0  0  0  0  0  0  0
    0.4262   -1.0313    2.5689 H   0  0  0  0  0  0  0  0  0  0  0  0
   -0.0055   -1.1566    0.7871 H   0  0  0  0  0  0  0  0  0  0  0  0
   -1.6710    0.6404    2.4872 H   0  0  0  0  0  0  0  0  0  0  0  0
   -2.0148   -1.0997    2.5748 H   0  0  0  0  0  0  0  0  0  0  0  0
   -4.0525   -0.3323    1.6693 H   0  0  0  0  0  0  0  0  0  0  0  0
   -3.4006    1.3000    1.6308 H   0  0  0  0  0  0  0  0  0  0  0  0
   -3.1125    1.9093   -1.1454 H   0  0  0  0  0  0  0  0  0  0  0  0
   -4.5412    1.3989   -2.1301 H   0  0  0  0  0  0  0  0  0  0  0  0
   -4.6445    2.7126   -0.9389 H   0  0  0  0  0  0  0  0  0  0  0  0
   -5.2291   -0.7111   -1.6211 H   0  0  0  0  0  0  0  0  0  0  0  0
   -4.5755   -1.4812   -0.1183 H   0  0  0  0  0  0  0  0  0  0  0  0
   -6.1723   -0.8239   -0.0852 H   0  0  0  0  0  0  0  0  0  0  0  0
   -4.2921    2.9690    1.0286 H   0  0  0  0  0  0  0  0  0  0  0  0
   -4.9383    2.2326    2.5136 H   0  0  0  0  0  0  0  0  0  0  0  0
   -5.9715    3.2896    1.4932 H   0  0  0  0  0  0  0  0  0  0  0  0
   -7.4389    0.0835   -1.8030 H   0  0  0  0  0  0  0  0  0  0  0  0
   -8.8763    1.0306   -1.4704 H   0  0  0  0  0  0  0  0  0  0  0  0
   -8.3846   -0.1422   -0.2309 H   0  0  0  0  0  0  0  0  0  0  0  0
   -1.8984   -2.7308    1.3774 H   0  0  0  0  0  0  0  0  0  0  0  0
   -1.6599   -4.6948   -0.1481 H   0  0  0  0  0  0  0  0  0  0  0  0
   -1.7778   -4.3826   -2.5445 H   0  0  0  0  0  0  0  0  0  0  0  0
   -2.1308   -2.1808   -3.5186 H   0  0  0  0  0  0  0  0  0  0  0  0
   -2.3649   -0.2408   -2.0575 H   0  0  0  0  0  0  0  0  0  0  0  0
  1  2  1  0
  2  3  1  0
  3  4  2  0
  4  5  1  0
  5  6  2  0
  6  7  1  0
  7  8  1  0
  8  9  2  0
  9 10  1  0
 10 11  2  0
 10 12  1  0
 12 13  1  0
 12 14  1  0
  6 15  1  0
 15 16  2  0
  2 17  1  0
 17 18  1  0
 18 19  1  0
 19 20  1  0
 20 21  1  1
 21 22  1  0
 22 23  1  0
 22 24  1  0
 22 25  1  0
 25 26  1  0
 25 27  1  0
 27 28  1  0
 27 29  2  0
 27 30  2  0
 20 31  1  0
 31 32  2  0
 32 33  1  0
 33 34  2  0
 34 35  1  0
 35 36  2  0
 20 37  1  0
 37 38  1  0
 38 39  2  0
 16  3  1  0
 38 17  1  0
 14  7  2  0
 36 31  1  0
  1 40  1  0
  1 41  1  0
  1 42  1  0
  2 43  1  6
  4 44  1  0
  5 45  1  0
  8 46  1  0
  9 47  1  0
 13 48  1  0
 13 49  1  0
 13 50  1  0
 14 51  1  0
 15 52  1  0
 16 53  1  0
 18 54  1  0
 18 55  1  0
 19 56  1  0
 19 57  1  0
 21 58  1  0
 21 59  1  0
 23 60  1  0
 23 61  1  0
 23 62  1  0
 24 63  1  0
 24 64  1  0
 24 65  1  0
 26 66  1  0
 26 67  1  0
 26 68  1  0
 28 69  1  0
 28 70  1  0
 28 71  1  0
 32 72  1  0
 33 73  1  0
 34 74  1  0
 35 75  1  0
 36 76  1  0
M  END
$$$$
