@<TRIPOS>MOLECULE
*****
 80 84 0 0 0
SMALL
GASTEIGER

@<TRIPOS>ATOM
      1 C           3.8233    3.8182    0.7203 C.3     1  UNL1       -0.0416
      2 C           4.3032    3.6223   -0.6915 C.3     1  UNL1        0.0453
      3 O           3.9295    2.4493   -1.2626 O.3     1  UNL1       -0.3746
      4 C           4.3534    1.2872   -0.6416 C.3     1  UNL1        0.0822
      5 C           5.5576    0.7350   -1.5347 C.3     1  UNL1        0.0008
      6 C           5.6469   -0.6074   -0.9120 C.ar    1  UNL1       -0.0396
      7 C           6.7709   -1.3883   -0.7443 C.ar    1  UNL1       -0.0465
      8 C           6.6803   -2.6070   -0.1372 C.ar    1  UNL1        0.0551
      9 C           7.8491   -3.5086    0.0858 C.3     1  UNL1        0.4174
     10 F           7.5893   -4.7857   -0.3572 F       1  UNL1       -0.1659
     11 F           8.0807   -3.5988    1.4467 F       1  UNL1       -0.1659
     12 F           8.9888   -3.0736   -0.5182 F       1  UNL1       -0.1659
     13 C           5.4639   -3.0439    0.3014 C.ar    1  UNL1       -0.0498
     14 C           4.3416   -2.2333    0.1195 C.ar    1  UNL1       -0.0562
     15 C           4.3829   -1.0095   -0.4798 C.ar    1  UNL1       -0.0245
     16 C           3.4854    0.1084   -0.8567 C.3     1  UNL1        0.0627
     17 N           2.1758    0.0788   -0.3848 N.3     1  UNL1       -0.2879
     18 C           1.4998   -0.9543   -1.1664 C.3     1  UNL1        0.0127
     19 C           0.2019   -1.4107   -0.7052 C.3     1  UNL1        0.0123
     20 N          -0.4025   -0.8317    0.4407 N.3     1  UNL1       -0.2942
     21 C          -1.8247   -0.6034    0.2832 C.3     1  UNL1        0.0221
     22 C          -2.4156   -0.2023    1.6291 C.3     1  UNL1       -0.0465
     23 C          -2.1110    0.4638   -0.7496 C.3     1  UNL1       -0.0188
     24 C          -3.6173    0.8320   -0.6875 C.3     1  UNL1        0.0166
     25 N          -4.3233   -0.4001   -0.8807 N.am    1  UNL1       -0.2973
     26 C          -5.6849   -0.5490   -0.6600 C.2     1  UNL1        0.2501
     27 O          -6.1859   -1.7247   -0.9357 O.2     1  UNL1       -0.2699
     28 C          -6.6036    0.4386   -0.1550 C.ar    1  UNL1        0.0788
     29 C          -6.9461    1.5465   -0.8727 C.ar    1  UNL1        0.0538
     30 C          -6.4362    1.8512   -2.2368 C.3     1  UNL1       -0.0215
     31 N          -7.8305    2.4138   -0.2887 N.ar    1  UNL1       -0.2398
     32 C          -8.3523    2.2141    0.9258 C.ar    1  UNL1        0.1165
     33 N          -7.9898    1.1062    1.6058 N.ar    1  UNL1       -0.2398
     34 C          -7.1373    0.2033    1.1229 C.ar    1  UNL1        0.0538
     35 C          -6.7147   -1.0275    1.8297 C.3     1  UNL1       -0.0215
     36 C          -3.5299   -1.5794   -1.2711 C.3     1  UNL1        0.0166
     37 C          -2.5265   -1.8654   -0.1599 C.3     1  UNL1       -0.0188
     38 C           0.3056    0.2504    1.0348 C.3     1  UNL1        0.0148
     39 C           1.8131   -0.0630    0.9402 C.3     1  UNL1        0.0210
     40 C           2.4397    0.8014    1.9850 C.3     1  UNL1       -0.0483
     41 H           2.7208    3.8392    0.7813 H       1  UNL1        0.0252
     42 H           4.2152    4.8264    1.0470 H       1  UNL1        0.0252
     43 H           4.1959    3.0423    1.4019 H       1  UNL1        0.0252
     44 H           5.4021    3.8011   -0.6879 H       1  UNL1        0.0557
     45 H           3.8600    4.4522   -1.3157 H       1  UNL1        0.0557
     46 H           4.8815    1.4017    0.2983 H       1  UNL1        0.0618
     47 H           6.4687    1.2921   -1.2757 H       1  UNL1        0.0339
     48 H           5.2565    0.7313   -2.5756 H       1  UNL1        0.0339
     49 H           7.7544   -1.0677   -1.0847 H       1  UNL1        0.0626
     50 H           5.3501   -4.0047    0.7868 H       1  UNL1        0.0623
     51 H           3.4007   -2.5992    0.4762 H       1  UNL1        0.0621
     52 H           3.4212    0.0146   -1.9895 H       1  UNL1        0.0538
     53 H           1.4380   -0.4703   -2.1987 H       1  UNL1        0.0439
     54 H           2.2355   -1.7628   -1.3371 H       1  UNL1        0.0439
     55 H           0.2192   -2.5294   -0.5089 H       1  UNL1        0.0439
     56 H          -0.5413   -1.3445   -1.5560 H       1  UNL1        0.0439
     57 H          -3.5019   -0.3377    1.6555 H       1  UNL1        0.0247
     58 H          -2.2369    0.8688    1.8637 H       1  UNL1        0.0247
     59 H          -1.9960   -0.9010    2.3777 H       1  UNL1        0.0247
     60 H          -1.5222    1.3878   -0.5661 H       1  UNL1        0.0298
     61 H          -1.9597    0.1044   -1.7798 H       1  UNL1        0.0298
     62 H          -3.8567    1.3895    0.2147 H       1  UNL1        0.0465
     63 H          -3.7528    1.5302   -1.5628 H       1  UNL1        0.0465
     64 H          -7.3406    2.1047   -2.8628 H       1  UNL1        0.0293
     65 H          -5.7375    2.7216   -2.2187 H       1  UNL1        0.0293
     66 H          -6.0061    0.9382   -2.6710 H       1  UNL1        0.0293
     67 H          -9.0615    2.9237    1.3787 H       1  UNL1        0.1047
     68 H          -7.3294   -1.8566    1.3708 H       1  UNL1        0.0293
     69 H          -6.8715   -1.0029    2.9114 H       1  UNL1        0.0293
     70 H          -5.6677   -1.2255    1.5462 H       1  UNL1        0.0293
     71 H          -4.2104   -2.4432   -1.3207 H       1  UNL1        0.0465
     72 H          -3.0545   -1.4817   -2.2476 H       1  UNL1        0.0465
     73 H          -3.0598   -2.3325    0.7004 H       1  UNL1        0.0298
     74 H          -1.8062   -2.6022   -0.5234 H       1  UNL1        0.0298
     75 H           0.1028    0.3242    2.1393 H       1  UNL1        0.0442
     76 H           0.1245    1.2208    0.5462 H       1  UNL1        0.0442
     77 H           1.8635   -1.1097    1.3470 H       1  UNL1        0.0473
     78 H           1.9598    0.4539    2.9612 H       1  UNL1        0.0245
     79 H           3.5110    0.6832    2.1355 H       1  UNL1        0.0245
     80 H           2.0799    1.8670    1.9261 H       1  UNL1        0.0245
@<TRIPOS>BOND
     1     1     2    1
     2     2     3    1
     3     3     4    1
     4     4     5    1
     5     5     6    1
     6     6     7   ar
     7     7     8   ar
     8     8     9    1
     9     9    10    1
    10     9    11    1
    11     9    12    1
    12     8    13   ar
    13    13    14   ar
    14    14    15   ar
    15    15    16    1
    16    16    17    1
    17    17    18    1
    18    18    19    1
    19    19    20    1
    20    20    21    1
    21    21    22    1
    22    21    23    1
    23    23    24    1
    24    24    25    1
    25    25    26   am
    26    26    27    2
    27    26    28    1
    28    28    29   ar
    29    29    30    1
    30    29    31   ar
    31    31    32   ar
    32    32    33   ar
    33    33    34   ar
    34    34    35    1
    35    25    36    1
    36    36    37    1
    37    20    38    1
    38    38    39    1
    39    39    40    1
    40    16     4    1
    41    39    17    1
    42    15     6   ar
    43    37    21    1
    44    34    28   ar
    45     1    41    1
    46     1    42    1
    47     1    43    1
    48     2    44    1
    49     2    45    1
    50     4    46    1
    51     5    47    1
    52     5    48    1
    53     7    49    1
    54    13    50    1
    55    14    51    1
    56    16    52    1
    57    18    53    1
    58    18    54    1
    59    19    55    1
    60    19    56    1
    61    22    57    1
    62    22    58    1
    63    22    59    1
    64    23    60    1
    65    23    61    1
    66    24    62    1
    67    24    63    1
    68    30    64    1
    69    30    65    1
    70    30    66    1
    71    32    67    1
    72    35    68    1
    73    35    69    1
    74    35    70    1
    75    36    71    1
    76    36    72    1
    77    37    73    1
    78    37    74    1
    79    38    75    1
    80    38    76    1
    81    39    77    1
    82    40    78    1
    83    40    79    1
    84    40    80    1
