
     RDKit          3D

 80 84  0  0  0  0  0  0  0  0999 V2000
    3.8233    3.8182    0.7203 C   0  0  0  0  0  0  0  0  0  0  0  0
    4.3032    3.6223   -0.6915 C   0  0  0  0  0  0  0  0  0  0  0  0
    3.9295    2.4493   -1.2626 O   0  0  0  0  0  0  0  0  0  0  0  0
    4.3534    1.2872   -0.6416 C   0  0  2  0  0  0  0  0  0  0  0  0
    5.5576    0.7350   -1.5347 C   0  0  0  0  0  0  0  0  0  0  0  0
    5.6469   -0.6074   -0.9120 C   0  0  0  0  0  0  0  0  0  0  0  0
    6.7709   -1.3883   -0.7443 C   0  0  0  0  0  0  0  0  0  0  0  0
    6.6803   -2.6070   -0.1372 C   0  0  0  0  0  0  0  0  0  0  0  0
    7.8491   -3.5086    0.0858 C   0  0  0  0  0  0  0  0  0  0  0  0
    7.5893   -4.7857   -0.3572 F   0  0  0  0  0  0  0  0  0  0  0  0
    8.0807   -3.5988    1.4467 F   0  0  0  0  0  0  0  0  0  0  0  0
    8.9888   -3.0736   -0.5182 F   0  0  0  0  0  0  0  0  0  0  0  0
    5.4639   -3.0439    0.3014 C   0  0  0  0  0  0  0  0  0  0  0  0
    4.3416   -2.2333    0.1195 C   0  0  0  0  0  0  0  0  0  0  0  0
    4.3829   -1.0095   -0.4798 C   0  0  0  0  0  0  0  0  0  0  0  0
    3.4854    0.1084   -0.8567 C   0  0  1  0  0  0  0  0  0  0  0  0
    2.1758    0.0788   -0.3848 N   0  0  0  0  0  0  0  0  0  0  0  0
    1.4998   -0.9543   -1.1664 C   0  0  0  0  0  0  0  0  0  0  0  0
    0.2019   -1.4107   -0.7052 C   0  0  0  0  0  0  0  0  0  0  0  0
   -0.4025   -0.8317    0.4407 N   0  0  0  0  0  0  0  0  0  0  0  0
   -1.8247   -0.6034    0.2832 C   0  0  0  0  0  0  0  0  0  0  0  0
   -2.4156   -0.2023    1.6291 C   0  0  0  0  0  0  0  0  0  0  0  0
   -2.1110    0.4638   -0.7496 C   0  0  0  0  0  0  0  0  0  0  0  0
   -3.6173    0.8320   -0.6875 C   0  0  0  0  0  0  0  0  0  0  0  0
   -4.3233   -0.4001   -0.8807 N   0  0  0  0  0  0  0  0  0  0  0  0
   -5.6849   -0.5490   -0.6600 C   0  0  0  0  0  0  0  0  0  0  0  0
   -6.1859   -1.7247   -0.9357 O   0  0  0  0  0  0  0  0  0  0  0  0
   -6.6036    0.4386   -0.1550 C   0  0  0  0  0  0  0  0  0  0  0  0
   -6.9461    1.5465   -0.8727 C   0  0  0  0  0  0  0  0  0  0  0  0
   -6.4362    1.8512   -2.2368 C   0  0  0  0  0  0  0  0  0  0  0  0
   -7.8305    2.4138   -0.2887 N   0  0  0  0  0  0  0  0  0  0  0  0
   -8.3523    2.2141    0.9258 C   0  0  0  0  0  0  0  0  0  0  0  0
   -7.9898    1.1062    1.6058 N   0  0  0  0  0  0  0  0  0  0  0  0
   -7.1373    0.2033    1.1229 C   0  0  0  0  0  0  0  0  0  0  0  0
   -6.7147   -1.0275    1.8297 C   0  0  0  0  0  0  0  0  0  0  0  0
   -3.5299   -1.5794   -1.2711 C   0  0  0  0  0  0  0  0  0  0  0  0
   -2.5265   -1.8654   -0.1599 C   0  0  0  0  0  0  0  0  0  0  0  0
    0.3056    0.2504    1.0348 C   0  0  0  0  0  0  0  0  0  0  0  0
    1.8131   -0.0630    0.9402 C   0  0  2  0  0  0  0  0  0  0  0  0
    2.4397    0.8014    1.9850 C   0  0  0  0  0  0  0  0  0  0  0  0
    2.7208    3.8392    0.7813 H   0  0  0  0  0  0  0  0  0  0  0  0
    4.2152    4.8264    1.0470 H   0  0  0  0  0  0  0  0  0  0  0  0
    4.1959    3.0423    1.4019 H   0  0  0  0  0  0  0  0  0  0  0  0
    5.4021    3.8011   -0.6879 H   0  0  0  0  0  0  0  0  0  0  0  0
    3.8600    4.4522   -1.3157 H   0  0  0  0  0  0  0  0  0  0  0  0
    4.8815    1.4017    0.2983 H   0  0  0  0  0  0  0  0  0  0  0  0
    6.4687    1.2921   -1.2757 H   0  0  0  0  0  0  0  0  0  0  0  0
    5.2565    0.7313   -2.5756 H   0  0  0  0  0  0  0  0  0  0  0  0
    7.7544   -1.0677   -1.0847 H   0  0  0  0  0  0  0  0  0  0  0  0
    5.3501   -4.0047    0.7868 H   0  0  0  0  0  0  0  0  0  0  0  0
    3.4007   -2.5992    0.4762 H   0  0  0  0  0  0  0  0  0  0  0  0
    3.4212    0.0146   -1.9895 H   0  0  0  0  0  0  0  0  0  0  0  0
    1.4380   -0.4703   -2.1987 H   0  0  0  0  0  0  0  0  0  0  0  0
    2.2355   -1.7628   -1.3371 H   0  0  0  0  0  0  0  0  0  0  0  0
    0.2192   -2.5294   -0.5089 H   0  0  0  0  0  0  0  0  0  0  0  0
   -0.5413   -1.3445   -1.5560 H   0  0  0  0  0  0  0  0  0  0  0  0
   -3.5019   -0.3377    1.6555 H   0  0  0  0  0  0  0  0  0  0  0  0
   -2.2369    0.8688    1.8637 H   0  0  0  0  0  0  0  0  0  0  0  0
   -1.9960   -0.9010    2.3777 H   0  0  0  0  0  0  0  0  0  0  0  0
   -1.5222    1.3878   -0.5661 H   0  0  0  0  0  0  0  0  0  0  0  0
   -1.9597    0.1044   -1.7798 H   0  0  0  0  0  0  0  0  0  0  0  0
   -3.8567    1.3895    0.2147 H   0  0  0  0  0  0  0  0  0  0  0  0
   -3.7528    1.5302   -1.5628 H   0  0  0  0  0  0  0  0  0  0  0  0
   -7.3406    2.1047   -2.8628 H   0  0  0  0  0  0  0  0  0  0  0  0
   -5.7375    2.7216   -2.2187 H   0  0  0  0  0  0  0  0  0  0  0  0
   -6.0061    0.9382   -2.6710 H   0  0  0  0  0  0  0  0  0  0  0  0
   -9.0615    2.9237    1.3787 H   0  0  0  0  0  0  0  0  0  0  0  0
   -7.3294   -1.8566    1.3708 H   0  0  0  0  0  0  0  0  0  0  0  0
   -6.8715   -1.0029    2.9114 H   0  0  0  0  0  0  0  0  0  0  0  0
   -5.6677   -1.2255    1.5462 H   0  0  0  0  0  0  0  0  0  0  0  0
   -4.2104   -2.4432   -1.3207 H   0  0  0  0  0  0  0  0  0  0  0  0
   -3.0545   -1.4817   -2.2476 H   0  0  0  0  0  0  0  0  0  0  0  0
   -3.0598   -2.3325    0.7004 H   0  0  0  0  0  0  0  0  0  0  0  0
   -1.8062   -2.6022   -0.5234 H   0  0  0  0  0  0  0  0  0  0  0  0
    0.1028    0.3242    2.1393 H   0  0  0  0  0  0  0  0  0  0  0  0
    0.1245    1.2208    0.5462 H   0  0  0  0  0  0  0  0  0  0  0  0
    1.8635   -1.1097    1.3470 H   0  0  0  0  0  0  0  0  0  0  0  0
    1.9598    0.4539    2.9612 H   0  0  0  0  0  0  0  0  0  0  0  0
    3.5110    0.6832    2.1355 H   0  0  0  0  0  0  0  0  0  0  0  0
    2.0799    1.8670    1.9261 H   0  0  0  0  0  0  0  0  0  0  0  0
  1  2  1  0
  2  3  1  0
  3  4  1  0
  4  5  1  0
  5  6  1  0
  6  7  2  0
  7  8  1  0
  8  9  1  0
  9 10  1  0
  9 11  1  0
  9 12  1  0
  8 13  2  0
 13 14  1  0
 14 15  2  0
 15 16  1  0
 16 17  1  0
 17 18  1  0
 18 19  1  0
 19 20  1  0
 20 21  1  0
 21 22  1  0
 21 23  1  0
 23 24  1  0
 24 25  1  0
 25 26  1  0
 26 27  2  0
 26 28  1  0
 28 29  2  0
 29 30  1  0
 29 31  1  0
 31 32  2  0
 32 33  1  0
 33 34  2  0
 34 35  1  0
 25 36  1  0
 36 37  1  0
 20 38  1  0
 38 39  1  0
 39 40  1  0
 16  4  1  0
 39 17  1  0
 15  6  1  0
 37 21  1  0
 34 28  1  0
  1 41  1  0
  1 42  1  0
  1 43  1  0
  2 44  1  0
  2 45  1  0
  4 46  1  1
  5 47  1  0
  5 48  1  0
  7 49  1  0
 13 50  1  0
 14 51  1  0
 16 52  1  6
 18 53  1  0
 18 54  1  0
 19 55  1  0
 19 56  1  0
 22 57  1  0
 22 58  1  0
 22 59  1  0
 23 60  1  0
 23 61  1  0
 24 62  1  0
 24 63  1  0
 30 64  1  0
 30 65  1  0
 30 66  1  0
 32 67  1  0
 35 68  1  0
 35 69  1  0
 35 70  1  0
 36 71  1  0
 36 72  1  0
 37 73  1  0
 37 74  1  0
 38 75  1  0
 38 76  1  0
 39 77  1  1
 40 78  1  0
 40 79  1  0
 40 80  1  0
M  END
$$$$
