@<TRIPOS>MOLECULE
*****
 43 46 0 0 0
SMALL
GASTEIGER

@<TRIPOS>ATOM
      1 C          -1.3454    0.9431   -0.3689 C.3     1  UNL1        0.1042
      2 S          -0.9780    0.3746    1.3218 S.3     1  UNL1       -0.1311
      3 C           0.7809   -0.0557    1.3275 C.3     1  UNL1        0.0196
      4 C           1.2542   -0.3497   -0.0410 C.2     1  UNL1       -0.0211
      5 C           2.7150   -0.6281    0.0204 C.3     1  UNL1        0.0244
      6 S           3.6194    0.8018    0.6770 S.3     1  UNL1       -0.0925
      7 C           5.3611    0.3190    0.6925 C.ar    1  UNL1        0.1588
      8 N           5.9880   -0.2038    1.5186 N.ar    1  UNL1       -0.1348
      9 N           7.2339   -0.5418    1.5131 N.ar    1  UNL1       -0.1457
     10 C           7.9652   -0.3202    0.5229 C.ar    1  UNL1        0.0999
     11 C           9.3937   -0.5399    0.1228 C.3     1  UNL1       -0.0140
     12 S           6.7241    0.5175   -0.6490 S.2     1  UNL1       -0.0445
     13 CA          0.6014   -0.3897   -1.1864 C.2     1  UNL1        0.1228
     14 N          -0.7893   -0.1214   -1.2218 N.am    1  UNL1       -0.2490
     15 C          -2.0512   -0.4556   -1.7705 C.2     1  UNL1        0.2440
     16 O          -2.5237   -1.2600   -2.6447 O.2     1  UNL1       -0.2731
     17 CA         -2.6784    0.5455   -0.8943 C.3     1  UNL1        0.1284
     18 N          -3.6307    0.0224    0.0644 N.am    1  UNL1       -0.3002
     19 C          -4.9731    0.5274    0.1867 C.2     1  UNL1        0.2353
     20 O          -5.3141    1.4626   -0.5803 O.2     1  UNL1       -0.2738
     21 C          -5.8108   -0.1212    1.2161 C.3     1  UNL1        0.1209
     22 N          -7.1462    0.4835    1.2371 N.ar    1  UNL1       -0.2232
     23 C          -7.5705    1.5271    1.9589 C.ar    1  UNL1        0.1386
     24 N          -8.8515    1.7051    1.6417 N.ar    1  UNL1       -0.1169
     25 N          -9.1849    0.8037    0.7631 N.ar    1  UNL1       -0.0233
     26 N          -8.1483    0.0473    0.5056 N.ar    1  UNL1       -0.0437
     27 C           1.2822   -0.7102   -2.4283 C.2     1  UNL1        0.3514
     28 O           2.2442   -1.0390   -3.3506 O.3     1  UNL1       -0.4763
     29 OXT         0.6990   -0.7579   -3.5264 O.2     1  UNL1       -0.2437
     30 H          -0.9972    1.9584   -0.5953 H       1  UNL1        0.0644
     31 H           0.9179   -0.9511    2.0059 H       1  UNL1        0.0423
     32 H           1.3934    0.7662    1.7596 H       1  UNL1        0.0423
     33 H           2.9507   -1.5622    0.5643 H       1  UNL1        0.0427
     34 H           3.0858   -0.7568   -1.0167 H       1  UNL1        0.0427
     35 H          10.0880   -0.1225    0.8770 H       1  UNL1        0.0298
     36 H           9.6319   -0.0123   -0.8221 H       1  UNL1        0.0298
     37 H           9.6171   -1.6079   -0.0754 H       1  UNL1        0.0298
     38 HA         -3.0870    1.3777   -1.5277 H       1  UNL1        0.0622
     39 H          -3.1898   -0.7575    0.6316 H       1  UNL1        0.1496
     40 H          -5.3316    0.0397    2.1944 H       1  UNL1        0.0606
     41 H          -5.8605   -1.2168    1.0525 H       1  UNL1        0.0606
     42 H          -6.9502    2.0946    2.6613 H       1  UNL1        0.1063
     43 H           2.8652   -1.8358   -3.1378 H       1  UNL1        0.2954
@<TRIPOS>BOND
     1     1     2    1
     2     2     3    1
     3     3     4    1
     4     4     5    1
     5     5     6    1
     6     6     7    1
     7     7     8   ar
     8     8     9   ar
     9     9    10   ar
    10    10    11    1
    11    10    12   ar
    12     4    13    2
    13    13    14    1
    14    14    15   am
    15    15    16    2
    16    15    17    1
    17    17    18    1
    18    18    19   am
    19    19    20    2
    20    19    21    1
    21    21    22    1
    22    22    23   ar
    23    23    24   ar
    24    24    25   ar
    25    25    26   ar
    26    13    27    1
    27    27    28    1
    28    27    29    2
    29    14     1    1
    30    26    22   ar
    31    17     1    1
    32    12     7   ar
    33     1    30    1
    34     3    31    1
    35     3    32    1
    36     5    33    1
    37     5    34    1
    38    11    35    1
    39    11    36    1
    40    11    37    1
    41    17    38    1
    42    18    39    1
    43    21    40    1
    44    21    41    1
    45    23    42    1
    46    28    43    1
