
     RDKit          3D

 43 46  0  0  0  0  0  0  0  0999 V2000
   -1.3454    0.9431   -0.3689 C   0  0  1  0  0  0  0  0  0  0  0  0
   -0.9780    0.3746    1.3218 S   0  0  0  0  0  0  0  0  0  0  0  0
    0.7809   -0.0557    1.3275 C   0  0  0  0  0  0  0  0  0  0  0  0
    1.2542   -0.3497   -0.0410 C   0  0  0  0  0  0  0  0  0  0  0  0
    2.7150   -0.6281    0.0204 C   0  0  0  0  0  0  0  0  0  0  0  0
    3.6194    0.8018    0.6770 S   0  0  0  0  0  0  0  0  0  0  0  0
    5.3611    0.3190    0.6925 C   0  0  0  0  0  0  0  0  0  0  0  0
    5.9880   -0.2038    1.5186 N   0  0  0  0  0  0  0  0  0  0  0  0
    7.2339   -0.5418    1.5131 N   0  0  0  0  0  0  0  0  0  0  0  0
    7.9652   -0.3202    0.5229 C   0  0  0  0  0  0  0  0  0  0  0  0
    9.3937   -0.5399    0.1228 C   0  0  0  0  0  0  0  0  0  0  0  0
    6.7241    0.5175   -0.6490 S   0  0  0  0  0  0  0  0  0  0  0  0
    0.6014   -0.3897   -1.1864 C   0  0  0  0  0  0  0  0  0  0  0  0
   -0.7893   -0.1214   -1.2218 N   0  0  0  0  0  0  0  0  0  0  0  0
   -2.0512   -0.4556   -1.7705 C   0  0  0  0  0  0  0  0  0  0  0  0
   -2.5237   -1.2600   -2.6447 O   0  0  0  0  0  0  0  0  0  0  0  0
   -2.6784    0.5455   -0.8943 C   0  0  1  0  0  0  0  0  0  0  0  0
   -3.6307    0.0224    0.0644 N   0  0  0  0  0  0  0  0  0  0  0  0
   -4.9731    0.5274    0.1867 C   0  0  0  0  0  0  0  0  0  0  0  0
   -5.3141    1.4626   -0.5803 O   0  0  0  0  0  0  0  0  0  0  0  0
   -5.8108   -0.1212    1.2161 C   0  0  0  0  0  0  0  0  0  0  0  0
   -7.1462    0.4835    1.2371 N   0  0  0  0  0  0  0  0  0  0  0  0
   -7.5705    1.5271    1.9589 C   0  0  0  0  0  0  0  0  0  0  0  0
   -8.8515    1.7051    1.6417 N   0  0  0  0  0  0  0  0  0  0  0  0
   -9.1849    0.8037    0.7631 N   0  0  0  0  0  0  0  0  0  0  0  0
   -8.1483    0.0473    0.5056 N   0  0  0  0  0  0  0  0  0  0  0  0
    1.2822   -0.7102   -2.4283 C   0  0  0  0  0  0  0  0  0  0  0  0
    2.2442   -1.0390   -3.3506 O   0  0  0  0  0  0  0  0  0  0  0  0
    0.6990   -0.7579   -3.5264 O   0  0  0  0  0  0  0  0  0  0  0  0
   -0.9972    1.9584   -0.5953 H   0  0  0  0  0  0  0  0  0  0  0  0
    0.9179   -0.9511    2.0059 H   0  0  0  0  0  0  0  0  0  0  0  0
    1.3934    0.7662    1.7596 H   0  0  0  0  0  0  0  0  0  0  0  0
    2.9507   -1.5622    0.5643 H   0  0  0  0  0  0  0  0  0  0  0  0
    3.0858   -0.7568   -1.0167 H   0  0  0  0  0  0  0  0  0  0  0  0
   10.0880   -0.1225    0.8770 H   0  0  0  0  0  0  0  0  0  0  0  0
    9.6319   -0.0123   -0.8221 H   0  0  0  0  0  0  0  0  0  0  0  0
    9.6171   -1.6079   -0.0754 H   0  0  0  0  0  0  0  0  0  0  0  0
   -3.0870    1.3777   -1.5277 H   0  0  0  0  0  0  0  0  0  0  0  0
   -3.1898   -0.7575    0.6316 H   0  0  0  0  0  0  0  0  0  0  0  0
   -5.3316    0.0397    2.1944 H   0  0  0  0  0  0  0  0  0  0  0  0
   -5.8605   -1.2168    1.0525 H   0  0  0  0  0  0  0  0  0  0  0  0
   -6.9502    2.0946    2.6613 H   0  0  0  0  0  0  0  0  0  0  0  0
    2.8652   -1.8358   -3.1378 H   0  0  0  0  0  0  0  0  0  0  0  0
  1  2  1  0
  2  3  1  0
  3  4  1  0
  4  5  1  0
  5  6  1  0
  6  7  1  0
  7  8  2  0
  8  9  1  0
  9 10  2  0
 10 11  1  0
 10 12  1  0
  4 13  2  0
 13 14  1  0
 14 15  1  0
 15 16  2  0
 15 17  1  0
 17 18  1  0
 18 19  1  0
 19 20  2  0
 19 21  1  0
 21 22  1  0
 22 23  1  0
 23 24  2  0
 24 25  1  0
 25 26  2  0
 13 27  1  0
 27 28  1  0
 27 29  2  0
 14  1  1  0
 26 22  1  0
 17  1  1  0
 12  7  1  0
  1 30  1  6
  3 31  1  0
  3 32  1  0
  5 33  1  0
  5 34  1  0
 11 35  1  0
 11 36  1  0
 11 37  1  0
 17 38  1  6
 18 39  1  0
 21 40  1  0
 21 41  1  0
 23 42  1  0
 28 43  1  0
M  END
$$$$
