@<TRIPOS>MOLECULE
*****
 54 56 0 0 0
SMALL
GASTEIGER

@<TRIPOS>ATOM
      1 N          11.5695    0.9153   -1.2184 N.1     1  UNL1       -0.1908
      2 C          10.3992    0.9585   -1.3130 C.1     1  UNL1        0.1020
      3 C           8.9622    0.9888   -1.4329 C.ar    1  UNL1        0.0871
      4 C           8.1705    0.3579   -0.4808 C.ar    1  UNL1       -0.0381
      5 C           6.7987    0.3776   -0.5931 C.ar    1  UNL1       -0.0182
      6 C           6.1386    1.0070   -1.6297 C.ar    1  UNL1        0.1296
      7 O           4.7530    1.0156   -1.7241 O.3     1  UNL1       -0.4508
      8 P           3.7117    0.0898   -0.7713 P.3     1  UNL1        0.2028
      9 O           4.0059    0.1713    0.7123 O.2     1  UNL1       -0.2915
     10 O           3.8664   -1.5400   -1.2201 O.co2   1  UNL1       -0.7709
     11 C           1.9565    0.5418   -1.0181 C.3     1  UNL1        0.0868
     12 N           1.1828   -0.4493   -0.3058 N.am    1  UNL1       -0.3010
     13 C          -0.2565   -0.3491   -0.2876 C.2     1  UNL1        0.2671
     14 O          -0.7922    0.5893   -0.8872 O.2     1  UNL1       -0.2684
     15 C          -0.9725   -1.3787    0.4477 C.2     1  UNL1        0.1776
     16 N          -2.2437   -1.3143    0.4836 N.2     1  UNL1       -0.0787
     17 O          -3.0482   -0.3918   -0.0822 O.2     1  UNL1       -0.3929
     18 C          -3.3752    0.7476    0.7444 C.3     1  UNL1        0.1236
     19 C          -4.3278    0.2897    1.8411 C.3     1  UNL1        0.0436
     20 C          -5.6070   -0.3071    1.3139 C.3     1  UNL1        0.1537
     21 N          -6.3648    0.6506    0.5471 N.ar    1  UNL1       -0.2037
     22 C          -6.2360    0.8433   -0.7565 C.ar    1  UNL1        0.1712
     23 C          -7.0185    1.7677   -1.4606 C.ar    1  UNL1        0.0021
     24 C          -7.9667    2.5232   -0.8049 C.ar    1  UNL1       -0.0506
     25 C          -8.1006    2.3218    0.5561 C.ar    1  UNL1        0.0021
     26 C          -7.3049    1.3995    1.1946 C.ar    1  UNL1        0.1712
     27 C          -0.2476   -2.4633    1.1387 C.ar    1  UNL1        0.0458
     28 C           0.2823   -3.6095    0.7158 C.ar    1  UNL1       -0.0452
     29 C           0.8927   -4.4419    1.5746 C.ar    1  UNL1       -0.0541
     30 C           0.9514   -4.0696    2.9076 C.ar    1  UNL1       -0.0237
     31 S           0.0937   -2.4726    2.8899 S.2     1  UNL1       -0.0949
     32 C           6.9342    1.6335   -2.5782 C.ar    1  UNL1        0.0169
     33 C           8.3198    1.6210   -2.4731 C.ar    1  UNL1        0.1442
     34 F           9.0949    2.2487   -3.4152 F       1  UNL1       -0.2040
     35 H           8.6904   -0.1351    0.3344 H       1  UNL1        0.0632
     36 H           6.2021   -0.1243    0.1645 H       1  UNL1        0.0654
     37 H           1.7712    1.5693   -0.6180 H       1  UNL1        0.0563
     38 H           1.7488    0.4552   -2.1076 H       1  UNL1        0.0563
     39 H           1.6334   -1.2630    0.2157 H       1  UNL1        0.1496
     40 H          -3.9390    1.4288    0.1039 H       1  UNL1        0.0725
     41 H          -2.4911    1.1724    1.2303 H       1  UNL1        0.0725
     42 H          -3.8053   -0.4631    2.4992 H       1  UNL1        0.0361
     43 H          -4.5987    1.1628    2.4703 H       1  UNL1        0.0361
     44 H          -6.2460   -0.7062    2.1339 H       1  UNL1        0.1031
     45 H          -5.3952   -1.1485    0.6003 H       1  UNL1        0.1031
     46 H          -5.4849    0.2513   -1.2943 H       1  UNL1        0.1376
     47 H          -6.8817    1.8977   -2.5318 H       1  UNL1        0.0677
     48 H          -8.5500    3.2195   -1.3787 H       1  UNL1        0.0621
     49 H          -8.8396    2.9087    1.0678 H       1  UNL1        0.0677
     50 H          -7.4046    1.2332    2.2753 H       1  UNL1        0.1376
     51 H           0.2098   -3.8689   -0.3860 H       1  UNL1        0.0629
     52 H           1.3568   -5.4217    1.2686 H       1  UNL1        0.0623
     53 H           1.3803   -4.5603    3.7974 H       1  UNL1        0.0693
     54 H           6.4215    2.1196   -3.3814 H       1  UNL1        0.0683
@<TRIPOS>UNITY_ATOM_ATTR
10 1
charge -1
21 1
charge 1
@<TRIPOS>BOND
     1     1     2    3
     2     2     3    1
     3     3     4   ar
     4     4     5   ar
     5     5     6   ar
     6     6     7    1
     7     7     8    1
     8     8     9    2
     9     8    10    1
    10     8    11    1
    11    11    12    1
    12    12    13   am
    13    13    14    2
    14    13    15    1
    15    15    16    2
    16    16    17    1
    17    17    18    1
    18    18    19    1
    19    19    20    1
    20    20    21    1
    21    21    22   ar
    22    22    23   ar
    23    23    24   ar
    24    24    25   ar
    25    25    26   ar
    26    15    27    1
    27    27    28   ar
    28    28    29   ar
    29    29    30   ar
    30    30    31   ar
    31     6    32   ar
    32    32    33   ar
    33    33    34    1
    34    33     3   ar
    35    26    21   ar
    36    31    27   ar
    37     4    35    1
    38     5    36    1
    39    11    37    1
    40    11    38    1
    41    12    39    1
    42    18    40    1
    43    18    41    1
    44    19    42    1
    45    19    43    1
    46    20    44    1
    47    20    45    1
    48    22    46    1
    49    23    47    1
    50    24    48    1
    51    25    49    1
    52    26    50    1
    53    28    51    1
    54    29    52    1
    55    30    53    1
    56    32    54    1
