
     RDKit          3D

 56 60  0  0  0  0  0  0  0  0999 V2000
    8.3162   -0.7770    1.9095 O   0  0  0  0  0  0  0  0  0  0  0  0
    8.4278   -0.0237    0.9170 C   0  0  0  0  0  0  0  0  0  0  0  0
    9.2327    1.0868    0.9801 O   0  0  0  0  0  0  0  0  0  0  0  0
    7.6837   -0.3360   -0.3206 C   0  0  0  0  0  0  0  0  0  0  0  0
    6.2229   -0.4797    0.0649 C   0  0  1  0  0  0  0  0  0  0  0  0
    5.6918    0.8272    0.6843 C   0  0  0  0  0  0  0  0  0  0  0  0
    4.3156    0.7251    0.5916 O   0  0  0  0  0  0  0  0  0  0  0  0
    4.0221    0.0144   -0.5553 C   0  0  0  0  0  0  0  0  0  0  0  0
    3.1468   -1.1534   -0.1871 C   0  0  0  0  0  0  0  0  0  0  0  0
    1.9987   -1.2781   -1.1946 C   0  0  0  0  0  0  0  0  0  0  0  0
    1.1976   -0.0903   -1.0057 N   0  0  0  0  0  0  0  0  0  0  0  0
   -0.1908   -0.1819   -0.7360 C   0  0  0  0  0  0  0  0  0  0  0  0
   -0.9377    0.9912   -0.5725 C   0  0  0  0  0  0  0  0  0  0  0  0
   -2.2866    0.9692   -0.3017 C   0  0  0  0  0  0  0  0  0  0  0  0
   -2.8995   -0.2628   -0.1919 C   0  0  0  0  0  0  0  0  0  0  0  0
   -4.3449   -0.3491    0.1201 C   0  0  0  0  0  0  0  0  0  0  0  0
   -5.1809    0.6705    0.3657 N   0  0  0  0  0  0  0  0  0  0  0  0
   -6.4136    0.1970    0.6291 C   0  0  0  0  0  0  0  0  0  0  0  0
   -7.6267    0.7723    0.9449 C   0  0  0  0  0  0  0  0  0  0  0  0
   -8.7520    0.0075    1.1740 C   0  0  0  0  0  0  0  0  0  0  0  0
  -10.0379    0.6646    1.5162 C   0  0  0  0  0  0  0  0  0  0  0  0
  -10.6154    1.2672    0.4086 F   0  0  0  0  0  0  0  0  0  0  0  0
  -10.9433   -0.2860    1.9982 F   0  0  0  0  0  0  0  0  0  0  0  0
   -9.8744    1.5993    2.5297 F   0  0  0  0  0  0  0  0  0  0  0  0
   -8.6971   -1.3632    1.0926 C   0  0  0  0  0  0  0  0  0  0  0  0
   -7.4919   -1.9660    0.7773 C   0  0  0  0  0  0  0  0  0  0  0  0
   -6.3631   -1.1853    0.5485 C   0  0  0  0  0  0  0  0  0  0  0  0
   -5.0809   -1.4683    0.2348 N   0  0  0  0  0  0  0  0  0  0  0  0
   -2.1527   -1.4074   -0.3555 C   0  0  0  0  0  0  0  0  0  0  0  0
   -0.8314   -1.3579   -0.6207 N   0  0  0  0  0  0  0  0  0  0  0  0
    1.9007    1.1745   -1.1017 C   0  0  0  0  0  0  0  0  0  0  0  0
    3.3340    0.9465   -1.5343 C   0  0  0  0  0  0  0  0  0  0  0  0
    5.3013   -0.5528   -1.1260 C   0  0  0  0  0  0  0  0  0  0  0  0
    9.5547    1.5030    1.8501 H   0  0  0  0  0  0  0  0  0  0  0  0
    7.8505    0.3624   -1.1342 H   0  0  0  0  0  0  0  0  0  0  0  0
    8.0081   -1.3504   -0.6797 H   0  0  0  0  0  0  0  0  0  0  0  0
    6.0742   -1.2684    0.8067 H   0  0  0  0  0  0  0  0  0  0  0  0
    6.0034    1.6336   -0.0079 H   0  0  0  0  0  0  0  0  0  0  0  0
    6.0681    1.0135    1.6841 H   0  0  0  0  0  0  0  0  0  0  0  0
    3.6636   -2.1286   -0.1906 H   0  0  0  0  0  0  0  0  0  0  0  0
    2.6606   -0.9543    0.7836 H   0  0  0  0  0  0  0  0  0  0  0  0
    2.4823   -1.2697   -2.2024 H   0  0  0  0  0  0  0  0  0  0  0  0
    1.4694   -2.2226   -1.1017 H   0  0  0  0  0  0  0  0  0  0  0  0
   -0.4396    1.9447   -0.6613 H   0  0  0  0  0  0  0  0  0  0  0  0
   -2.8575    1.8987   -0.1766 H   0  0  0  0  0  0  0  0  0  0  0  0
   -7.6882    1.8382    1.0161 H   0  0  0  0  0  0  0  0  0  0  0  0
   -9.5743   -1.9997    1.2689 H   0  0  0  0  0  0  0  0  0  0  0  0
   -7.4313   -3.0371    0.7112 H   0  0  0  0  0  0  0  0  0  0  0  0
   -4.6906   -2.4288    0.0885 H   0  0  0  0  0  0  0  0  0  0  0  0
   -2.6727   -2.3663   -0.2600 H   0  0  0  0  0  0  0  0  0  0  0  0
    1.4545    1.8300   -1.8735 H   0  0  0  0  0  0  0  0  0  0  0  0
    1.8510    1.7306   -0.1496 H   0  0  0  0  0  0  0  0  0  0  0  0
    3.3707    0.5979   -2.5660 H   0  0  0  0  0  0  0  0  0  0  0  0
    3.8336    1.9433   -1.4849 H   0  0  0  0  0  0  0  0  0  0  0  0
    5.7473    0.1341   -1.8903 H   0  0  0  0  0  0  0  0  0  0  0  0
    5.1913   -1.5714   -1.5139 H   0  0  0  0  0  0  0  0  0  0  0  0
  1  2  2  0
  2  3  1  0
  2  4  1  0
  4  5  1  0
  5  6  1  0
  6  7  1  0
  7  8  1  0
  8  9  1  0
  9 10  1  0
 10 11  1  0
 11 12  1  0
 12 13  2  0
 13 14  1  0
 14 15  2  0
 15 16  1  0
 16 17  2  0
 17 18  1  0
 18 19  2  0
 19 20  1  0
 20 21  1  0
 21 22  1  0
 21 23  1  0
 21 24  1  0
 20 25  2  0
 25 26  1  0
 26 27  2  0
 27 28  1  0
 15 29  1  0
 29 30  2  0
 11 31  1  0
 31 32  1  0
  8 33  1  0
 33  5  1  0
 32  8  1  0
 30 12  1  0
 28 16  1  0
 27 18  1  0
  3 34  1  0
  4 35  1  0
  4 36  1  0
  5 37  1  1
  6 38  1  0
  6 39  1  0
  9 40  1  0
  9 41  1  0
 10 42  1  0
 10 43  1  0
 13 44  1  0
 14 45  1  0
 19 46  1  0
 25 47  1  0
 26 48  1  0
 28 49  1  0
 29 50  1  0
 31 51  1  0
 31 52  1  0
 32 53  1  0
 32 54  1  0
 33 55  1  0
 33 56  1  0
M  END
$$$$
