@<TRIPOS>MOLECULE
*****
 56 60 0 0 0
SMALL
GASTEIGER

@<TRIPOS>ATOM
      1 O           8.3162   -0.7770    1.9095 O.2     1  UNL1       -0.2510
      2 C           8.4278   -0.0237    0.9170 C.2     1  UNL1        0.3050
      3 O           9.2327    1.0868    0.9801 O.3     1  UNL1       -0.4806
      4 C           7.6837   -0.3360   -0.3206 C.3     1  UNL1        0.0498
      5 C           6.2229   -0.4797    0.0649 C.3     1  UNL1       -0.0049
      6 C           5.6918    0.8272    0.6843 C.3     1  UNL1        0.0518
      7 O           4.3156    0.7251    0.5916 O.3     1  UNL1       -0.3730
      8 C           4.0221    0.0144   -0.5553 C.3     1  UNL1        0.0727
      9 C           3.1468   -1.1534   -0.1871 C.3     1  UNL1       -0.0079
     10 C           1.9987   -1.2781   -1.1946 C.3     1  UNL1        0.0161
     11 N           1.1976   -0.0903   -1.0057 N.pl3   1  UNL1       -0.3150
     12 C          -0.1908   -0.1819   -0.7360 C.ar    1  UNL1        0.1212
     13 C          -0.9377    0.9912   -0.5725 C.ar    1  UNL1       -0.0210
     14 C          -2.2866    0.9692   -0.3017 C.ar    1  UNL1       -0.0464
     15 C          -2.8995   -0.2628   -0.1919 C.ar    1  UNL1        0.0355
     16 C          -4.3449   -0.3491    0.1201 C.ar    1  UNL1        0.1407
     17 N          -5.1809    0.6705    0.3657 N.ar    1  UNL1       -0.2277
     18 C          -6.4136    0.1970    0.6291 C.ar    1  UNL1        0.0900
     19 C          -7.6267    0.7723    0.9449 C.ar    1  UNL1       -0.0226
     20 C          -8.7520    0.0075    1.1740 C.ar    1  UNL1        0.0569
     21 C         -10.0379    0.6646    1.5162 C.3     1  UNL1        0.4175
     22 F         -10.6154    1.2672    0.4086 F       1  UNL1       -0.1659
     23 F         -10.9433   -0.2860    1.9982 F       1  UNL1       -0.1659
     24 F          -9.8744    1.5993    2.5297 F       1  UNL1       -0.1659
     25 C          -8.6971   -1.3632    1.0926 C.ar    1  UNL1       -0.0480
     26 C          -7.4919   -1.9660    0.7773 C.ar    1  UNL1       -0.0357
     27 C          -6.3631   -1.1853    0.5485 C.ar    1  UNL1        0.0665
     28 N          -5.0809   -1.4683    0.2348 N.ar    1  UNL1       -0.3378
     29 C          -2.1527   -1.4074   -0.3555 C.ar    1  UNL1        0.0403
     30 N          -0.8314   -1.3579   -0.6207 N.ar    1  UNL1       -0.2396
     31 C           1.9007    1.1745   -1.1017 C.3     1  UNL1        0.0161
     32 C           3.3340    0.9465   -1.5343 C.3     1  UNL1       -0.0079
     33 C           5.3013   -0.5528   -1.1260 C.3     1  UNL1       -0.0182
     34 H           9.5547    1.5030    1.8501 H       1  UNL1        0.2951
     35 H           7.8505    0.3624   -1.1342 H       1  UNL1        0.0381
     36 H           8.0081   -1.3504   -0.6797 H       1  UNL1        0.0381
     37 H           6.0742   -1.2684    0.8067 H       1  UNL1        0.0329
     38 H           6.0034    1.6336   -0.0079 H       1  UNL1        0.0563
     39 H           6.0681    1.0135    1.6841 H       1  UNL1        0.0563
     40 H           3.6636   -2.1286   -0.1906 H       1  UNL1        0.0308
     41 H           2.6606   -0.9543    0.7836 H       1  UNL1        0.0308
     42 H           2.4823   -1.2697   -2.2024 H       1  UNL1        0.0465
     43 H           1.4694   -2.2226   -1.1017 H       1  UNL1        0.0465
     44 H          -0.4396    1.9447   -0.6613 H       1  UNL1        0.0652
     45 H          -2.8575    1.8987   -0.1766 H       1  UNL1        0.0626
     46 H          -7.6882    1.8382    1.0161 H       1  UNL1        0.0645
     47 H          -9.5743   -1.9997    1.2689 H       1  UNL1        0.0624
     48 H          -7.4313   -3.0371    0.7112 H       1  UNL1        0.0639
     49 H          -4.6906   -2.4288    0.0885 H       1  UNL1        0.1674
     50 H          -2.6727   -2.3663   -0.2600 H       1  UNL1        0.0837
     51 H           1.4545    1.8300   -1.8735 H       1  UNL1        0.0465
     52 H           1.8510    1.7306   -0.1496 H       1  UNL1        0.0465
     53 H           3.3707    0.5979   -2.5660 H       1  UNL1        0.0308
     54 H           3.8336    1.9433   -1.4849 H       1  UNL1        0.0308
     55 H           5.7473    0.1341   -1.8903 H       1  UNL1        0.0296
     56 H           5.1913   -1.5714   -1.5139 H       1  UNL1        0.0296
@<TRIPOS>BOND
     1     1     2    2
     2     2     3    1
     3     2     4    1
     4     4     5    1
     5     5     6    1
     6     6     7    1
     7     7     8    1
     8     8     9    1
     9     9    10    1
    10    10    11    1
    11    11    12    1
    12    12    13   ar
    13    13    14   ar
    14    14    15   ar
    15    15    16    1
    16    16    17   ar
    17    17    18   ar
    18    18    19   ar
    19    19    20   ar
    20    20    21    1
    21    21    22    1
    22    21    23    1
    23    21    24    1
    24    20    25   ar
    25    25    26   ar
    26    26    27   ar
    27    27    28   ar
    28    15    29   ar
    29    29    30   ar
    30    11    31    1
    31    31    32    1
    32     8    33    1
    33    33     5    1
    34    32     8    1
    35    30    12   ar
    36    28    16   ar
    37    27    18   ar
    38     3    34    1
    39     4    35    1
    40     4    36    1
    41     5    37    1
    42     6    38    1
    43     6    39    1
    44     9    40    1
    45     9    41    1
    46    10    42    1
    47    10    43    1
    48    13    44    1
    49    14    45    1
    50    19    46    1
    51    25    47    1
    52    26    48    1
    53    28    49    1
    54    29    50    1
    55    31    51    1
    56    31    52    1
    57    32    53    1
    58    32    54    1
    59    33    55    1
    60    33    56    1
