@<TRIPOS>MOLECULE
*****
 56 61 0 0 0
SMALL
GASTEIGER

@<TRIPOS>ATOM
      1 C          -7.7019    3.3039   -0.0468 C.3     1  UNL1       -0.0306
      2 C          -6.5868    4.2730   -0.3687 C.3     1  UNL1        0.0900
      3 O          -5.4948    3.6399   -0.9873 O.3     1  UNL1       -0.4604
      4 C          -4.7655    2.6150   -0.3997 C.2     1  UNL1        0.3575
      5 O          -5.1214    2.2524    0.7474 O.2     1  UNL1       -0.2432
      6 C          -3.6410    2.0070   -1.1095 C.ar    1  UNL1        0.1461
      7 N          -3.1983    2.3339   -2.3305 N.ar    1  UNL1       -0.3538
      8 C          -2.1621    1.5332   -2.5842 C.ar    1  UNL1        0.0084
      9 C          -1.9224    0.6657   -1.5086 C.ar    1  UNL1        0.0068
     10 C          -2.8649    0.9725   -0.5769 C.ar    1  UNL1        0.0674
     11 N          -2.9244    0.2805    0.6633 N.pl3   1  UNL1       -0.3154
     12 C          -1.9532   -0.7330    0.8598 C.2     1  UNL1        0.0157
     13 C          -1.0316   -1.0523   -0.0226 C.2     1  UNL1        0.0268
     14 C          -0.0648   -2.1351    0.2990 C.2     1  UNL1        0.1617
     15 O           1.0865   -2.0958   -0.2492 O.2     1  UNL1       -0.2923
     16 C          -0.4603   -3.2006    1.2248 C.3     1  UNL1        0.0106
     17 C          -1.8380   -2.9648    1.7850 C.3     1  UNL1       -0.0409
     18 C          -1.9751   -1.5028    2.1675 C.3     1  UNL1       -0.0137
     19 C          -0.9256   -0.3781   -1.2956 C.3     1  UNL1        0.0750
     20 C           0.4569    0.1011   -1.5697 C.ar    1  UNL1        0.1184
     21 C           1.0684    0.0459   -2.7839 C.ar    1  UNL1       -0.0186
     22 C           2.3451    0.5932   -2.6087 C.ar    1  UNL1       -0.0091
     23 C           2.4104    0.9442   -1.2786 C.ar    1  UNL1        0.1689
     24 S           3.8518    1.6994   -0.5196 S.3     1  UNL1       -0.0142
     25 C           4.9639    0.4538    0.1205 C.ar    1  UNL1        0.1749
     26 N           6.1093    0.7593    0.7319 N.ar    1  UNL1       -0.2186
     27 C           6.7363   -0.3818    1.1057 C.ar    1  UNL1        0.1280
     28 C           7.9395   -0.6025    1.7640 C.ar    1  UNL1        0.1885
     29 F           8.6998    0.4272    2.1452 F       1  UNL1       -0.2001
     30 C           8.3360   -1.8797    2.0169 C.ar    1  UNL1        0.1956
     31 F           9.5140   -2.1621    2.6633 F       1  UNL1       -0.1994
     32 C           7.5238   -2.9203    1.6080 C.ar    1  UNL1        0.1633
     33 F           7.9473   -4.1808    1.8751 F       1  UNL1       -0.2023
     34 C           6.3328   -2.7033    0.9564 C.ar    1  UNL1        0.0021
     35 C           5.9122   -1.4120    0.6901 C.ar    1  UNL1        0.0726
     36 N           4.8387   -0.8759    0.0925 N.ar    1  UNL1       -0.3324
     37 O           1.2669    0.6327   -0.7046 O.2     1  UNL1       -0.4522
     38 H          -7.4892    2.7285    0.8779 H       1  UNL1        0.0262
     39 H          -7.9105    2.6461   -0.9142 H       1  UNL1        0.0262
     40 H          -8.6338    3.8794    0.1505 H       1  UNL1        0.0262
     41 H          -7.0011    4.9928   -1.1235 H       1  UNL1        0.0695
     42 H          -6.3238    4.8157    0.5479 H       1  UNL1        0.0695
     43 H          -3.6042    3.0741   -2.9403 H       1  UNL1        0.1656
     44 H          -1.5696    1.5217   -3.4717 H       1  UNL1        0.0810
     45 H          -3.6579    0.5458    1.3453 H       1  UNL1        0.1519
     46 H          -0.5045   -4.2013    0.7321 H       1  UNL1        0.0345
     47 H           0.2545   -3.2791    2.0971 H       1  UNL1        0.0345
     48 H          -2.5636   -3.1407    0.9535 H       1  UNL1        0.0273
     49 H          -2.0817   -3.6144    2.6264 H       1  UNL1        0.0273
     50 H          -1.0948   -1.2410    2.7824 H       1  UNL1        0.0326
     51 H          -2.9437   -1.3450    2.6351 H       1  UNL1        0.0326
     52 H          -1.1815   -1.1742   -2.0838 H       1  UNL1        0.0479
     53 H           0.7114   -0.3291   -3.7403 H       1  UNL1        0.0652
     54 H           3.1087    0.7062   -3.3809 H       1  UNL1        0.0661
     55 H           5.7203   -3.5186    0.6490 H       1  UNL1        0.0668
     56 H           4.0574   -1.4197   -0.3145 H       1  UNL1        0.1679
@<TRIPOS>BOND
     1     1     2    1
     2     2     3    1
     3     3     4    1
     4     4     5    2
     5     4     6    1
     6     6     7   ar
     7     7     8   ar
     8     8     9   ar
     9     9    10   ar
    10    10    11    1
    11    11    12    1
    12    12    13    2
    13    13    14    1
    14    14    15    2
    15    14    16    1
    16    16    17    1
    17    17    18    1
    18    13    19    1
    19    19    20    1
    20    20    21   ar
    21    21    22   ar
    22    22    23   ar
    23    23    24    1
    24    24    25    1
    25    25    26   ar
    26    26    27   ar
    27    27    28   ar
    28    28    29    1
    29    28    30   ar
    30    30    31    1
    31    30    32   ar
    32    32    33    1
    33    32    34   ar
    34    34    35   ar
    35    35    36   ar
    36    23    37   ar
    37    10     6   ar
    38    18    12    1
    39    37    20   ar
    40    19     9    1
    41    36    25   ar
    42    35    27   ar
    43     1    38    1
    44     1    39    1
    45     1    40    1
    46     2    41    1
    47     2    42    1
    48     7    43    1
    49     8    44    1
    50    11    45    1
    51    16    46    1
    52    16    47    1
    53    17    48    1
    54    17    49    1
    55    18    50    1
    56    18    51    1
    57    19    52    1
    58    21    53    1
    59    22    54    1
    60    34    55    1
    61    36    56    1
