@<TRIPOS>MOLECULE
*****
 69 71 0 0 0
SMALL
GASTEIGER

@<TRIPOS>ATOM
      1 C           7.9416    0.3720   -0.0110 C.3     1  UNL1       -0.0130
      2 N           7.0655    1.3907   -0.4914 N.3     1  UNL1       -0.3069
      3 C           7.2181    2.6236    0.2390 C.3     1  UNL1       -0.0130
      4 C           5.7055    0.9941   -0.6661 C.3     1  UNL1        0.0141
      5 C           4.9744    0.6971    0.6058 C.3     1  UNL1        0.0275
      6 N           3.6137    0.3147    0.2660 N.am    1  UNL1       -0.2987
      7 C           2.6290    1.3776    0.1855 C.3     1  UNL1        0.0305
      8 C           1.5723    1.0842   -0.8294 C.3     1  UNL1        0.0308
      9 N           0.6920   -0.0245   -0.3848 N.am    1  UNL1       -0.2955
     10 C          -0.5542   -0.1013   -0.9831 C.2     1  UNL1        0.2490
     11 O          -0.8020    0.8666   -1.8031 O.2     1  UNL1       -0.2699
     12 C          -1.6349   -1.0943   -0.8377 C.ar    1  UNL1        0.0657
     13 C          -1.4626   -2.3508   -0.4061 C.ar    1  UNL1       -0.0370
     14 C          -2.5510   -3.2147   -0.3539 C.ar    1  UNL1       -0.0023
     15 C          -2.6532   -4.6250    0.0747 C.3     1  UNL1       -0.0064
     16 C          -1.2870   -5.1022    0.5045 C.3     1  UNL1       -0.0556
     17 C          -3.6670   -4.7791    1.1920 C.3     1  UNL1       -0.0556
     18 C          -3.1530   -5.5086   -1.0722 C.3     1  UNL1       -0.0556
     19 S          -3.8428   -2.1447   -0.9563 S.2     1  UNL1       -0.0771
     20 C          -2.8804   -0.6888   -1.2217 C.ar    1  UNL1        0.0853
     21 N          -3.4351    0.4542   -1.7015 N.am    1  UNL1       -0.2629
     22 C          -3.9600    1.4621   -0.8529 C.2     1  UNL1        0.3085
     23 O          -3.8857    1.2380    0.3698 O.2     1  UNL1       -0.2521
     24 N          -4.5378    2.6625   -1.3748 N.am    1  UNL1       -0.2678
     25 C          -5.0599    3.6695   -0.5194 C.ar    1  UNL1        0.0546
     26 C          -6.3821    3.6758   -0.1269 C.ar    1  UNL1       -0.0389
     27 C          -6.9107    4.6562    0.7122 C.ar    1  UNL1       -0.0585
     28 C          -6.0922    5.6633    1.1742 C.ar    1  UNL1       -0.0419
     29 C          -4.7559    5.6595    0.7794 C.ar    1  UNL1        0.0610
     30 CL         -3.7415    6.9422    1.3744 Cl      1  UNL1       -0.0820
     31 C          -4.2503    4.6830   -0.0498 C.ar    1  UNL1        0.0804
     32 CL         -2.5393    4.7435   -0.5102 Cl      1  UNL1       -0.0801
     33 C           1.0562   -0.9347    0.6484 C.3     1  UNL1        0.0233
     34 C           2.1272   -1.8855    0.1586 C.3     1  UNL1        0.0399
     35 C           3.3907   -1.0716    0.0455 C.2     1  UNL1        0.2171
     36 O           4.3829   -1.7464   -0.2976 O.2     1  UNL1       -0.2755
     37 H           8.0804    0.3850    1.0874 H       1  UNL1        0.0391
     38 H           7.6678   -0.6440   -0.2974 H       1  UNL1        0.0391
     39 H           8.9666    0.5852   -0.4338 H       1  UNL1        0.0391
     40 H           8.0364    3.2038   -0.2720 H       1  UNL1        0.0391
     41 H           6.3150    3.2599    0.1337 H       1  UNL1        0.0391
     42 H           7.4453    2.4905    1.3077 H       1  UNL1        0.0391
     43 H           5.6896    0.0818   -1.2966 H       1  UNL1        0.0442
     44 H           5.1731    1.8340   -1.1729 H       1  UNL1        0.0442
     45 H           5.4363   -0.1752    1.1381 H       1  UNL1        0.0477
     46 H           4.9795    1.5797    1.2944 H       1  UNL1        0.0477
     47 H           3.1770    2.3254   -0.0889 H       1  UNL1        0.0480
     48 H           2.2544    1.5722    1.2053 H       1  UNL1        0.0480
     49 H           0.9945    1.9479   -1.1487 H       1  UNL1        0.0480
     50 H           2.1000    0.6659   -1.7310 H       1  UNL1        0.0480
     51 H          -0.4926   -2.8173   -0.1063 H       1  UNL1        0.0634
     52 H          -1.0374   -4.6448    1.4752 H       1  UNL1        0.0238
     53 H          -1.3278   -6.2061    0.6475 H       1  UNL1        0.0238
     54 H          -0.5382   -4.8588   -0.2762 H       1  UNL1        0.0238
     55 H          -4.3373   -3.8842    1.1468 H       1  UNL1        0.0238
     56 H          -3.1908   -4.7572    2.1893 H       1  UNL1        0.0238
     57 H          -4.3295   -5.6568    1.0518 H       1  UNL1        0.0238
     58 H          -3.3838   -6.4920   -0.6270 H       1  UNL1        0.0238
     59 H          -4.0973   -5.0764   -1.4383 H       1  UNL1        0.0238
     60 H          -2.3988   -5.5784   -1.8748 H       1  UNL1        0.0238
     61 H          -3.5010    0.6416   -2.7298 H       1  UNL1        0.1569
     62 H          -4.5809    2.8111   -2.4269 H       1  UNL1        0.1564
     63 H          -7.0761    2.9137   -0.4558 H       1  UNL1        0.0637
     64 H          -7.9366    4.6570    1.0127 H       1  UNL1        0.0619
     65 H          -6.4612    6.4440    1.8281 H       1  UNL1        0.0633
     66 H           0.2660   -1.3627    1.2538 H       1  UNL1        0.0469
     67 H           1.6201   -0.2891    1.4206 H       1  UNL1        0.0469
     68 H           1.9031   -2.1963   -0.8904 H       1  UNL1        0.0374
     69 H           2.2535   -2.7172    0.8515 H       1  UNL1        0.0374
@<TRIPOS>BOND
     1     1     2    1
     2     2     3    1
     3     2     4    1
     4     4     5    1
     5     5     6    1
     6     6     7    1
     7     7     8    1
     8     8     9    1
     9     9    10   am
    10    10    11    2
    11    10    12    1
    12    12    13   ar
    13    13    14   ar
    14    14    15    1
    15    15    16    1
    16    15    17    1
    17    15    18    1
    18    14    19   ar
    19    19    20   ar
    20    20    21    1
    21    21    22   am
    22    22    23    2
    23    22    24   am
    24    24    25    1
    25    25    26   ar
    26    26    27   ar
    27    27    28   ar
    28    28    29   ar
    29    29    30    1
    30    29    31   ar
    31    31    32    1
    32     9    33    1
    33    33    34    1
    34    34    35    1
    35    35    36    2
    36    35     6   am
    37    20    12   ar
    38    31    25   ar
    39     1    37    1
    40     1    38    1
    41     1    39    1
    42     3    40    1
    43     3    41    1
    44     3    42    1
    45     4    43    1
    46     4    44    1
    47     5    45    1
    48     5    46    1
    49     7    47    1
    50     7    48    1
    51     8    49    1
    52     8    50    1
    53    13    51    1
    54    16    52    1
    55    16    53    1
    56    16    54    1
    57    17    55    1
    58    17    56    1
    59    17    57    1
    60    18    58    1
    61    18    59    1
    62    18    60    1
    63    21    61    1
    64    24    62    1
    65    26    63    1
    66    27    64    1
    67    28    65    1
    68    33    66    1
    69    33    67    1
    70    34    68    1
    71    34    69    1
