
     RDKit          3D

 69 71  0  0  0  0  0  0  0  0999 V2000
    7.9416    0.3720   -0.0110 C   0  0  0  0  0  0  0  0  0  0  0  0
    7.0655    1.3907   -0.4914 N   0  0  0  0  0  0  0  0  0  0  0  0
    7.2181    2.6236    0.2390 C   0  0  0  0  0  0  0  0  0  0  0  0
    5.7055    0.9941   -0.6661 C   0  0  0  0  0  0  0  0  0  0  0  0
    4.9744    0.6971    0.6058 C   0  0  0  0  0  0  0  0  0  0  0  0
    3.6137    0.3147    0.2660 N   0  0  0  0  0  0  0  0  0  0  0  0
    2.6290    1.3776    0.1855 C   0  0  0  0  0  0  0  0  0  0  0  0
    1.5723    1.0842   -0.8294 C   0  0  0  0  0  0  0  0  0  0  0  0
    0.6920   -0.0245   -0.3848 N   0  0  0  0  0  0  0  0  0  0  0  0
   -0.5542   -0.1013   -0.9831 C   0  0  0  0  0  0  0  0  0  0  0  0
   -0.8020    0.8666   -1.8031 O   0  0  0  0  0  0  0  0  0  0  0  0
   -1.6349   -1.0943   -0.8377 C   0  0  0  0  0  0  0  0  0  0  0  0
   -1.4626   -2.3508   -0.4061 C   0  0  0  0  0  0  0  0  0  0  0  0
   -2.5510   -3.2147   -0.3539 C   0  0  0  0  0  0  0  0  0  0  0  0
   -2.6532   -4.6250    0.0747 C   0  0  0  0  0  0  0  0  0  0  0  0
   -1.2870   -5.1022    0.5045 C   0  0  0  0  0  0  0  0  0  0  0  0
   -3.6670   -4.7791    1.1920 C   0  0  0  0  0  0  0  0  0  0  0  0
   -3.1530   -5.5086   -1.0722 C   0  0  0  0  0  0  0  0  0  0  0  0
   -3.8428   -2.1447   -0.9563 S   0  0  0  0  0  0  0  0  0  0  0  0
   -2.8804   -0.6888   -1.2217 C   0  0  0  0  0  0  0  0  0  0  0  0
   -3.4351    0.4542   -1.7015 N   0  0  0  0  0  0  0  0  0  0  0  0
   -3.9600    1.4621   -0.8529 C   0  0  0  0  0  0  0  0  0  0  0  0
   -3.8857    1.2380    0.3698 O   0  0  0  0  0  0  0  0  0  0  0  0
   -4.5378    2.6625   -1.3748 N   0  0  0  0  0  0  0  0  0  0  0  0
   -5.0599    3.6695   -0.5194 C   0  0  0  0  0  0  0  0  0  0  0  0
   -6.3821    3.6758   -0.1269 C   0  0  0  0  0  0  0  0  0  0  0  0
   -6.9107    4.6562    0.7122 C   0  0  0  0  0  0  0  0  0  0  0  0
   -6.0922    5.6633    1.1742 C   0  0  0  0  0  0  0  0  0  0  0  0
   -4.7559    5.6595    0.7794 C   0  0  0  0  0  0  0  0  0  0  0  0
   -3.7415    6.9422    1.3744 Cl  0  0  0  0  0  0  0  0  0  0  0  0
   -4.2503    4.6830   -0.0498 C   0  0  0  0  0  0  0  0  0  0  0  0
   -2.5393    4.7435   -0.5102 Cl  0  0  0  0  0  0  0  0  0  0  0  0
    1.0562   -0.9347    0.6484 C   0  0  0  0  0  0  0  0  0  0  0  0
    2.1272   -1.8855    0.1586 C   0  0  0  0  0  0  0  0  0  0  0  0
    3.3907   -1.0716    0.0455 C   0  0  0  0  0  0  0  0  0  0  0  0
    4.3829   -1.7464   -0.2976 O   0  0  0  0  0  0  0  0  0  0  0  0
    8.0804    0.3850    1.0874 H   0  0  0  0  0  0  0  0  0  0  0  0
    7.6678   -0.6440   -0.2974 H   0  0  0  0  0  0  0  0  0  0  0  0
    8.9666    0.5852   -0.4338 H   0  0  0  0  0  0  0  0  0  0  0  0
    8.0364    3.2038   -0.2720 H   0  0  0  0  0  0  0  0  0  0  0  0
    6.3150    3.2599    0.1337 H   0  0  0  0  0  0  0  0  0  0  0  0
    7.4453    2.4905    1.3077 H   0  0  0  0  0  0  0  0  0  0  0  0
    5.6896    0.0818   -1.2966 H   0  0  0  0  0  0  0  0  0  0  0  0
    5.1731    1.8340   -1.1729 H   0  0  0  0  0  0  0  0  0  0  0  0
    5.4363   -0.1752    1.1381 H   0  0  0  0  0  0  0  0  0  0  0  0
    4.9795    1.5797    1.2944 H   0  0  0  0  0  0  0  0  0  0  0  0
    3.1770    2.3254   -0.0889 H   0  0  0  0  0  0  0  0  0  0  0  0
    2.2544    1.5722    1.2053 H   0  0  0  0  0  0  0  0  0  0  0  0
    0.9945    1.9479   -1.1487 H   0  0  0  0  0  0  0  0  0  0  0  0
    2.1000    0.6659   -1.7310 H   0  0  0  0  0  0  0  0  0  0  0  0
   -0.4926   -2.8173   -0.1063 H   0  0  0  0  0  0  0  0  0  0  0  0
   -1.0374   -4.6448    1.4752 H   0  0  0  0  0  0  0  0  0  0  0  0
   -1.3278   -6.2061    0.6475 H   0  0  0  0  0  0  0  0  0  0  0  0
   -0.5382   -4.8588   -0.2762 H   0  0  0  0  0  0  0  0  0  0  0  0
   -4.3373   -3.8842    1.1468 H   0  0  0  0  0  0  0  0  0  0  0  0
   -3.1908   -4.7572    2.1893 H   0  0  0  0  0  0  0  0  0  0  0  0
   -4.3295   -5.6568    1.0518 H   0  0  0  0  0  0  0  0  0  0  0  0
   -3.3838   -6.4920   -0.6270 H   0  0  0  0  0  0  0  0  0  0  0  0
   -4.0973   -5.0764   -1.4383 H   0  0  0  0  0  0  0  0  0  0  0  0
   -2.3988   -5.5784   -1.8748 H   0  0  0  0  0  0  0  0  0  0  0  0
   -3.5010    0.6416   -2.7298 H   0  0  0  0  0  0  0  0  0  0  0  0
   -4.5809    2.8111   -2.4269 H   0  0  0  0  0  0  0  0  0  0  0  0
   -7.0761    2.9137   -0.4558 H   0  0  0  0  0  0  0  0  0  0  0  0
   -7.9366    4.6570    1.0127 H   0  0  0  0  0  0  0  0  0  0  0  0
   -6.4612    6.4440    1.8281 H   0  0  0  0  0  0  0  0  0  0  0  0
    0.2660   -1.3627    1.2538 H   0  0  0  0  0  0  0  0  0  0  0  0
    1.6201   -0.2891    1.4206 H   0  0  0  0  0  0  0  0  0  0  0  0
    1.9031   -2.1963   -0.8904 H   0  0  0  0  0  0  0  0  0  0  0  0
    2.2535   -2.7172    0.8515 H   0  0  0  0  0  0  0  0  0  0  0  0
  1  2  1  0
  2  3  1  0
  2  4  1  0
  4  5  1  0
  5  6  1  0
  6  7  1  0
  7  8  1  0
  8  9  1  0
  9 10  1  0
 10 11  2  0
 10 12  1  0
 12 13  1  0
 13 14  2  0
 14 15  1  0
 15 16  1  0
 15 17  1  0
 15 18  1  0
 14 19  1  0
 19 20  1  0
 20 21  1  0
 21 22  1  0
 22 23  2  0
 22 24  1  0
 24 25  1  0
 25 26  2  0
 26 27  1  0
 27 28  2  0
 28 29  1  0
 29 30  1  0
 29 31  2  0
 31 32  1  0
  9 33  1  0
 33 34  1  0
 34 35  1  0
 35 36  2  0
 35  6  1  0
 20 12  2  0
 31 25  1  0
  1 37  1  0
  1 38  1  0
  1 39  1  0
  3 40  1  0
  3 41  1  0
  3 42  1  0
  4 43  1  0
  4 44  1  0
  5 45  1  0
  5 46  1  0
  7 47  1  0
  7 48  1  0
  8 49  1  0
  8 50  1  0
 13 51  1  0
 16 52  1  0
 16 53  1  0
 16 54  1  0
 17 55  1  0
 17 56  1  0
 17 57  1  0
 18 58  1  0
 18 59  1  0
 18 60  1  0
 21 61  1  0
 24 62  1  0
 26 63  1  0
 27 64  1  0
 28 65  1  0
 33 66  1  0
 33 67  1  0
 34 68  1  0
 34 69  1  0
M  END
$$$$
