@<TRIPOS>MOLECULE
*****
 68 71 0 0 0
SMALL
GASTEIGER

@<TRIPOS>ATOM
      1 C          -2.4817    0.1340    0.8025 C.3     1  UNL1       -0.0328
      2 C          -2.4707   -0.7696    2.0110 C.3     1  UNL1       -0.0492
      3 C          -1.0233   -1.2793    2.1163 C.3     1  UNL1       -0.0491
      4 C          -0.3287   -0.4874    1.0751 C.3     1  UNL1       -0.0299
      5 C           0.9940   -0.9367    0.5800 C.3     1  UNL1       -0.0083
      6 C           1.9770   -1.3163    1.6058 C.3     1  UNL1        0.0589
      7 O           1.5070   -1.8020    2.7982 O.3     1  UNL1       -0.3915
      8 C           2.8947   -0.1048    1.8273 C.3     1  UNL1       -0.0232
      9 C           3.7686   -0.0412    0.5919 C.3     1  UNL1       -0.0307
     10 C           4.8277    1.0194    0.7660 C.3     1  UNL1       -0.0234
     11 C           5.5996    1.0414   -0.5471 C.3     1  UNL1        0.0555
     12 O           6.7527    1.8060   -0.3759 O.3     1  UNL1       -0.3918
     13 C           4.6983    1.7014   -1.5432 C.3     1  UNL1       -0.0263
     14 C           3.2395    1.4626   -1.3474 C.3     1  UNL1       -0.0448
     15 C           2.9075    0.1878   -0.6192 C.3     1  UNL1       -0.0258
     16 C           3.1858   -0.9513   -1.5857 C.3     1  UNL1       -0.0590
     17 C           1.4650    0.2668   -0.2561 C.3     1  UNL1       -0.0299
     18 C           0.5643    0.2522   -1.4526 C.3     1  UNL1       -0.0489
     19 C          -0.8708    0.4596   -1.0540 C.3     1  UNL1       -0.0468
     20 C          -1.3929   -0.4714   -0.0184 C.3     1  UNL1       -0.0258
     21 C          -1.6751   -1.8729   -0.4805 C.3     1  UNL1       -0.0590
     22 C          -3.7774    0.3952    0.1889 C.3     1  UNL1       -0.0400
     23 C          -4.7057    1.0540    1.1877 C.3     1  UNL1       -0.0621
     24 C          -4.5272   -0.7111   -0.4455 C.3     1  UNL1       -0.0401
     25 C          -5.8377   -0.1981   -1.0087 C.3     1  UNL1        0.0450
     26 C          -5.6565    0.8549   -2.0471 C.2     1  UNL1        0.3047
     27 O          -6.9070    1.2834   -2.5140 O.3     1  UNL1       -0.4806
     28 O          -4.7212    1.4684   -2.6242 O.2     1  UNL1       -0.2510
     29 H          -2.0642    1.1044    1.1533 H       1  UNL1        0.0309
     30 H          -3.1890   -1.6107    1.9552 H       1  UNL1        0.0268
     31 H          -2.7607   -0.1678    2.8996 H       1  UNL1        0.0268
     32 H          -0.9797   -2.3708    1.9643 H       1  UNL1        0.0268
     33 H          -0.6720   -0.9759    3.1241 H       1  UNL1        0.0268
     34 H          -0.2426    0.5622    1.4324 H       1  UNL1        0.0310
     35 H           0.9818   -1.7550   -0.1705 H       1  UNL1        0.0331
     36 H           2.6981   -2.1093    1.2483 H       1  UNL1        0.0596
     37 H           1.6023   -2.7753    2.9082 H       1  UNL1        0.2098
     38 H           2.3204    0.8198    2.0052 H       1  UNL1        0.0293
     39 H           3.5839   -0.3724    2.6640 H       1  UNL1        0.0293
     40 H           4.3097   -1.0101    0.5615 H       1  UNL1        0.0308
     41 H           5.4963    0.7215    1.5803 H       1  UNL1        0.0293
     42 H           4.3845    2.0363    0.8840 H       1  UNL1        0.0293
     43 H           5.9176    0.0326   -0.8529 H       1  UNL1        0.0593
     44 H           7.5335    1.2225   -0.2396 H       1  UNL1        0.2098
     45 H           4.8768    2.8042   -1.4731 H       1  UNL1        0.0290
     46 H           5.0585    1.4311   -2.5739 H       1  UNL1        0.0290
     47 H           2.6980    2.3018   -0.8658 H       1  UNL1        0.0271
     48 H           2.8137    1.3550   -2.3799 H       1  UNL1        0.0271
     49 H           3.4972   -0.5978   -2.5918 H       1  UNL1        0.0235
     50 H           4.0508   -1.5917   -1.2440 H       1  UNL1        0.0235
     51 H           2.3539   -1.6494   -1.7084 H       1  UNL1        0.0235
     52 H           1.2765    1.2175    0.2764 H       1  UNL1        0.0310
     53 H           0.5925   -0.6777   -2.0468 H       1  UNL1        0.0268
     54 H           0.7826    1.0931   -2.1632 H       1  UNL1        0.0268
     55 H          -0.9335    1.4819   -0.6287 H       1  UNL1        0.0271
     56 H          -1.4406    0.4824   -1.9957 H       1  UNL1        0.0271
     57 H          -1.7884   -2.0071   -1.5554 H       1  UNL1        0.0235
     58 H          -2.5300   -2.2545    0.1361 H       1  UNL1        0.0235
     59 H          -0.8661   -2.6126   -0.2061 H       1  UNL1        0.0235
     60 H          -3.6265    1.1622   -0.6030 H       1  UNL1        0.0301
     61 H          -5.2788    1.9110    0.7536 H       1  UNL1        0.0233
     62 H          -5.4565    0.3365    1.5955 H       1  UNL1        0.0233
     63 H          -4.1892    1.4641    2.0658 H       1  UNL1        0.0233
     64 H          -4.0031   -1.1049   -1.3660 H       1  UNL1        0.0273
     65 H          -4.8179   -1.5300    0.2323 H       1  UNL1        0.0273
     66 H          -6.5100    0.1781   -0.1815 H       1  UNL1        0.0378
     67 H          -6.4331   -1.0073   -1.4826 H       1  UNL1        0.0378
     68 H          -7.0527    2.0171   -3.1772 H       1  UNL1        0.2951
@<TRIPOS>BOND
     1     1     2    1
     2     2     3    1
     3     3     4    1
     4     4     5    1
     5     5     6    1
     6     6     7    1
     7     6     8    1
     8     8     9    1
     9     9    10    1
    10    10    11    1
    11    11    12    1
    12    11    13    1
    13    13    14    1
    14    14    15    1
    15    15    16    1
    16    15    17    1
    17    17    18    1
    18    18    19    1
    19    19    20    1
    20    20    21    1
    21     1    22    1
    22    22    23    1
    23    22    24    1
    24    24    25    1
    25    25    26    1
    26    26    27    1
    27    26    28    2
    28    20     1    1
    29    20     4    1
    30    17     5    1
    31    15     9    1
    32     1    29    1
    33     2    30    1
    34     2    31    1
    35     3    32    1
    36     3    33    1
    37     4    34    1
    38     5    35    1
    39     6    36    1
    40     7    37    1
    41     8    38    1
    42     8    39    1
    43     9    40    1
    44    10    41    1
    45    10    42    1
    46    11    43    1
    47    12    44    1
    48    13    45    1
    49    13    46    1
    50    14    47    1
    51    14    48    1
    52    16    49    1
    53    16    50    1
    54    16    51    1
    55    17    52    1
    56    18    53    1
    57    18    54    1
    58    19    55    1
    59    19    56    1
    60    21    57    1
    61    21    58    1
    62    21    59    1
    63    22    60    1
    64    23    61    1
    65    23    62    1
    66    23    63    1
    67    24    64    1
    68    24    65    1
    69    25    66    1
    70    25    67    1
    71    27    68    1
