@<TRIPOS>MOLECULE
*****
 48 50 0 0 0
SMALL
GASTEIGER

@<TRIPOS>ATOM
      1 C          -7.0798   -0.2618   -0.0627 C.3     1  UNL1       -0.0653
      2 C          -6.6370    0.5535   -1.2589 C.3     1  UNL1       -0.0559
      3 C          -5.1452    0.8182   -1.2040 C.3     1  UNL1       -0.0532
      4 C          -4.7681    1.5766    0.0336 C.3     1  UNL1       -0.0500
      5 C          -3.3065    1.8566    0.1130 C.3     1  UNL1       -0.0186
      6 C          -2.4412    0.6236    0.1277 C.3     1  UNL1        0.0896
      7 O          -1.0989    1.0553    0.2099 O.3     1  UNL1       -0.4918
      8 C          -0.0365    0.1357    0.2430 C.ar    1  UNL1        0.1246
      9 C          -0.2685   -1.2221    0.1962 C.ar    1  UNL1        0.0224
     10 C           0.7602   -2.1393    0.2269 C.ar    1  UNL1        0.1349
     11 O           0.5527   -3.5006    0.1811 O.3     1  UNL1       -0.5058
     12 C           2.0572   -1.6673    0.3073 C.ar    1  UNL1        0.1080
     13 C           2.3191   -0.3092    0.3573 C.ar    1  UNL1        0.0030
     14 C           1.2669    0.5975    0.3239 C.ar    1  UNL1       -0.0114
     15 C           3.7271    0.1257    0.4641 C.2     1  UNL1        0.0078
     16 C           3.9506    1.3334    0.8770 C.2     1  UNL1       -0.0039
     17 C           5.3170    1.8834    1.0224 C.2     1  UNL1        0.2216
     18 O           5.4906    3.0389    1.4162 O.2     1  UNL1       -0.2842
     19 C           6.3782    0.9482    0.6635 C.2     1  UNL1        0.2064
     20 O           7.4581    1.4176    0.2375 O.2     1  UNL1       -0.2885
     21 C           6.0623   -0.4798    0.8439 C.3     1  UNL1        0.0577
     22 C           4.7940   -0.8148    0.1000 C.3     1  UNL1        0.1437
     23 C           5.0549   -0.7404   -1.4105 C.3     1  UNL1       -0.0201
     24 O           4.4432   -2.1751    0.3403 O.3     1  UNL1       -0.4495
     25 C           3.1326   -2.6145    0.2997 C.2     1  UNL1        0.3442
     26 O           2.8498   -3.8537    0.2551 O.2     1  UNL1       -0.2448
     27 H          -7.0437    0.3664    0.8529 H       1  UNL1        0.0230
     28 H          -8.1299   -0.5834   -0.2279 H       1  UNL1        0.0230
     29 H          -6.4552   -1.1553    0.0455 H       1  UNL1        0.0230
     30 H          -7.1419    1.5433   -1.2486 H       1  UNL1        0.0263
     31 H          -6.8886   -0.0378   -2.1569 H       1  UNL1        0.0263
     32 H          -4.5911   -0.1501   -1.1962 H       1  UNL1        0.0265
     33 H          -4.8408    1.4056   -2.0913 H       1  UNL1        0.0265
     34 H          -5.3072    2.5398    0.0827 H       1  UNL1        0.0266
     35 H          -5.0542    1.0093    0.9465 H       1  UNL1        0.0266
     36 H          -2.9555    2.5151   -0.7063 H       1  UNL1        0.0298
     37 H          -3.1172    2.3901    1.0808 H       1  UNL1        0.0298
     38 H          -2.6627   -0.0263    0.9946 H       1  UNL1        0.0696
     39 H          -2.6139    0.0694   -0.8372 H       1  UNL1        0.0696
     40 H          -1.2896   -1.5794    0.1334 H       1  UNL1        0.0691
     41 H           0.6386   -4.1297    0.9617 H       1  UNL1        0.2922
     42 H           1.4428    1.6632    0.3483 H       1  UNL1        0.0660
     43 H           3.1056    1.9723    1.1416 H       1  UNL1        0.0661
     44 H           6.9038   -1.1430    0.5483 H       1  UNL1        0.0389
     45 H           5.8302   -0.6565    1.9357 H       1  UNL1        0.0389
     46 H           5.5986   -1.6483   -1.7415 H       1  UNL1        0.0272
     47 H           5.6953    0.1217   -1.6459 H       1  UNL1        0.0272
     48 H           4.0436   -0.6717   -1.8784 H       1  UNL1        0.0272
@<TRIPOS>BOND
     1     1     2    1
     2     2     3    1
     3     3     4    1
     4     4     5    1
     5     5     6    1
     6     6     7    1
     7     7     8    1
     8     8     9   ar
     9     9    10   ar
    10    10    11    1
    11    10    12   ar
    12    12    13   ar
    13    13    14   ar
    14    13    15    1
    15    15    16    2
    16    16    17    1
    17    17    18    2
    18    17    19    1
    19    19    20    2
    20    19    21    1
    21    21    22    1
    22    22    23    1
    23    22    24    1
    24    24    25    1
    25    25    26    2
    26    14     8   ar
    27    22    15    1
    28    25    12    1
    29     1    27    1
    30     1    28    1
    31     1    29    1
    32     2    30    1
    33     2    31    1
    34     3    32    1
    35     3    33    1
    36     4    34    1
    37     4    35    1
    38     5    36    1
    39     5    37    1
    40     6    38    1
    41     6    39    1
    42     9    40    1
    43    11    41    1
    44    14    42    1
    45    16    43    1
    46    21    44    1
    47    21    45    1
    48    23    46    1
    49    23    47    1
    50    23    48    1
