
     RDKit          3D

 55 59  0  0  0  0  0  0  0  0999 V2000
    5.8471    0.7305    2.2481 C   0  0  0  0  0  0  0  0  0  0  0  0
    5.1538   -0.2772    1.5490 O   0  0  0  0  0  0  0  0  0  0  0  0
    3.7997   -0.1542    1.2240 C   0  0  0  0  0  0  0  0  0  0  0  0
    3.1158    0.9714    1.5892 C   0  0  0  0  0  0  0  0  0  0  0  0
    1.7794    1.1271    1.2856 C   0  0  0  0  0  0  0  0  0  0  0  0
    1.1058    0.1380    0.6011 C   0  0  0  0  0  0  0  0  0  0  0  0
   -0.3511    0.2641    0.2444 C   0  0  0  0  0  0  0  0  0  0  0  0
   -0.4361    0.8725   -1.0830 C   0  0  2  0  0  0  0  0  0  0  0  0
    0.1823    2.2616   -1.2151 C   0  0  0  0  0  0  0  0  0  0  0  0
    0.3621    2.4307   -2.6088 O   0  0  0  0  0  0  0  0  0  0  0  0
   -0.8082    2.4454   -3.3187 C   0  0  0  0  0  0  0  0  0  0  0  0
   -1.6237    1.1503   -3.1672 C   0  0  0  0  0  0  0  0  0  0  0  0
   -1.7045    0.9725   -1.7258 N   0  0  0  0  0  0  0  0  0  0  0  0
   -2.9662    0.9225   -1.1474 C   0  0  0  0  0  0  0  0  0  0  0  0
   -4.0441    1.0237   -1.8658 O   0  0  0  0  0  0  0  0  0  0  0  0
   -3.3124    0.7621    0.2541 C   0  0  0  0  0  0  0  0  0  0  0  0
   -3.4656    1.8931    1.0106 C   0  0  0  0  0  0  0  0  0  0  0  0
   -3.8017    1.8450    2.3425 C   0  0  0  0  0  0  0  0  0  0  0  0
   -3.9902    0.6179    2.9331 C   0  0  0  0  0  0  0  0  0  0  0  0
   -3.8349   -0.5140    2.1677 C   0  0  0  0  0  0  0  0  0  0  0  0
   -3.4965   -0.4662    0.8269 C   0  0  0  0  0  0  0  0  0  0  0  0
   -3.3475   -1.6833    0.0651 N   0  0  0  0  0  0  0  0  0  0  0  0
   -3.5604   -1.9050   -1.2170 N   0  0  0  0  0  0  0  0  0  0  0  0
   -3.3019   -3.1863   -1.5346 C   0  0  0  0  0  0  0  0  0  0  0  0
   -2.9041   -3.7803   -0.3578 C   0  0  0  0  0  0  0  0  0  0  0  0
   -2.9465   -2.8204    0.6009 N   0  0  0  0  0  0  0  0  0  0  0  0
    1.8259   -0.9830    0.2486 C   0  0  0  0  0  0  0  0  0  0  0  0
    3.1616   -1.1657    0.5387 C   0  0  0  0  0  0  0  0  0  0  0  0
    3.8908   -2.3641    0.1502 C   0  0  0  0  0  0  0  0  0  0  0  0
    3.4437   -3.4430   -0.5143 N   0  0  0  0  0  0  0  0  0  0  0  0
    4.4829   -4.3179   -0.6533 C   0  0  0  0  0  0  0  0  0  0  0  0
    5.5203   -3.7748   -0.0871 O   0  0  0  0  0  0  0  0  0  0  0  0
    5.1880   -2.5984    0.4036 N   0  0  0  0  0  0  0  0  0  0  0  0
    5.6110    1.7346    1.8109 H   0  0  0  0  0  0  0  0  0  0  0  0
    6.9361    0.5443    2.2111 H   0  0  0  0  0  0  0  0  0  0  0  0
    5.5732    0.7647    3.3219 H   0  0  0  0  0  0  0  0  0  0  0  0
    3.5964    1.7663    2.1220 H   0  0  0  0  0  0  0  0  0  0  0  0
    1.2710    2.0249    1.5897 H   0  0  0  0  0  0  0  0  0  0  0  0
   -0.7030   -0.7932    0.1623 H   0  0  0  0  0  0  0  0  0  0  0  0
   -0.8652    0.7136    1.0782 H   0  0  0  0  0  0  0  0  0  0  0  0
    0.2692    0.2408   -1.7304 H   0  0  0  0  0  0  0  0  0  0  0  0
    1.1956    2.3203   -0.7803 H   0  0  0  0  0  0  0  0  0  0  0  0
   -0.5252    3.0066   -0.8046 H   0  0  0  0  0  0  0  0  0  0  0  0
   -0.5689    2.5454   -4.3758 H   0  0  0  0  0  0  0  0  0  0  0  0
   -1.4196    3.3197   -3.0090 H   0  0  0  0  0  0  0  0  0  0  0  0
   -2.5919    1.3330   -3.6281 H   0  0  0  0  0  0  0  0  0  0  0  0
   -1.0227    0.3672   -3.6502 H   0  0  0  0  0  0  0  0  0  0  0  0
   -3.3203    2.8705    0.5592 H   0  0  0  0  0  0  0  0  0  0  0  0
   -3.9248    2.7256    2.9467 H   0  0  0  0  0  0  0  0  0  0  0  0
   -4.2598    0.5590    3.9988 H   0  0  0  0  0  0  0  0  0  0  0  0
   -3.9784   -1.4921    2.6118 H   0  0  0  0  0  0  0  0  0  0  0  0
   -3.3879   -3.6610   -2.5181 H   0  0  0  0  0  0  0  0  0  0  0  0
   -2.6234   -4.8182   -0.2751 H   0  0  0  0  0  0  0  0  0  0  0  0
    1.3127   -1.7692   -0.2890 H   0  0  0  0  0  0  0  0  0  0  0  0
    4.4625   -5.2836   -1.1397 H   0  0  0  0  0  0  0  0  0  0  0  0
  1  2  1  0
  2  3  1  0
  3  4  2  0
  4  5  1  0
  5  6  2  0
  6  7  1  0
  7  8  1  0
  8  9  1  0
  9 10  1  0
 10 11  1  0
 11 12  1  0
 12 13  1  0
 13 14  1  0
 14 15  2  0
 14 16  1  0
 16 17  2  0
 17 18  1  0
 18 19  2  0
 19 20  1  0
 20 21  2  0
 21 22  1  0
 22 23  1  0
 23 24  2  0
 24 25  1  0
 25 26  2  0
  6 27  1  0
 27 28  2  0
 28 29  1  0
 29 30  1  0
 30 31  2  0
 31 32  1  0
 32 33  1  0
 28  3  1  0
 33 29  2  0
 13  8  1  0
 21 16  1  0
 26 22  1  0
  1 34  1  0
  1 35  1  0
  1 36  1  0
  4 37  1  0
  5 38  1  0
  7 39  1  0
  7 40  1  0
  8 41  1  6
  9 42  1  0
  9 43  1  0
 11 44  1  0
 11 45  1  0
 12 46  1  0
 12 47  1  0
 17 48  1  0
 18 49  1  0
 19 50  1  0
 20 51  1  0
 24 52  1  0
 25 53  1  0
 27 54  1  0
 31 55  1  0
M  END
$$$$
