@<TRIPOS>MOLECULE
*****
 55 59 0 0 0
SMALL
GASTEIGER

@<TRIPOS>ATOM
      1 C           5.8471    0.7305    2.2481 C.3     1  UNL1        0.0788
      2 O           5.1538   -0.2772    1.5490 O.3     1  UNL1       -0.4944
      3 C           3.7997   -0.1542    1.2240 C.ar    1  UNL1        0.1309
      4 C           3.1158    0.9714    1.5892 C.ar    1  UNL1       -0.0190
      5 C           1.7794    1.1271    1.2856 C.ar    1  UNL1       -0.0550
      6 C           1.1058    0.1380    0.6011 C.ar    1  UNL1       -0.0446
      7 C          -0.3511    0.2641    0.2444 C.3     1  UNL1       -0.0068
      8 C          -0.4361    0.8725   -1.0830 C.3     1  UNL1        0.0537
      9 C           0.1823    2.2616   -1.2151 C.3     1  UNL1        0.0666
     10 O           0.3621    2.4307   -2.6088 O.3     1  UNL1       -0.3764
     11 C          -0.8082    2.4454   -3.3187 C.3     1  UNL1        0.0635
     12 C          -1.6237    1.1503   -3.1672 C.3     1  UNL1        0.0388
     13 N          -1.7045    0.9725   -1.7258 N.am    1  UNL1       -0.2897
     14 C          -2.9662    0.9225   -1.1474 C.2     1  UNL1        0.2491
     15 O          -4.0441    1.0237   -1.8658 O.2     1  UNL1       -0.2699
     16 C          -3.3124    0.7621    0.2541 C.ar    1  UNL1        0.0640
     17 C          -3.4656    1.8931    1.0106 C.ar    1  UNL1       -0.0475
     18 C          -3.8017    1.8450    2.3425 C.ar    1  UNL1       -0.0609
     19 C          -3.9902    0.6179    2.9331 C.ar    1  UNL1       -0.0597
     20 C          -3.8349   -0.5140    2.1677 C.ar    1  UNL1       -0.0338
     21 C          -3.4965   -0.4662    0.8269 C.ar    1  UNL1        0.0982
     22 N          -3.3475   -1.6833    0.0651 N.ar    1  UNL1       -0.1496
     23 N          -3.5604   -1.9050   -1.2170 N.ar    1  UNL1       -0.1556
     24 C          -3.3019   -3.1863   -1.5346 C.ar    1  UNL1        0.0697
     25 C          -2.9041   -3.7803   -0.3578 C.ar    1  UNL1        0.0697
     26 N          -2.9465   -2.8204    0.6009 N.ar    1  UNL1       -0.1556
     27 C           1.8259   -0.9830    0.2486 C.ar    1  UNL1       -0.0442
     28 C           3.1616   -1.1657    0.5387 C.ar    1  UNL1        0.0643
     29 C           3.8908   -2.3641    0.1502 C.ar    1  UNL1        0.2053
     30 N           3.4437   -3.4430   -0.5143 N.ar    1  UNL1       -0.1941
     31 C           4.4829   -4.3179   -0.6533 C.ar    1  UNL1        0.2147
     32 O           5.5203   -3.7748   -0.0871 O.2     1  UNL1       -0.3411
     33 N           5.1880   -2.5984    0.4036 N.ar    1  UNL1       -0.0563
     34 H           5.6110    1.7346    1.8109 H       1  UNL1        0.0660
     35 H           6.9361    0.5443    2.2111 H       1  UNL1        0.0660
     36 H           5.5732    0.7647    3.3219 H       1  UNL1        0.0660
     37 H           3.5964    1.7663    2.1220 H       1  UNL1        0.0654
     38 H           1.2710    2.0249    1.5897 H       1  UNL1        0.0621
     39 H          -0.7030   -0.7932    0.1623 H       1  UNL1        0.0332
     40 H          -0.8652    0.7136    1.0782 H       1  UNL1        0.0332
     41 H           0.2692    0.2408   -1.7304 H       1  UNL1        0.0526
     42 H           1.1956    2.3203   -0.7803 H       1  UNL1        0.0578
     43 H          -0.5252    3.0066   -0.8046 H       1  UNL1        0.0578
     44 H          -0.5689    2.5454   -4.3758 H       1  UNL1        0.0575
     45 H          -1.4196    3.3197   -3.0090 H       1  UNL1        0.0575
     46 H          -2.5919    1.3330   -3.6281 H       1  UNL1        0.0487
     47 H          -1.0227    0.3672   -3.6502 H       1  UNL1        0.0487
     48 H          -3.3203    2.8705    0.5592 H       1  UNL1        0.0626
     49 H          -3.9248    2.7256    2.9467 H       1  UNL1        0.0618
     50 H          -4.2598    0.5590    3.9988 H       1  UNL1        0.0618
     51 H          -3.9784   -1.4921    2.6118 H       1  UNL1        0.0639
     52 H          -3.3879   -3.6610   -2.5181 H       1  UNL1        0.0864
     53 H          -2.6234   -4.8182   -0.2751 H       1  UNL1        0.0864
     54 H           1.3127   -1.7692   -0.2890 H       1  UNL1        0.0628
     55 H           4.4625   -5.2836   -1.1397 H       1  UNL1        0.1283
@<TRIPOS>BOND
     1     1     2    1
     2     2     3    1
     3     3     4   ar
     4     4     5   ar
     5     5     6   ar
     6     6     7    1
     7     7     8    1
     8     8     9    1
     9     9    10    1
    10    10    11    1
    11    11    12    1
    12    12    13    1
    13    13    14   am
    14    14    15    2
    15    14    16    1
    16    16    17   ar
    17    17    18   ar
    18    18    19   ar
    19    19    20   ar
    20    20    21   ar
    21    21    22    1
    22    22    23   ar
    23    23    24   ar
    24    24    25   ar
    25    25    26   ar
    26     6    27   ar
    27    27    28   ar
    28    28    29    1
    29    29    30   ar
    30    30    31   ar
    31    31    32   ar
    32    32    33   ar
    33    28     3   ar
    34    33    29   ar
    35    13     8    1
    36    21    16   ar
    37    26    22   ar
    38     1    34    1
    39     1    35    1
    40     1    36    1
    41     4    37    1
    42     5    38    1
    43     7    39    1
    44     7    40    1
    45     8    41    1
    46     9    42    1
    47     9    43    1
    48    11    44    1
    49    11    45    1
    50    12    46    1
    51    12    47    1
    52    17    48    1
    53    18    49    1
    54    19    50    1
    55    20    51    1
    56    24    52    1
    57    25    53    1
    58    27    54    1
    59    31    55    1
