@<TRIPOS>MOLECULE
*****
 62 66 0 0 0
SMALL
GASTEIGER

@<TRIPOS>ATOM
      1 C          -5.9063    3.4820    0.4335 C.3     1  UNL1       -0.0128
      2 N          -5.0475    2.8094   -0.5583 N.3     1  UNL1       -0.3053
      3 C          -5.6014    1.5209   -0.7759 C.3     1  UNL1       -0.0008
      4 C          -4.8171    0.5245    0.1222 C.3     1  UNL1       -0.0318
      5 C          -3.5518    0.2999   -0.5986 C.3     1  UNL1        0.0060
      6 C          -2.6104   -0.6786   -0.0786 C.ar    1  UNL1        0.0743
      7 N          -1.5342   -1.0690   -0.8379 N.ar    1  UNL1       -0.1685
      8 N          -0.8043   -1.9248   -0.1954 N.ar    1  UNL1       -0.2123
      9 C           0.4098   -2.5750   -0.6286 C.ar    1  UNL1        0.1735
     10 C           0.4564   -3.9244   -0.9120 C.ar    1  UNL1        0.0741
     11 N           1.5695   -4.5628   -1.3203 N.ar    1  UNL1       -0.2322
     12 C           2.6943   -3.8233   -1.4536 C.ar    1  UNL1        0.1575
     13 N           3.9598   -4.1010   -1.8272 N.ar    1  UNL1       -0.3438
     14 C           4.7241   -2.9932   -1.7958 C.ar    1  UNL1        0.0178
     15 C           3.9422   -1.9277   -1.3847 C.ar    1  UNL1        0.0815
     16 C           4.3799   -0.5459   -1.2170 C.2     1  UNL1        0.2481
     17 O           5.0123    0.0485   -2.1483 O.2     1  UNL1       -0.2701
     18 N           4.1291    0.1953   -0.0311 N.am    1  UNL1       -0.3040
     19 C           4.5204    1.5492    0.2116 C.3     1  UNL1        0.0523
     20 C           6.0316    1.7363    0.1098 C.3     1  UNL1       -0.0418
     21 C           4.1772    1.8733    1.6666 C.3     1  UNL1       -0.0418
     22 C           3.8524    2.5820   -0.6280 C.3     1  UNL1        0.0649
     23 O           4.0430    2.4588   -1.9907 O.3     1  UNL1       -0.3929
     24 C           2.6911   -2.4575   -1.1775 C.ar    1  UNL1        0.1218
     25 N           1.5474   -1.8701   -0.7722 N.ar    1  UNL1       -0.2226
     26 C          -1.3700   -2.1293    1.0038 C.ar    1  UNL1        0.0766
     27 C          -1.0458   -2.9264    2.0972 C.ar    1  UNL1       -0.0356
     28 C          -1.8483   -2.9286    3.2266 C.ar    1  UNL1       -0.0597
     29 C          -2.9891   -2.1460    3.3065 C.ar    1  UNL1       -0.0610
     30 C          -3.3089   -1.3591    2.2276 C.ar    1  UNL1       -0.0508
     31 C          -2.5135   -1.3596    1.1145 C.ar    1  UNL1        0.0237
     32 C          -2.8473    1.6502   -0.6849 C.3     1  UNL1       -0.0318
     33 C          -3.6946    2.7714   -0.1512 C.3     1  UNL1       -0.0008
     34 H          -6.4160    4.3582   -0.0196 H       1  UNL1        0.0391
     35 H          -6.6912    2.8138    0.8198 H       1  UNL1        0.0391
     36 H          -5.2563    3.8092    1.2793 H       1  UNL1        0.0391
     37 H          -6.6878    1.4398   -0.5094 H       1  UNL1        0.0427
     38 H          -5.4893    1.2127   -1.8473 H       1  UNL1        0.0427
     39 H          -5.4814   -0.3555    0.1766 H       1  UNL1        0.0284
     40 H          -4.7208    1.0944    1.0712 H       1  UNL1        0.0284
     41 H          -3.8255    0.0730   -1.6835 H       1  UNL1        0.0365
     42 H          -0.4534   -4.4986   -0.7972 H       1  UNL1        0.0868
     43 H           4.2309   -5.0824   -2.0922 H       1  UNL1        0.1668
     44 H           5.7732   -2.9331   -2.0478 H       1  UNL1        0.0816
     45 H           3.5958   -0.3651    0.7070 H       1  UNL1        0.1496
     46 H           6.2698    2.6989    0.6191 H       1  UNL1        0.0251
     47 H           6.4070    1.6791   -0.9169 H       1  UNL1        0.0251
     48 H           6.5516    0.9201    0.6874 H       1  UNL1        0.0251
     49 H           3.5132    1.0760    2.0851 H       1  UNL1        0.0251
     50 H           3.5922    2.8078    1.7322 H       1  UNL1        0.0251
     51 H           5.0739    2.0320    2.2877 H       1  UNL1        0.0251
     52 H           4.3300    3.5671   -0.3469 H       1  UNL1        0.0578
     53 H           2.7703    2.7237   -0.3670 H       1  UNL1        0.0578
     54 H           4.9576    2.8090   -2.2358 H       1  UNL1        0.2095
     55 H          -0.1577   -3.5410    2.0459 H       1  UNL1        0.0639
     56 H          -1.5450   -3.5671    4.0421 H       1  UNL1        0.0618
     57 H          -3.5712   -2.1941    4.2159 H       1  UNL1        0.0618
     58 H          -4.1941   -0.7563    2.2825 H       1  UNL1        0.0625
     59 H          -2.4537    1.8586   -1.6936 H       1  UNL1        0.0284
     60 H          -1.9313    1.6232   -0.0223 H       1  UNL1        0.0284
     61 H          -3.6338    2.7833    0.9593 H       1  UNL1        0.0427
     62 H          -3.2069    3.7140   -0.5220 H       1  UNL1        0.0427
@<TRIPOS>BOND
     1     1     2    1
     2     2     3    1
     3     3     4    1
     4     4     5    1
     5     5     6    1
     6     6     7   ar
     7     7     8   ar
     8     8     9    1
     9     9    10   ar
    10    10    11   ar
    11    11    12   ar
    12    12    13   ar
    13    13    14   ar
    14    14    15   ar
    15    15    16    1
    16    16    17    2
    17    16    18   am
    18    18    19    1
    19    19    20    1
    20    19    21    1
    21    19    22    1
    22    22    23    1
    23    15    24   ar
    24    24    25   ar
    25     8    26   ar
    26    26    27   ar
    27    27    28   ar
    28    28    29   ar
    29    29    30   ar
    30    30    31   ar
    31     5    32    1
    32    32    33    1
    33    33     2    1
    34    31     6   ar
    35    25     9   ar
    36    31    26   ar
    37    24    12   ar
    38     1    34    1
    39     1    35    1
    40     1    36    1
    41     3    37    1
    42     3    38    1
    43     4    39    1
    44     4    40    1
    45     5    41    1
    46    10    42    1
    47    13    43    1
    48    14    44    1
    49    18    45    1
    50    20    46    1
    51    20    47    1
    52    20    48    1
    53    21    49    1
    54    21    50    1
    55    21    51    1
    56    22    52    1
    57    22    53    1
    58    23    54    1
    59    27    55    1
    60    28    56    1
    61    29    57    1
    62    30    58    1
    63    32    59    1
    64    32    60    1
    65    33    61    1
    66    33    62    1
