@<TRIPOS>MOLECULE
*****
 58 61 0 0 0
SMALL
GASTEIGER

@<TRIPOS>ATOM
      1 C          -7.4028    0.7095    0.0339 C.3     1  UNL1        0.0029
      2 N          -6.7831   -0.2619    0.8927 N.am    1  UNL1       -0.3064
      3 C          -7.5968   -1.2562    1.5337 C.3     1  UNL1        0.0029
      4 C          -5.3952   -0.2338    1.1036 C.2     1  UNL1        0.2319
      5 O          -4.8901   -1.1015    1.8740 O.2     1  UNL1       -0.2741
      6 C          -4.4677    0.7275    0.5004 C.3     1  UNL1        0.1054
      7 C          -4.4116    0.6364   -1.0626 C.3     1  UNL1       -0.0220
      8 C          -3.2232    0.3300   -0.1442 C.3     1  UNL1        0.0134
      9 C          -2.0727    1.2648   -0.1235 C.3     1  UNL1        0.0935
     10 C          -1.4326    1.3339    1.2704 C.3     1  UNL1       -0.0351
     11 C          -1.0196    0.7469   -1.0291 C.ar    1  UNL1        0.0158
     12 C           0.2005    0.3140   -0.5524 C.ar    1  UNL1       -0.0463
     13 C           1.1925   -0.1681   -1.3958 C.ar    1  UNL1       -0.0217
     14 C           2.4723   -0.6133   -0.8372 C.2     1  UNL1       -0.0171
     15 C           3.6318   -0.3906   -1.3947 C.2     1  UNL1        0.1507
     16 F           3.6196    0.3052   -2.5751 F       1  UNL1       -0.2032
     17 C           4.9293   -0.7895   -0.8990 C.ar    1  UNL1        0.1172
     18 C           5.0595   -1.4727    0.2860 C.ar    1  UNL1        0.0596
     19 N           6.2903   -1.8409    0.7416 N.ar    1  UNL1       -0.2178
     20 C           7.4074   -1.5656    0.0790 C.ar    1  UNL1        0.2337
     21 O           8.6764   -1.9082    0.4800 O.3     1  UNL1       -0.4663
     22 C           8.9705   -2.5852    1.6456 C.3     1  UNL1        0.1858
     23 C           8.5973   -1.8992    2.9278 C.3     1  UNL1        0.4236
     24 F           7.2752   -1.6397    3.0655 F       1  UNL1       -0.1671
     25 F           8.9766   -2.6771    4.0293 F       1  UNL1       -0.1671
     26 F           9.2959   -0.6984    3.0478 F       1  UNL1       -0.1671
     27 C           7.2765   -0.8672   -1.1335 C.ar    1  UNL1        0.0898
     28 N           6.0728   -0.5233   -1.5500 N.ar    1  UNL1       -0.2459
     29 C           0.9609   -0.2201   -2.7513 C.ar    1  UNL1       -0.0518
     30 C          -0.2571    0.2088   -3.2590 C.ar    1  UNL1       -0.0255
     31 C          -1.2382    0.6909   -2.3782 C.ar    1  UNL1        0.1289
     32 F          -2.3824    1.0904   -2.9286 F       1  UNL1       -0.2051
     33 N          -2.3569    2.6296   -0.5111 N.2     1  UNL1       -0.2521
     34 C          -3.3345    3.2873   -0.0206 C.2     1  UNL1        0.1485
     35 N          -3.6029    4.6028   -0.3960 N.pl3   1  UNL1       -0.3380
     36 S          -4.3543    2.4251    1.1583 S.3     1  UNL1       -0.0746
     37 H          -8.4889    0.4994   -0.0737 H       1  UNL1        0.0428
     38 H          -6.9918    0.6954   -0.9933 H       1  UNL1        0.0428
     39 H          -7.2503    1.7509    0.3983 H       1  UNL1        0.0428
     40 H          -8.4589   -0.8228    2.0959 H       1  UNL1        0.0428
     41 H          -7.0065   -1.9377    2.1715 H       1  UNL1        0.0428
     42 H          -8.0736   -1.8536    0.7057 H       1  UNL1        0.0428
     43 H          -4.5270    1.6151   -1.5241 H       1  UNL1        0.0287
     44 H          -4.8791   -0.2608   -1.5225 H       1  UNL1        0.0287
     45 H          -2.8924   -0.7512   -0.1367 H       1  UNL1        0.0346
     46 H          -0.5124    1.9487    1.2434 H       1  UNL1        0.0256
     47 H          -1.2037    0.3346    1.6539 H       1  UNL1        0.0256
     48 H          -2.0909    1.8130    2.0146 H       1  UNL1        0.0256
     49 H           0.4504    0.3264    0.4984 H       1  UNL1        0.0628
     50 H           2.4526   -1.1604    0.0945 H       1  UNL1        0.0653
     51 H           4.1982   -1.7345    0.8847 H       1  UNL1        0.0853
     52 H          10.0767   -2.7890    1.7206 H       1  UNL1        0.0788
     53 H           8.4375   -3.5852    1.5955 H       1  UNL1        0.0788
     54 H           8.2002   -0.6417   -1.6778 H       1  UNL1        0.0884
     55 H           1.7347   -0.6038   -3.4367 H       1  UNL1        0.0624
     56 H          -0.4234    0.1615   -4.3262 H       1  UNL1        0.0646
     57 H          -4.3425    4.8813   -1.1084 H       1  UNL1        0.1442
     58 H          -3.0929    5.4489   -0.0050 H       1  UNL1        0.1442
@<TRIPOS>BOND
     1     1     2    1
     2     2     3    1
     3     2     4   am
     4     4     5    2
     5     6     4    1
     6     6     7    1
     7     7     8    1
     8     8     9    1
     9     9    10    1
    10     9    11    1
    11    11    12   ar
    12    12    13   ar
    13    13    14    1
    14    14    15    2
    15    15    16    1
    16    15    17    1
    17    17    18   ar
    18    18    19   ar
    19    19    20   ar
    20    20    21    1
    21    21    22    1
    22    22    23    1
    23    23    24    1
    24    23    25    1
    25    23    26    1
    26    20    27   ar
    27    27    28   ar
    28    13    29   ar
    29    29    30   ar
    30    30    31   ar
    31    31    32    1
    32     9    33    1
    33    33    34    2
    34    34    35    1
    35    34    36    1
    36     8     6    1
    37    31    11   ar
    38    36     6    1
    39    28    17   ar
    40     1    37    1
    41     1    38    1
    42     1    39    1
    43     3    40    1
    44     3    41    1
    45     3    42    1
    46     7    43    1
    47     7    44    1
    48     8    45    1
    49    10    46    1
    50    10    47    1
    51    10    48    1
    52    12    49    1
    53    14    50    1
    54    18    51    1
    55    22    52    1
    56    22    53    1
    57    27    54    1
    58    29    55    1
    59    30    56    1
    60    35    57    1
    61    35    58    1
