@<TRIPOS>MOLECULE
*****
 45 46 0 0 0
SMALL
GASTEIGER

@<TRIPOS>ATOM
      1 C          -2.4829    2.2329    0.4308 C.3     1  UNL1       -0.0626
      2 C          -2.6248    0.7584    0.7111 C.3     1  UNL1       -0.0453
      3 C          -4.1637    0.5309    0.6108 C.3     1  UNL1       -0.0626
      4 C          -1.9138   -0.1515   -0.2090 C.3     1  UNL1       -0.0342
      5 C          -0.4791   -0.1164   -0.3931 C.3     1  UNL1        0.0197
      6 N           0.0265   -1.0997   -1.3645 N.3     1  UNL1       -0.3046
      7 C          -0.4739   -0.7724   -2.6948 C.3     1  UNL1       -0.0127
      8 C          -0.3260   -2.4583   -1.0502 C.3     1  UNL1       -0.0127
      9 C           0.5003   -0.0649    0.6943 C.3     1  UNL1        0.0113
     10 C           0.4313   -1.2105    1.6864 C.3     1  UNL1       -0.0419
     11 C           0.9658   -0.2308    2.7199 C.3     1  UNL1       -0.0514
     12 C           0.5140    0.9090    1.7914 C.3     1  UNL1       -0.0419
     13 C           1.9038   -0.0077    0.0511 C.ar    1  UNL1       -0.0396
     14 C           2.7686   -1.0364   -0.2446 C.ar    1  UNL1       -0.0566
     15 C           3.9756   -0.7359   -0.8322 C.ar    1  UNL1       -0.0431
     16 C           4.3682    0.5429   -1.1423 C.ar    1  UNL1        0.0410
     17 CL          5.9474    0.6921   -1.8865 Cl      1  UNL1       -0.0835
     18 C           3.5081    1.5793   -0.8496 C.ar    1  UNL1       -0.0431
     19 C           2.2869    1.3015   -0.2577 C.ar    1  UNL1       -0.0566
     20 H          -2.8515    2.7627    1.3352 H       1  UNL1        0.0232
     21 H          -3.1527    2.5774   -0.3827 H       1  UNL1        0.0232
     22 H          -1.4341    2.5408    0.2896 H       1  UNL1        0.0232
     23 H          -2.4414    0.5935    1.7864 H       1  UNL1        0.0296
     24 H          -4.6324    1.3369    1.2165 H       1  UNL1        0.0232
     25 H          -4.4963    0.6694   -0.4246 H       1  UNL1        0.0232
     26 H          -4.3428   -0.4494    1.0502 H       1  UNL1        0.0232
     27 H          -2.3254   -1.1885    0.0435 H       1  UNL1        0.0283
     28 H          -2.4020    0.0211   -1.2305 H       1  UNL1        0.0283
     29 H          -0.2866    0.8608   -0.9940 H       1  UNL1        0.0471
     30 H           0.4028   -0.6412   -3.3840 H       1  UNL1        0.0391
     31 H          -1.0104    0.1880   -2.7139 H       1  UNL1        0.0391
     32 H          -1.0528   -1.6239   -3.1061 H       1  UNL1        0.0391
     33 H          -0.7583   -2.5811   -0.0679 H       1  UNL1        0.0391
     34 H          -0.9783   -2.8798   -1.8713 H       1  UNL1        0.0391
     35 H           0.5949   -3.0713   -1.1128 H       1  UNL1        0.0391
     36 H          -0.5988   -1.4794    2.0036 H       1  UNL1        0.0274
     37 H           1.0033   -2.1037    1.4874 H       1  UNL1        0.0274
     38 H           2.0345   -0.2922    2.9121 H       1  UNL1        0.0266
     39 H           0.3869   -0.1559    3.6612 H       1  UNL1        0.0266
     40 H          -0.3522    1.4484    2.1318 H       1  UNL1        0.0274
     41 H           1.3831    1.6496    1.8074 H       1  UNL1        0.0274
     42 H           2.3827   -2.0038    0.0324 H       1  UNL1        0.0621
     43 H           4.5840   -1.6242   -1.0238 H       1  UNL1        0.0632
     44 H           3.8771    2.5535   -1.1181 H       1  UNL1        0.0632
     45 H           1.7343    2.2300   -0.0989 H       1  UNL1        0.0621
@<TRIPOS>BOND
     1     1     2    1
     2     2     3    1
     3     2     4    1
     4     4     5    1
     5     5     6    1
     6     6     7    1
     7     6     8    1
     8     5     9    1
     9     9    10    1
    10    10    11    1
    11    11    12    1
    12     9    13    1
    13    13    14   ar
    14    14    15   ar
    15    15    16   ar
    16    16    17    1
    17    16    18   ar
    18    18    19   ar
    19    12     9    1
    20    19    13   ar
    21     1    20    1
    22     1    21    1
    23     1    22    1
    24     2    23    1
    25     3    24    1
    26     3    25    1
    27     3    26    1
    28     4    27    1
    29     4    28    1
    30     5    29    1
    31     7    30    1
    32     7    31    1
    33     7    32    1
    34     8    33    1
    35     8    34    1
    36     8    35    1
    37    10    36    1
    38    10    37    1
    39    11    38    1
    40    11    39    1
    41    12    40    1
    42    12    41    1
    43    14    42    1
    44    15    43    1
    45    18    44    1
    46    19    45    1
