@<TRIPOS>MOLECULE
*****
 55 59 0 0 0
SMALL
GASTEIGER

@<TRIPOS>ATOM
      1 C          -3.8588   -2.8599   -2.5366 C.3     1  UNL1       -0.0374
      2 C          -3.3977   -1.9781   -1.4210 C.ar    1  UNL1       -0.0164
      3 C          -2.0925   -1.5466   -1.3224 C.ar    1  UNL1       -0.0161
      4 C          -1.6714   -0.7332   -0.2914 C.ar    1  UNL1        0.1313
      5 N          -0.3173   -0.3035   -0.2157 N.am    1  UNL1       -0.2388
      6 C           0.7183   -1.0046    0.4658 C.2     1  UNL1        0.2553
      7 O           0.5638   -2.0990    1.0900 O.2     1  UNL1       -0.2695
      8 C           1.9636   -0.2895    0.3420 C.ar    1  UNL1        0.0722
      9 C           3.2957   -0.3309    0.6978 C.ar    1  UNL1        0.0668
     10 C           3.9893   -1.3443    1.4835 C.2     1  UNL1        0.2483
     11 O           4.0465   -1.2054    2.7234 O.2     1  UNL1       -0.2699
     12 N           4.5813   -2.4566    0.8481 N.am    1  UNL1       -0.3036
     13 C           4.5005   -2.5921   -0.5830 C.3     1  UNL1        0.0031
     14 C           5.2619   -3.4509    1.6197 C.3     1  UNL1        0.0031
     15 C           3.8390    0.8244    0.1332 C.ar    1  UNL1        0.0175
     16 N           2.8627    1.4866   -0.5101 N.ar    1  UNL1       -0.3503
     17 C           3.1098    2.7433   -1.2096 C.3     1  UNL1        0.0117
     18 C           1.6887    0.8345   -0.4068 C.ar    1  UNL1        0.0570
     19 C           0.2682    0.8862   -0.7908 C.3     1  UNL1        0.0986
     20 C          -0.4035    2.1256   -0.3821 C.ar    1  UNL1       -0.0207
     21 C          -0.6994    3.0941   -1.3173 C.ar    1  UNL1       -0.0550
     22 C          -1.3294    4.2761   -0.9857 C.ar    1  UNL1       -0.0431
     23 C          -1.6735    4.4989    0.3110 C.ar    1  UNL1        0.0410
     24 CL         -2.4787    6.0257    0.6920 Cl      1  UNL1       -0.0835
     25 C          -1.3992    3.5674    1.2671 C.ar    1  UNL1       -0.0431
     26 C          -0.7611    2.3724    0.9257 C.ar    1  UNL1       -0.0550
     27 N          -2.5949   -0.3715    0.6272 N.ar    1  UNL1       -0.2108
     28 C          -3.8766   -0.7733    0.5629 C.ar    1  UNL1        0.1803
     29 C          -4.3050   -1.5953   -0.4777 C.ar    1  UNL1        0.1345
     30 N          -5.6258   -1.8294   -0.2773 N.ar    1  UNL1       -0.1276
     31 N          -6.0283   -1.2069    0.8119 N.ar    1  UNL1       -0.0635
     32 N          -4.9776   -0.5797    1.3061 N.ar    1  UNL1       -0.2297
     33 C          -5.0263    0.2196    2.5107 C.3     1  UNL1        0.0341
     34 H          -3.2362   -2.6359   -3.4408 H       1  UNL1        0.0278
     35 H          -4.8927   -2.5336   -2.7876 H       1  UNL1        0.0278
     36 H          -3.8035   -3.9262   -2.2640 H       1  UNL1        0.0278
     37 H          -1.3847   -1.8636   -2.0854 H       1  UNL1        0.0655
     38 H           5.4249   -3.0338   -1.0258 H       1  UNL1        0.0428
     39 H           3.6422   -3.2475   -0.8924 H       1  UNL1        0.0428
     40 H           4.3440   -1.6244   -1.1020 H       1  UNL1        0.0428
     41 H           5.3679   -3.2022    2.6811 H       1  UNL1        0.0428
     42 H           6.2928   -3.6692    1.2382 H       1  UNL1        0.0428
     43 H           4.6738   -4.3971    1.5647 H       1  UNL1        0.0428
     44 H           4.8900    1.0785    0.2403 H       1  UNL1        0.0817
     45 H           3.9951    2.6763   -1.8757 H       1  UNL1        0.0456
     46 H           2.2418    2.9969   -1.8543 H       1  UNL1        0.0456
     47 H           3.2963    3.5809   -0.5092 H       1  UNL1        0.0456
     48 H           0.2225    0.7575   -1.8949 H       1  UNL1        0.0620
     49 H          -0.4261    2.9111   -2.3312 H       1  UNL1        0.0621
     50 H          -1.5322    4.9881   -1.7539 H       1  UNL1        0.0632
     51 H          -1.6778    3.7563    2.2944 H       1  UNL1        0.0632
     52 H          -0.5584    1.6532    1.7130 H       1  UNL1        0.0621
     53 H          -4.0109    0.2493    2.9859 H       1  UNL1        0.0474
     54 H          -5.2657    1.2633    2.1886 H       1  UNL1        0.0474
     55 H          -5.7757   -0.1818    3.2205 H       1  UNL1        0.0474
@<TRIPOS>BOND
     1     1     2    1
     2     2     3   ar
     3     3     4   ar
     4     4     5    1
     5     5     6   am
     6     6     7    2
     7     6     8    1
     8     8     9   ar
     9     9    10    1
    10    10    11    2
    11    10    12   am
    12    12    13    1
    13    12    14    1
    14     9    15   ar
    15    15    16   ar
    16    16    17    1
    17    16    18   ar
    18    18    19    1
    19    19    20    1
    20    20    21   ar
    21    21    22   ar
    22    22    23   ar
    23    23    24    1
    24    23    25   ar
    25    25    26   ar
    26     4    27   ar
    27    27    28   ar
    28    28    29   ar
    29    29    30   ar
    30    30    31   ar
    31    31    32   ar
    32    32    33    1
    33    29     2   ar
    34    19     5    1
    35    26    20   ar
    36    32    28   ar
    37    18     8   ar
    38     1    34    1
    39     1    35    1
    40     1    36    1
    41     3    37    1
    42    13    38    1
    43    13    39    1
    44    13    40    1
    45    14    41    1
    46    14    42    1
    47    14    43    1
    48    15    44    1
    49    17    45    1
    50    17    46    1
    51    17    47    1
    52    19    48    1
    53    21    49    1
    54    22    50    1
    55    25    51    1
    56    26    52    1
    57    33    53    1
    58    33    54    1
    59    33    55    1
