@<TRIPOS>MOLECULE
*****
 35 36 0 0 0
SMALL
GASTEIGER

@<TRIPOS>ATOM
      1 C           1.2057    0.1370    0.4580 C.3     1  UNL1        0.1134
      2 C           2.5277    0.5524   -0.0899 C.3     1  UNL1        0.0878
      3 O           3.4587   -0.3638    0.3993 O.3     1  UNL1       -0.2841
      4 P           5.0132   -0.0760   -0.0989 P.3     1  UNL1        0.4724
      5 O           5.6939    1.0474    0.9806 O.3     1  UNL1       -0.3026
      6 O           5.1489    0.4083   -1.6939 O.3     1  UNL1       -0.3026
      7 O           5.8008   -1.3678    0.1424 O.2     1  UNL1       -0.2275
      8 O           0.1392    0.9361    0.0799 O.3     1  UNL1       -0.3455
      9 C          -0.9275    0.2762    0.7045 C.3     1  UNL1        0.1712
     10 N          -2.1849    0.4380    0.0425 N.ar    1  UNL1       -0.2336
     11 C          -3.2214   -0.1088    0.7088 C.ar    1  UNL1        0.2039
     12 O          -3.1496   -0.7815    1.9289 O.3     1  UNL1       -0.4932
     13 C          -4.5097   -0.0322    0.1896 C.ar    1  UNL1        0.0597
     14 C          -4.6411    0.6281   -1.0260 C.ar    1  UNL1        0.2219
     15 O          -5.8973    0.7420   -1.6024 O.3     1  UNL1       -0.4922
     16 N          -3.5593    1.1459   -1.6273 N.ar    1  UNL1       -0.1575
     17 C          -2.3216    1.0662   -1.1176 C.ar    1  UNL1        0.3562
     18 O          -1.3068    1.5533   -1.6840 O.2     1  UNL1       -0.2442
     19 C          -0.5940   -1.2072    0.6942 C.3     1  UNL1        0.1287
     20 O          -0.2185   -1.5676    1.9827 O.3     1  UNL1       -0.3847
     21 C           0.7111   -1.1777   -0.1112 C.3     1  UNL1        0.1136
     22 O           1.5482   -2.2364    0.1924 O.3     1  UNL1       -0.3864
     23 H           1.2304    0.1086    1.5607 H       1  UNL1        0.0647
     24 H           2.4856    0.5424   -1.2063 H       1  UNL1        0.0592
     25 H           2.7539    1.5985    0.1969 H       1  UNL1        0.0592
     26 H           5.2807    1.9234    0.7657 H       1  UNL1        0.2220
     27 H           4.4401    1.0565   -1.8799 H       1  UNL1        0.2220
     28 H          -1.0221    0.6598    1.7521 H       1  UNL1        0.0868
     29 H          -2.7658   -0.3061    2.7313 H       1  UNL1        0.2937
     30 H          -5.4127   -0.4305    0.6310 H       1  UNL1        0.0724
     31 H          -6.6834    0.9199   -0.9832 H       1  UNL1        0.2937
     32 H          -1.3473   -1.8364    0.2387 H       1  UNL1        0.0665
     33 H          -0.2877   -0.8135    2.6203 H       1  UNL1        0.2101
     34 H           0.4994   -1.0628   -1.1865 H       1  UNL1        0.0647
     35 H           2.1132   -2.3721   -0.6297 H       1  UNL1        0.2100
@<TRIPOS>BOND
     1     1     2    1
     2     2     3    1
     3     3     4    1
     4     4     5    1
     5     4     6    1
     6     4     7    2
     7     1     8    1
     8     8     9    1
     9     9    10    1
    10    10    11   ar
    11    11    12    1
    12    11    13   ar
    13    13    14   ar
    14    14    15    1
    15    14    16   ar
    16    16    17   ar
    17    17    18    2
    18     9    19    1
    19    19    20    1
    20    19    21    1
    21    21    22    1
    22    21     1    1
    23    17    10   ar
    24     1    23    1
    25     2    24    1
    26     2    25    1
    27     5    26    1
    28     6    27    1
    29     9    28    1
    30    12    29    1
    31    13    30    1
    32    15    31    1
    33    19    32    1
    34    20    33    1
    35    21    34    1
    36    22    35    1
