@<TRIPOS>MOLECULE
*****
 15 15 0 0 0
SMALL
GASTEIGER

@<TRIPOS>ATOM
      1 N          -2.7529    0.1544   -0.2218 N.am    1  UNL1       -0.3253
      2 C          -1.5339   -0.5754   -0.1865 C.2     1  UNL1        0.2430
      3 O          -1.7633   -1.8110   -0.3053 O.2     1  UNL1       -0.2704
      4 C          -0.1705   -0.0859   -0.0403 C.ar    1  UNL1        0.0545
      5 C           0.7945   -1.0478   -0.0437 C.ar    1  UNL1       -0.0467
      6 C           2.1195   -0.6311    0.0936 C.ar    1  UNL1       -0.0429
      7 C           2.3671    0.7399    0.2248 C.ar    1  UNL1        0.0276
      8 N           1.3458    1.6428    0.2190 N.ar    1  UNL1       -0.2625
      9 C           0.0582    1.2636    0.0877 C.ar    1  UNL1        0.0396
     10 H          -3.3111    0.7767   -0.8568 H       1  UNL1        0.1453
     11 H          -3.2844    0.0502    0.6703 H       1  UNL1        0.1453
     12 H           0.5989   -2.1105   -0.1457 H       1  UNL1        0.0626
     13 H           2.9091   -1.3708    0.0947 H       1  UNL1        0.0633
     14 H           3.3980    1.0568    0.3310 H       1  UNL1        0.0829
     15 H          -0.7748    1.9480    0.0787 H       1  UNL1        0.0837
@<TRIPOS>BOND
     1     1     2   am
     2     2     3    2
     3     2     4    1
     4     4     5   ar
     5     5     6   ar
     6     6     7   ar
     7     7     8   ar
     8     8     9   ar
     9     9     4   ar
    10     1    10    1
    11     1    11    1
    12     5    12    1
    13     6    13    1
    14     7    14    1
    15     9    15    1
