
     RDKit          3D

 54 59  0  0  0  0  0  0  0  0999 V2000
   -2.8328   -3.1147    0.9010 C   0  0  0  0  0  0  0  0  0  0  0  0
   -2.8424   -1.6309    0.7989 C   0  0  0  0  0  0  0  0  0  0  0  0
   -3.8505   -0.7739    0.7743 N   0  0  0  0  0  0  0  0  0  0  0  0
   -3.4309    0.4714    0.6739 N   0  0  0  0  0  0  0  0  0  0  0  0
   -4.2318    1.6685    0.6188 C   0  0  0  0  0  0  0  0  0  0  0  0
   -4.3782    2.5874    1.6464 C   0  0  0  0  0  0  0  0  0  0  0  0
   -5.2210    3.5565    1.1576 C   0  0  0  0  0  0  0  0  0  0  0  0
   -5.5607    3.2196   -0.1179 N   0  0  0  0  0  0  0  0  0  0  0  0
   -4.9552    2.0842   -0.4179 N   0  0  0  0  0  0  0  0  0  0  0  0
   -5.0591    1.3927   -1.6805 C   0  0  0  0  0  0  0  0  0  0  0  0
   -2.0720    0.4451    0.6291 C   0  0  0  0  0  0  0  0  0  0  0  0
   -1.6718   -0.8528    0.7050 C   0  0  0  0  0  0  0  0  0  0  0  0
   -0.2171   -0.9064    0.6587 C   0  0  0  0  0  0  0  0  0  0  0  0
    0.3101   -1.7805   -0.4112 C   0  0  0  0  0  0  0  0  0  0  0  0
    0.3376   -1.4146   -1.7243 C   0  0  0  0  0  0  0  0  0  0  0  0
    0.8439   -2.2835   -2.6674 C   0  0  0  0  0  0  0  0  0  0  0  0
    1.3369   -3.5358   -2.3451 C   0  0  0  0  0  0  0  0  0  0  0  0
    1.9768   -4.6298   -3.5500 Cl  0  0  0  0  0  0  0  0  0  0  0  0
    1.3105   -3.9117   -1.0091 C   0  0  0  0  0  0  0  0  0  0  0  0
    0.8011   -3.0291   -0.0859 C   0  0  0  0  0  0  0  0  0  0  0  0
    0.2355    0.4519    0.5494 N   0  0  0  0  0  0  0  0  0  0  0  0
    1.5930    0.9000    0.4720 C   0  0  0  0  0  0  0  0  0  0  0  0
    1.9502    2.2033    0.3699 C   0  0  0  0  0  0  0  0  0  0  0  0
    3.2954    2.5331    0.3010 C   0  0  0  0  0  0  0  0  0  0  0  0
    3.6719    3.9577    0.1898 C   0  0  0  0  0  0  0  0  0  0  0  0
    4.2653    1.5579    0.3350 C   0  0  0  0  0  0  0  0  0  0  0  0
    5.6081    1.6261    0.2842 N   0  0  0  0  0  0  0  0  0  0  0  0
    6.0310    0.3735    0.3561 N   0  0  0  0  0  0  0  0  0  0  0  0
    4.9840   -0.4564    0.4492 C   0  0  0  0  0  0  0  0  0  0  0  0
    5.0572   -1.9452    0.5494 C   0  0  0  0  0  0  0  0  0  0  0  0
    3.8533    0.2809    0.4372 N   0  0  0  0  0  0  0  0  0  0  0  0
    2.5738   -0.0490    0.5038 N   0  0  0  0  0  0  0  0  0  0  0  0
   -0.8806    1.3059    0.5288 C   0  0  0  0  0  0  0  0  0  0  0  0
   -0.9650    2.5661    0.4447 O   0  0  0  0  0  0  0  0  0  0  0  0
   -3.9124   -3.4411    0.8456 H   0  0  0  0  0  0  0  0  0  0  0  0
   -2.4293   -3.4756    1.8532 H   0  0  0  0  0  0  0  0  0  0  0  0
   -2.3485   -3.5760    0.0119 H   0  0  0  0  0  0  0  0  0  0  0  0
   -3.9026    2.5053    2.6114 H   0  0  0  0  0  0  0  0  0  0  0  0
   -5.5350    4.4217    1.7228 H   0  0  0  0  0  0  0  0  0  0  0  0
   -5.5971    1.9510   -2.4489 H   0  0  0  0  0  0  0  0  0  0  0  0
   -4.0065    1.2635   -2.0568 H   0  0  0  0  0  0  0  0  0  0  0  0
   -5.5366    0.3953   -1.5841 H   0  0  0  0  0  0  0  0  0  0  0  0
    0.1719   -1.2789    1.6359 H   0  0  0  0  0  0  0  0  0  0  0  0
   -0.0405   -0.4426   -2.0071 H   0  0  0  0  0  0  0  0  0  0  0  0
    0.8826   -2.0254   -3.7313 H   0  0  0  0  0  0  0  0  0  0  0  0
    1.6943   -4.8881   -0.7536 H   0  0  0  0  0  0  0  0  0  0  0  0
    0.7859   -3.3374    0.9641 H   0  0  0  0  0  0  0  0  0  0  0  0
    1.2448    2.9945    0.3395 H   0  0  0  0  0  0  0  0  0  0  0  0
    3.9789    4.1967   -0.8359 H   0  0  0  0  0  0  0  0  0  0  0  0
    4.5519    4.1364    0.8570 H   0  0  0  0  0  0  0  0  0  0  0  0
    2.8761    4.6315    0.5579 H   0  0  0  0  0  0  0  0  0  0  0  0
    6.0901   -2.2505    0.8063 H   0  0  0  0  0  0  0  0  0  0  0  0
    4.7878   -2.3537   -0.4494 H   0  0  0  0  0  0  0  0  0  0  0  0
    4.3781   -2.2937    1.3369 H   0  0  0  0  0  0  0  0  0  0  0  0
  1  2  1  0
  2  3  2  0
  3  4  1  0
  4  5  1  0
  5  6  2  0
  6  7  1  0
  7  8  2  0
  8  9  1  0
  9 10  1  0
  4 11  1  0
 11 12  2  0
 12 13  1  0
 13 14  1  0
 14 15  2  0
 15 16  1  0
 16 17  2  0
 17 18  1  0
 17 19  1  0
 19 20  2  0
 13 21  1  0
 21 22  1  0
 22 23  1  0
 23 24  2  0
 24 25  1  0
 24 26  1  0
 26 27  2  0
 27 28  1  0
 28 29  2  0
 29 30  1  0
 29 31  1  0
 31 32  1  0
 21 33  1  0
 33 34  2  0
 12  2  1  0
 20 14  1  0
 32 22  2  0
  9  5  1  0
 33 11  1  0
 31 26  1  0
  1 35  1  0
  1 36  1  0
  1 37  1  0
  6 38  1  0
  7 39  1  0
 10 40  1  0
 10 41  1  0
 10 42  1  0
 13 43  1  0
 15 44  1  0
 16 45  1  0
 19 46  1  0
 20 47  1  0
 23 48  1  0
 25 49  1  0
 25 50  1  0
 25 51  1  0
 30 52  1  0
 30 53  1  0
 30 54  1  0
M  END
$$$$
