@<TRIPOS>MOLECULE
*****
 54 59 0 0 0
SMALL
GASTEIGER

@<TRIPOS>ATOM
      1 C          -2.8328   -3.1147    0.9010 C.3     1  UNL1       -0.0202
      2 C          -2.8424   -1.6309    0.7989 C.ar    1  UNL1        0.0664
      3 N          -3.8505   -0.7739    0.7743 N.ar    1  UNL1       -0.1692
      4 N          -3.4309    0.4714    0.6739 N.ar    1  UNL1       -0.2093
      5 C          -4.2318    1.6685    0.6188 C.ar    1  UNL1        0.1530
      6 C          -4.3782    2.5874    1.6464 C.ar    1  UNL1        0.0020
      7 C          -5.2210    3.5565    1.1576 C.ar    1  UNL1        0.0515
      8 N          -5.5607    3.2196   -0.1179 N.ar    1  UNL1       -0.1780
      9 N          -4.9552    2.0842   -0.4179 N.ar    1  UNL1       -0.2500
     10 C          -5.0591    1.3927   -1.6805 C.3     1  UNL1        0.0324
     11 C          -2.0720    0.4451    0.6291 C.ar    1  UNL1        0.1368
     12 C          -1.6718   -0.8528    0.7050 C.ar    1  UNL1        0.0310
     13 C          -0.2171   -0.9064    0.6587 C.3     1  UNL1        0.0868
     14 C           0.3101   -1.7805   -0.4112 C.ar    1  UNL1       -0.0220
     15 C           0.3376   -1.4146   -1.7243 C.ar    1  UNL1       -0.0551
     16 C           0.8439   -2.2835   -2.6674 C.ar    1  UNL1       -0.0431
     17 C           1.3369   -3.5358   -2.3451 C.ar    1  UNL1        0.0410
     18 CL          1.9768   -4.6298   -3.5500 Cl      1  UNL1       -0.0835
     19 C           1.3105   -3.9117   -1.0091 C.ar    1  UNL1       -0.0431
     20 C           0.8011   -3.0291   -0.0859 C.ar    1  UNL1       -0.0551
     21 N           0.2355    0.4519    0.5494 N.am    1  UNL1       -0.2376
     22 C           1.5930    0.9000    0.4720 C.ar    1  UNL1        0.1499
     23 C           1.9502    2.2033    0.3699 C.ar    1  UNL1       -0.0131
     24 C           3.2954    2.5331    0.3010 C.ar    1  UNL1       -0.0012
     25 C           3.6719    3.9577    0.1898 C.3     1  UNL1       -0.0360
     26 C           4.2653    1.5579    0.3350 C.ar    1  UNL1        0.1809
     27 N           5.6081    1.6261    0.2842 N.ar    1  UNL1       -0.1277
     28 N           6.0310    0.3735    0.3561 N.ar    1  UNL1       -0.1325
     29 C           4.9840   -0.4564    0.4492 C.ar    1  UNL1        0.1521
     30 C           5.0572   -1.9452    0.5494 C.3     1  UNL1       -0.0027
     31 N           3.8533    0.2809    0.4372 N.ar    1  UNL1       -0.1953
     32 N           2.5738   -0.0490    0.5038 N.ar    1  UNL1       -0.1478
     33 C          -0.8806    1.3059    0.5288 C.2     1  UNL1        0.2716
     34 O          -0.9650    2.5661    0.4447 O.2     1  UNL1       -0.2679
     35 H          -3.9124   -3.4411    0.8456 H       1  UNL1        0.0293
     36 H          -2.4293   -3.4756    1.8532 H       1  UNL1        0.0293
     37 H          -2.3485   -3.5760    0.0119 H       1  UNL1        0.0293
     38 H          -3.9026    2.5053    2.6114 H       1  UNL1        0.0670
     39 H          -5.5350    4.4217    1.7228 H       1  UNL1        0.0848
     40 H          -5.5971    1.9510   -2.4489 H       1  UNL1        0.0473
     41 H          -4.0065    1.2635   -2.0568 H       1  UNL1        0.0473
     42 H          -5.5366    0.3953   -1.5841 H       1  UNL1        0.0473
     43 H           0.1719   -1.2789    1.6359 H       1  UNL1        0.0606
     44 H          -0.0405   -0.4426   -2.0071 H       1  UNL1        0.0621
     45 H           0.8826   -2.0254   -3.7313 H       1  UNL1        0.0632
     46 H           1.6943   -4.8881   -0.7536 H       1  UNL1        0.0632
     47 H           0.7859   -3.3374    0.9641 H       1  UNL1        0.0621
     48 H           1.2448    2.9945    0.3395 H       1  UNL1        0.0656
     49 H           3.9789    4.1967   -0.8359 H       1  UNL1        0.0279
     50 H           4.5519    4.1364    0.8570 H       1  UNL1        0.0279
     51 H           2.8761    4.6315    0.5579 H       1  UNL1        0.0279
     52 H           6.0901   -2.2505    0.8063 H       1  UNL1        0.0309
     53 H           4.7878   -2.3537   -0.4494 H       1  UNL1        0.0309
     54 H           4.3781   -2.2937    1.3369 H       1  UNL1        0.0309
@<TRIPOS>BOND
     1     1     2    1
     2     2     3   ar
     3     3     4   ar
     4     4     5    1
     5     5     6   ar
     6     6     7   ar
     7     7     8   ar
     8     8     9   ar
     9     9    10    1
    10     4    11   ar
    11    11    12   ar
    12    12    13    1
    13    13    14    1
    14    14    15   ar
    15    15    16   ar
    16    16    17   ar
    17    17    18    1
    18    17    19   ar
    19    19    20   ar
    20    13    21    1
    21    21    22    1
    22    22    23   ar
    23    23    24   ar
    24    24    25    1
    25    24    26   ar
    26    26    27   ar
    27    27    28   ar
    28    28    29   ar
    29    29    30    1
    30    29    31   ar
    31    31    32   ar
    32    21    33   am
    33    33    34    2
    34    12     2   ar
    35    20    14   ar
    36    32    22   ar
    37     9     5   ar
    38    33    11    1
    39    31    26   ar
    40     1    35    1
    41     1    36    1
    42     1    37    1
    43     6    38    1
    44     7    39    1
    45    10    40    1
    46    10    41    1
    47    10    42    1
    48    13    43    1
    49    15    44    1
    50    16    45    1
    51    19    46    1
    52    20    47    1
    53    23    48    1
    54    25    49    1
    55    25    50    1
    56    25    51    1
    57    30    52    1
    58    30    53    1
    59    30    54    1
