@<TRIPOS>MOLECULE
*****
 38 41 0 0 0
SMALL
GASTEIGER

@<TRIPOS>ATOM
      1 C          -2.2727   -1.1516   -0.6297 C.3     1  UNL1        0.0560
      2 N          -2.1732   -2.5056   -0.1722 N.3     1  UNL1       -0.3200
      3 C          -3.3974   -0.3842   -0.0626 C.ar    1  UNL1       -0.0263
      4 C          -4.2027    0.4153   -0.8822 C.ar    1  UNL1       -0.0568
      5 C          -5.2800    1.1803   -0.4860 C.ar    1  UNL1       -0.0614
      6 C          -5.5952    1.1528    0.8625 C.ar    1  UNL1       -0.0617
      7 C          -4.8347    0.3781    1.7332 C.ar    1  UNL1       -0.0614
      8 C          -3.7568   -0.3733    1.2677 C.ar    1  UNL1       -0.0568
      9 C          -0.9504   -0.4995   -0.4517 C.ar    1  UNL1       -0.0262
     10 C          -0.6820    0.7402    0.0625 C.ar    1  UNL1       -0.0561
     11 C           0.6264    1.1929    0.1554 C.ar    1  UNL1       -0.0522
     12 C           1.6871    0.4014   -0.2696 C.ar    1  UNL1        0.0026
     13 C           1.4045   -0.8633   -0.7935 C.ar    1  UNL1       -0.0522
     14 C           0.0997   -1.3079   -0.8832 C.ar    1  UNL1       -0.0561
     15 C           3.0695    0.8592   -0.1803 C.ar    1  UNL1        0.1016
     16 C           4.1201    0.0947    0.2839 C.ar    1  UNL1        0.1335
     17 N           4.1187   -1.1884    0.7409 N.ar    1  UNL1       -0.2321
     18 C           5.3961   -1.5184    1.0917 C.ar    1  UNL1        0.0957
     19 N           6.1841   -0.4397    0.8512 N.ar    1  UNL1       -0.3292
     20 C           5.4156    0.5629    0.3536 C.ar    1  UNL1        0.1614
     21 N           5.6454    1.8281   -0.0552 N.ar    1  UNL1       -0.2163
     22 C           4.6288    2.5933   -0.5135 C.ar    1  UNL1        0.1191
     23 N           3.3700    2.1187   -0.5742 N.ar    1  UNL1       -0.2331
     24 H          -2.4252   -1.2002   -1.7394 H       1  UNL1        0.0558
     25 H          -2.8352   -2.7466    0.5846 H       1  UNL1        0.1191
     26 H          -2.1464   -3.2155   -0.9394 H       1  UNL1        0.1191
     27 H          -3.9258    0.4142   -1.9428 H       1  UNL1        0.0621
     28 H          -5.8025    1.7480   -1.2578 H       1  UNL1        0.0618
     29 H          -6.4347    1.7502    1.1651 H       1  UNL1        0.0618
     30 H          -5.1142    0.3856    2.7724 H       1  UNL1        0.0618
     31 H          -3.1721   -0.9716    1.9504 H       1  UNL1        0.0621
     32 H          -1.5450    1.2985    0.3713 H       1  UNL1        0.0621
     33 H           0.8113    2.1636    0.5601 H       1  UNL1        0.0624
     34 H           2.2496   -1.4548   -1.1152 H       1  UNL1        0.0624
     35 H           0.0143   -2.3179   -1.3126 H       1  UNL1        0.0621
     36 H           5.7554   -2.4466    1.4881 H       1  UNL1        0.1027
     37 H           7.2237   -0.2988    0.9908 H       1  UNL1        0.1682
     38 H           4.7259    3.6058   -0.8566 H       1  UNL1        0.1048
@<TRIPOS>BOND
     1     1     2    1
     2     1     3    1
     3     3     4   ar
     4     4     5   ar
     5     5     6   ar
     6     6     7   ar
     7     7     8   ar
     8     1     9    1
     9     9    10   ar
    10    10    11   ar
    11    11    12   ar
    12    12    13   ar
    13    13    14   ar
    14    12    15    1
    15    15    16   ar
    16    16    17   ar
    17    17    18   ar
    18    18    19   ar
    19    19    20   ar
    20    20    21   ar
    21    21    22   ar
    22    22    23   ar
    23     8     3   ar
    24    14     9   ar
    25    23    15   ar
    26    20    16   ar
    27     1    24    1
    28     2    25    1
    29     2    26    1
    30     4    27    1
    31     5    28    1
    32     6    29    1
    33     7    30    1
    34     8    31    1
    35    10    32    1
    36    11    33    1
    37    13    34    1
    38    14    35    1
    39    18    36    1
    40    19    37    1
    41    22    38    1
