
     RDKit          3D

 63 67  0  0  0  0  0  0  0  0999 V2000
   -1.7563    1.3930    1.9527 C   0  0  0  0  0  0  0  0  0  0  0  0
   -1.1002    0.7814    0.6619 C   0  0  2  0  0  0  0  0  0  0  0  0
   -0.1931    1.8361    0.2079 C   0  0  0  0  0  0  0  0  0  0  0  0
    1.0335    1.7095   -0.3850 C   0  0  0  0  0  0  0  0  0  0  0  0
    1.7925    2.7918   -0.8775 C   0  0  0  0  0  0  0  0  0  0  0  0
    3.0454    2.4641   -1.5393 C   0  0  0  0  0  0  0  0  0  0  0  0
    4.1437    3.1777   -1.5389 C   0  0  0  0  0  0  0  0  0  0  0  0
    4.1368    4.3337   -0.8543 F   0  0  0  0  0  0  0  0  0  0  0  0
    5.3528    2.7916   -2.2549 C   0  0  0  0  0  0  0  0  0  0  0  0
    5.4960    1.6193   -2.9466 C   0  0  0  0  0  0  0  0  0  0  0  0
    6.6538    1.3170   -3.6782 C   0  0  0  0  0  0  0  0  0  0  0  0
    7.6838    2.2182   -3.7121 C   0  0  0  0  0  0  0  0  0  0  0  0
    8.8833    1.9386   -4.4972 C   0  0  0  0  0  0  0  0  0  0  0  0
    9.8181    1.7062   -5.1282 N   0  0  0  0  0  0  0  0  0  0  0  0
    7.5376    3.3904   -3.0150 C   0  0  0  0  0  0  0  0  0  0  0  0
    6.3975    3.6623   -2.3058 N   0  0  0  0  0  0  0  0  0  0  0  0
    1.2870    4.0374   -0.7605 C   0  0  0  0  0  0  0  0  0  0  0  0
    0.0742    4.2272   -0.1798 C   0  0  0  0  0  0  0  0  0  0  0  0
   -0.6608    3.1827    0.2951 C   0  0  0  0  0  0  0  0  0  0  0  0
   -1.8782    3.4208    0.8417 F   0  0  0  0  0  0  0  0  0  0  0  0
   -2.2461    0.9211   -0.2990 N   0  0  0  0  0  0  0  0  0  0  0  0
   -2.2427    0.3523   -1.4135 C   0  0  0  0  0  0  0  0  0  0  0  0
   -3.1974    0.3525   -2.4551 N   0  0  0  0  0  0  0  0  0  0  0  0
   -0.7954   -0.7279   -1.7075 S   0  0  0  0  0  0  0  0  0  0  0  0
   -0.7467   -1.5698   -0.0385 C   0  0  1  0  0  0  0  0  0  0  0  0
   -1.6332   -2.6925    0.0469 C   0  0  0  0  0  0  0  0  0  0  0  0
   -2.0767   -3.1401   -1.0969 O   0  0  0  0  0  0  0  0  0  0  0  0
   -2.1236   -3.4030    1.1532 N   0  0  0  0  0  0  0  0  0  0  0  0
   -3.1937   -4.4463    0.8831 C   0  0  0  0  0  0  0  0  0  0  0  0
   -4.4264   -3.9323    1.5722 C   0  0  0  0  0  0  0  0  0  0  0  0
   -4.2539   -3.2530    2.8619 C   0  0  0  0  0  0  0  0  0  0  0  0
   -5.0842   -1.9482    2.7908 C   0  0  0  0  0  0  0  0  0  0  0  0
   -6.3918   -2.2631    2.5817 F   0  0  0  0  0  0  0  0  0  0  0  0
   -4.5295   -1.2242    1.7572 F   0  0  0  0  0  0  0  0  0  0  0  0
   -4.8674   -1.3016    3.9910 F   0  0  0  0  0  0  0  0  0  0  0  0
   -2.9165   -2.8676    3.3548 C   0  0  0  0  0  0  0  0  0  0  0  0
   -1.7907   -3.3866    2.5310 C   0  0  0  0  0  0  0  0  0  0  0  0
    0.5268   -1.3521    0.6809 C   0  0  0  0  0  0  0  0  0  0  0  0
   -0.6683   -0.5153    0.9958 C   0  0  1  0  0  0  0  0  0  0  0  0
   -1.8789    0.4978    2.6555 H   0  0  0  0  0  0  0  0  0  0  0  0
   -1.0645    2.0843    2.4282 H   0  0  0  0  0  0  0  0  0  0  0  0
   -2.7683    1.7003    1.7413 H   0  0  0  0  0  0  0  0  0  0  0  0
    1.4743    0.7389   -0.5192 H   0  0  0  0  0  0  0  0  0  0  0  0
    3.0615    1.5314   -2.0908 H   0  0  0  0  0  0  0  0  0  0  0  0
    4.6913    0.8989   -2.9309 H   0  0  0  0  0  0  0  0  0  0  0  0
    6.7398    0.3803   -4.2096 H   0  0  0  0  0  0  0  0  0  0  0  0
    8.3475    4.0995   -3.0462 H   0  0  0  0  0  0  0  0  0  0  0  0
    1.8658    4.8930   -1.1357 H   0  0  0  0  0  0  0  0  0  0  0  0
   -0.3676    5.2337   -0.0675 H   0  0  0  0  0  0  0  0  0  0  0  0
   -4.1765    0.0225   -2.3195 H   0  0  0  0  0  0  0  0  0  0  0  0
   -2.9206    0.6979   -3.4209 H   0  0  0  0  0  0  0  0  0  0  0  0
   -2.8077   -5.3731    1.3468 H   0  0  0  0  0  0  0  0  0  0  0  0
   -3.3362   -4.5446   -0.1927 H   0  0  0  0  0  0  0  0  0  0  0  0
   -4.9610   -3.2888    0.8229 H   0  0  0  0  0  0  0  0  0  0  0  0
   -5.0697   -4.8540    1.7503 H   0  0  0  0  0  0  0  0  0  0  0  0
   -4.7599   -3.8929    3.6642 H   0  0  0  0  0  0  0  0  0  0  0  0
   -2.8560   -1.7450    3.4571 H   0  0  0  0  0  0  0  0  0  0  0  0
   -2.8304   -3.2534    4.4241 H   0  0  0  0  0  0  0  0  0  0  0  0
   -1.7016   -4.5001    2.8390 H   0  0  0  0  0  0  0  0  0  0  0  0
   -0.8093   -3.0002    2.8229 H   0  0  0  0  0  0  0  0  0  0  0  0
    0.7681   -2.2620    1.3501 H   0  0  0  0  0  0  0  0  0  0  0  0
    1.4298   -1.0348    0.1655 H   0  0  0  0  0  0  0  0  0  0  0  0
   -1.1598   -0.9246    1.9893 H   0  0  0  0  0  0  0  0  0  0  0  0
  2  1  1  1
  2  3  1  0
  3  4  2  0
  4  5  1  0
  5  6  1  0
  6  7  2  0
  7  8  1  0
  7  9  1  0
  9 10  2  0
 10 11  1  0
 11 12  2  0
 12 13  1  0
 13 14  3  0
 12 15  1  0
 15 16  2  0
  5 17  2  0
 17 18  1  0
 18 19  2  0
 19 20  1  0
  2 21  1  0
 21 22  2  0
 22 23  1  0
 22 24  1  0
 24 25  1  0
 25 26  1  1
 26 27  2  0
 26 28  1  0
 28 29  1  0
 29 30  1  0
 30 31  1  0
 31 32  1  0
 32 33  1  0
 32 34  1  0
 32 35  1  0
 31 36  1  0
 36 37  1  0
 25 38  1  0
 38 39  1  0
 39  2  1  0
 19  3  1  0
 39 25  1  0
 16  9  1  0
 37 28  1  0
  1 40  1  0
  1 41  1  0
  1 42  1  0
  4 43  1  0
  6 44  1  0
 10 45  1  0
 11 46  1  0
 15 47  1  0
 17 48  1  0
 18 49  1  0
 23 50  1  0
 23 51  1  0
 29 52  1  0
 29 53  1  0
 30 54  1  0
 30 55  1  0
 31 56  1  0
 36 57  1  0
 36 58  1  0
 37 59  1  0
 37 60  1  0
 38 61  1  0
 38 62  1  0
 39 63  1  1
M  END
$$$$
