@<TRIPOS>MOLECULE
*****
 63 67 0 0 0
SMALL
GASTEIGER

@<TRIPOS>ATOM
      1 C          -1.7563    1.3930    1.9527 C.3     1  UNL1       -0.0351
      2 C          -1.1002    0.7814    0.6619 C.3     1  UNL1        0.0935
      3 C          -0.1931    1.8361    0.2079 C.ar    1  UNL1        0.0158
      4 C           1.0335    1.7095   -0.3850 C.ar    1  UNL1       -0.0463
      5 C           1.7925    2.7918   -0.8775 C.ar    1  UNL1       -0.0217
      6 C           3.0454    2.4641   -1.5393 C.2     1  UNL1       -0.0172
      7 C           4.1437    3.1777   -1.5389 C.2     1  UNL1        0.1492
      8 F           4.1368    4.3337   -0.8543 F       1  UNL1       -0.2032
      9 C           5.3528    2.7916   -2.2549 C.ar    1  UNL1        0.0990
     10 C           5.4960    1.6193   -2.9466 C.ar    1  UNL1       -0.0322
     11 C           6.6538    1.3170   -3.6782 C.ar    1  UNL1       -0.0408
     12 C           7.6838    2.2182   -3.7121 C.ar    1  UNL1        0.0699
     13 C           8.8833    1.9386   -4.4972 C.1     1  UNL1        0.1007
     14 N           9.8181    1.7062   -5.1282 N.1     1  UNL1       -0.1908
     15 C           7.5376    3.3904   -3.0150 C.ar    1  UNL1        0.0457
     16 N           6.3975    3.6623   -2.3058 N.ar    1  UNL1       -0.2514
     17 C           1.2870    4.0374   -0.7605 C.ar    1  UNL1       -0.0518
     18 C           0.0742    4.2272   -0.1798 C.ar    1  UNL1       -0.0255
     19 C          -0.6608    3.1827    0.2951 C.ar    1  UNL1        0.1289
     20 F          -1.8782    3.4208    0.8417 F       1  UNL1       -0.2051
     21 N          -2.2461    0.9211   -0.2990 N.2     1  UNL1       -0.2521
     22 C          -2.2427    0.3523   -1.4135 C.2     1  UNL1        0.1485
     23 N          -3.1974    0.3525   -2.4551 N.pl3   1  UNL1       -0.3380
     24 S          -0.7954   -0.7279   -1.7075 S.3     1  UNL1       -0.0746
     25 C          -0.7467   -1.5698   -0.0385 C.3     1  UNL1        0.1054
     26 C          -1.6332   -2.6925    0.0469 C.2     1  UNL1        0.2324
     27 O          -2.0767   -3.1401   -1.0969 O.2     1  UNL1       -0.2741
     28 N          -2.1236   -3.4030    1.1532 N.am    1  UNL1       -0.3003
     29 C          -3.1937   -4.4463    0.8831 C.3     1  UNL1        0.0152
     30 C          -4.4264   -3.9323    1.5722 C.3     1  UNL1       -0.0261
     31 C          -4.2539   -3.2530    2.8619 C.3     1  UNL1        0.0572
     32 C          -5.0842   -1.9482    2.7908 C.3     1  UNL1        0.3930
     33 F          -6.3918   -2.2631    2.5817 F       1  UNL1       -0.1704
     34 F          -4.5295   -1.2242    1.7572 F       1  UNL1       -0.1704
     35 F          -4.8674   -1.3016    3.9910 F       1  UNL1       -0.1704
     36 C          -2.9165   -2.8676    3.3548 C.3     1  UNL1       -0.0261
     37 C          -1.7907   -3.3866    2.5310 C.3     1  UNL1        0.0152
     38 C           0.5268   -1.3521    0.6809 C.3     1  UNL1       -0.0220
     39 C          -0.6683   -0.5153    0.9958 C.3     1  UNL1        0.0134
     40 H          -1.8789    0.4978    2.6555 H       1  UNL1        0.0256
     41 H          -1.0645    2.0843    2.4282 H       1  UNL1        0.0256
     42 H          -2.7683    1.7003    1.7413 H       1  UNL1        0.0256
     43 H           1.4743    0.7389   -0.5192 H       1  UNL1        0.0628
     44 H           3.0615    1.5314   -2.0908 H       1  UNL1        0.0653
     45 H           4.6913    0.8989   -2.9309 H       1  UNL1        0.0640
     46 H           6.7398    0.3803   -4.2096 H       1  UNL1        0.0631
     47 H           8.3475    4.0995   -3.0462 H       1  UNL1        0.0843
     48 H           1.8658    4.8930   -1.1357 H       1  UNL1        0.0624
     49 H          -0.3676    5.2337   -0.0675 H       1  UNL1        0.0646
     50 H          -4.1765    0.0225   -2.3195 H       1  UNL1        0.1442
     51 H          -2.9206    0.6979   -3.4209 H       1  UNL1        0.1442
     52 H          -2.8077   -5.3731    1.3468 H       1  UNL1        0.0465
     53 H          -3.3362   -4.5446   -0.1927 H       1  UNL1        0.0465
     54 H          -4.9610   -3.2888    0.8229 H       1  UNL1        0.0286
     55 H          -5.0697   -4.8540    1.7503 H       1  UNL1        0.0286
     56 H          -4.7599   -3.8929    3.6642 H       1  UNL1        0.0388
     57 H          -2.8560   -1.7450    3.4571 H       1  UNL1        0.0286
     58 H          -2.8304   -3.2534    4.4241 H       1  UNL1        0.0286
     59 H          -1.7016   -4.5001    2.8390 H       1  UNL1        0.0465
     60 H          -0.8093   -3.0002    2.8229 H       1  UNL1        0.0465
     61 H           0.7681   -2.2620    1.3501 H       1  UNL1        0.0287
     62 H           1.4298   -1.0348    0.1655 H       1  UNL1        0.0287
     63 H          -1.1598   -0.9246    1.9893 H       1  UNL1        0.0346
@<TRIPOS>BOND
     1     2     1    1
     2     2     3    1
     3     3     4   ar
     4     4     5   ar
     5     5     6    1
     6     6     7    2
     7     7     8    1
     8     7     9    1
     9     9    10   ar
    10    10    11   ar
    11    11    12   ar
    12    12    13    1
    13    13    14    3
    14    12    15   ar
    15    15    16   ar
    16     5    17   ar
    17    17    18   ar
    18    18    19   ar
    19    19    20    1
    20     2    21    1
    21    21    22    2
    22    22    23    1
    23    22    24    1
    24    24    25    1
    25    25    26    1
    26    26    27    2
    27    26    28   am
    28    28    29    1
    29    29    30    1
    30    30    31    1
    31    31    32    1
    32    32    33    1
    33    32    34    1
    34    32    35    1
    35    31    36    1
    36    36    37    1
    37    25    38    1
    38    38    39    1
    39    39     2    1
    40    19     3   ar
    41    39    25    1
    42    16     9   ar
    43    37    28    1
    44     1    40    1
    45     1    41    1
    46     1    42    1
    47     4    43    1
    48     6    44    1
    49    10    45    1
    50    11    46    1
    51    15    47    1
    52    17    48    1
    53    18    49    1
    54    23    50    1
    55    23    51    1
    56    29    52    1
    57    29    53    1
    58    30    54    1
    59    30    55    1
    60    31    56    1
    61    36    57    1
    62    36    58    1
    63    37    59    1
    64    37    60    1
    65    38    61    1
    66    38    62    1
    67    39    63    1
