
     RDKit          3D

 30 32  0  0  0  0  0  0  0  0999 V2000
    0.5156   -3.3132    1.0336 F   0  0  0  0  0  0  0  0  0  0  0  0
   -0.4278   -2.2848    1.1167 C   0  0  0  0  0  0  0  0  0  0  0  0
   -1.7122   -2.7660    1.1844 F   0  0  0  0  0  0  0  0  0  0  0  0
   -0.1537   -1.5337    2.2243 F   0  0  0  0  0  0  0  0  0  0  0  0
   -0.2596   -1.4297   -0.1481 C   0  0  1  0  0  0  0  0  0  0  0  0
   -0.4795   -2.2190   -1.2926 O   0  0  0  0  0  0  0  0  0  0  0  0
   -1.5644   -2.0044   -2.1089 C   0  0  0  0  0  0  0  0  0  0  0  0
   -1.6615   -2.8514   -3.0566 O   0  0  0  0  0  0  0  0  0  0  0  0
   -2.5075   -0.9610   -1.9535 N   0  0  0  0  0  0  0  0  0  0  0  0
   -2.3004   -0.0776   -0.8605 C   0  0  0  0  0  0  0  0  0  0  0  0
   -1.2147   -0.3024   -0.0427 C   0  0  0  0  0  0  0  0  0  0  0  0
   -1.0705    0.6301    0.9623 C   0  0  0  0  0  0  0  0  0  0  0  0
   -1.9428    1.6889    1.1259 C   0  0  0  0  0  0  0  0  0  0  0  0
   -1.7940    2.8899    2.3860 Cl  0  0  0  0  0  0  0  0  0  0  0  0
   -3.0191    1.8647    0.2739 C   0  0  0  0  0  0  0  0  0  0  0  0
   -3.2006    0.9587   -0.7434 C   0  0  0  0  0  0  0  0  0  0  0  0
    1.0765   -0.8401   -0.1813 C   0  0  0  0  0  0  0  0  0  0  0  0
    2.1987   -0.3669   -0.2027 C   0  0  0  0  0  0  0  0  0  0  0  0
    3.5621    0.1855   -0.2134 C   0  0  0  0  0  0  0  0  0  0  0  0
    3.7688    1.3152    0.7267 C   0  0  0  0  0  0  0  0  0  0  0  0
    3.7656    1.5326   -0.7581 C   0  0  0  0  0  0  0  0  0  0  0  0
   -3.2671   -0.9490   -2.6674 H   0  0  0  0  0  0  0  0  0  0  0  0
   -0.3002    0.6428    1.6906 H   0  0  0  0  0  0  0  0  0  0  0  0
   -3.7275    2.6751    0.3616 H   0  0  0  0  0  0  0  0  0  0  0  0
   -4.0299    1.0635   -1.4287 H   0  0  0  0  0  0  0  0  0  0  0  0
    4.4125   -0.5440   -0.2399 H   0  0  0  0  0  0  0  0  0  0  0  0
    4.7637    1.4449    1.2108 H   0  0  0  0  0  0  0  0  0  0  0  0
    2.9456    1.7348    1.3411 H   0  0  0  0  0  0  0  0  0  0  0  0
    2.9099    2.1125   -1.1588 H   0  0  0  0  0  0  0  0  0  0  0  0
    4.7140    1.7041   -1.2957 H   0  0  0  0  0  0  0  0  0  0  0  0
  1  2  1  0
  2  3  1  0
  2  4  1  0
  2  5  1  0
  5  6  1  0
  6  7  1  0
  7  8  2  0
  7  9  1  0
  9 10  1  0
 10 11  2  0
 11 12  1  0
 12 13  2  0
 13 14  1  0
 13 15  1  0
 15 16  2  0
  5 17  1  6
 17 18  3  0
 18 19  1  0
 19 20  1  0
 20 21  1  0
 11  5  1  0
 21 19  1  0
 16 10  1  0
  9 22  1  0
 12 23  1  0
 15 24  1  0
 16 25  1  0
 19 26  1  0
 20 27  1  0
 20 28  1  0
 21 29  1  0
 21 30  1  0
M  END
$$$$
