@<TRIPOS>MOLECULE
*****
 60 64 0 0 0
SMALL
GASTEIGER

@<TRIPOS>ATOM
      1 C           1.0053    2.7204   -0.7499 C.3     1  UNL1       -0.0376
      2 C          -0.3452    2.1058   -0.6570 C.ar    1  UNL1       -0.0213
      3 C          -1.4253    2.7607   -1.3030 C.ar    1  UNL1       -0.0356
      4 C          -2.7068    2.2434   -1.1964 C.ar    1  UNL1        0.0321
      5 N          -3.8159    2.9250   -1.7657 N.pl3   1  UNL1       -0.3255
      6 C          -5.0891    2.8454   -1.0307 C.3     1  UNL1        0.0357
      7 C          -6.2801    2.6141   -1.9104 C.3     1  UNL1        0.0634
      8 O          -6.1486    3.1942   -3.1804 O.3     1  UNL1       -0.3767
      9 C          -5.2633    4.2855   -3.1177 C.3     1  UNL1        0.0634
     10 C          -3.8417    3.7020   -2.9599 C.3     1  UNL1        0.0357
     11 C          -2.8795    1.1098   -0.4690 C.ar    1  UNL1       -0.0152
     12 C          -1.8154    0.4585    0.1713 C.ar    1  UNL1        0.0685
     13 N          -1.7225   -0.6117    0.9456 N.ar    1  UNL1       -0.3376
     14 C          -0.3481   -0.7482    1.3250 C.ar    1  UNL1        0.1463
     15 C          -0.2002   -1.9790    2.2904 C.ar    1  UNL1        0.1022
     16 C           1.1006   -2.2330    2.6816 C.ar    1  UNL1        0.0446
     17 N           2.1875   -1.5445    2.0502 N.pl3   1  UNL1       -0.3403
     18 C           3.5531   -1.8395    2.4004 C.3     1  UNL1        0.0393
     19 C           4.2209   -2.7423    1.3951 C.3     1  UNL1        0.0956
     20 O           3.5410   -3.9136    1.2066 O.3     1  UNL1       -0.3856
     21 C           4.5792   -2.1144    0.1032 C.ar    1  UNL1       -0.0163
     22 C           4.4157   -0.7725   -0.0711 C.ar    1  UNL1       -0.0560
     23 C           4.7331   -0.1788   -1.3245 C.ar    1  UNL1       -0.0600
     24 C           5.1998   -0.9923   -2.3150 C.ar    1  UNL1       -0.0434
     25 C           5.3771   -2.3529   -2.1634 C.ar    1  UNL1        0.0413
     26 CL          5.9636   -3.4019   -3.4267 Cl      1  UNL1       -0.0835
     27 C           5.0534   -2.9144   -0.9064 C.ar    1  UNL1       -0.0377
     28 C           1.3634   -3.1791    3.6803 C.ar    1  UNL1       -0.0239
     29 C           0.2919   -3.8486    4.2588 C.ar    1  UNL1        0.0067
     30 N          -0.9392   -3.5800    3.8541 N.ar    1  UNL1       -0.3284
     31 C          -1.2099   -2.6403    2.8616 C.ar    1  UNL1        0.2612
     32 O          -2.4159   -2.4948    2.5875 O.2     1  UNL1       -0.2671
     33 N           0.2225    0.1052    0.8405 N.ar    1  UNL1       -0.2272
     34 C          -0.5402    0.9980    0.0512 C.ar    1  UNL1        0.0925
     35 H           1.5673    2.4886    0.1572 H       1  UNL1        0.0278
     36 H           0.7780    3.8450   -0.7039 H       1  UNL1        0.0278
     37 H           1.5721    2.4668   -1.6459 H       1  UNL1        0.0278
     38 H          -1.2403    3.6553   -1.8531 H       1  UNL1        0.0639
     39 H          -5.2781    3.7990   -0.4810 H       1  UNL1        0.0486
     40 H          -5.0235    2.0346   -0.3005 H       1  UNL1        0.0486
     41 H          -6.4038    1.5187   -2.0612 H       1  UNL1        0.0575
     42 H          -7.2289    2.9413   -1.3884 H       1  UNL1        0.0575
     43 H          -5.3442    4.8585   -4.0686 H       1  UNL1        0.0575
     44 H          -5.5118    4.8770   -2.2197 H       1  UNL1        0.0575
     45 H          -3.6801    3.0587   -3.8455 H       1  UNL1        0.0486
     46 H          -3.1176    4.5739   -2.9552 H       1  UNL1        0.0486
     47 H          -3.8378    0.6610   -0.3530 H       1  UNL1        0.0657
     48 H          -2.5273   -1.1705    1.1949 H       1  UNL1        0.1674
     49 H           2.0137   -0.8399    1.3529 H       1  UNL1        0.1462
     50 H           3.6658   -2.3625    3.4063 H       1  UNL1        0.0490
     51 H           4.1381   -0.9143    2.5182 H       1  UNL1        0.0490
     52 H           5.2476   -3.0201    1.8528 H       1  UNL1        0.0659
     53 H           3.9305   -4.6148    1.8326 H       1  UNL1        0.2103
     54 H           4.0809   -0.0709    0.6668 H       1  UNL1        0.0621
     55 H           4.6140    0.8700   -1.4978 H       1  UNL1        0.0618
     56 H           5.4602   -0.5738   -3.3005 H       1  UNL1        0.0632
     57 H           5.2140   -3.9844   -0.8296 H       1  UNL1        0.0636
     58 H           2.3361   -3.4264    4.0052 H       1  UNL1        0.0651
     59 H           0.4885   -4.5764    5.0232 H       1  UNL1        0.0808
     60 H          -1.7350   -4.0808    4.3047 H       1  UNL1        0.1683
@<TRIPOS>BOND
     1     1     2    1
     2     2     3   ar
     3     3     4   ar
     4     4     5    1
     5     5     6    1
     6     6     7    1
     7     7     8    1
     8     8     9    1
     9     9    10    1
    10     4    11   ar
    11    11    12   ar
    12    12    13   ar
    13    13    14   ar
    14    14    15    1
    15    15    16   ar
    16    16    17    1
    17    17    18    1
    18    18    19    1
    19    19    20    1
    20    19    21    1
    21    21    22   ar
    22    22    23   ar
    23    23    24   ar
    24    24    25   ar
    25    25    26    1
    26    25    27   ar
    27    16    28   ar
    28    28    29   ar
    29    29    30   ar
    30    30    31   ar
    31    31    32    2
    32    14    33   ar
    33    33    34   ar
    34    34     2   ar
    35    10     5    1
    36    34    12   ar
    37    31    15   ar
    38    27    21   ar
    39     1    35    1
    40     1    36    1
    41     1    37    1
    42     3    38    1
    43     6    39    1
    44     6    40    1
    45     7    41    1
    46     7    42    1
    47     9    43    1
    48     9    44    1
    49    10    45    1
    50    10    46    1
    51    11    47    1
    52    13    48    1
    53    17    49    1
    54    18    50    1
    55    18    51    1
    56    19    52    1
    57    20    53    1
    58    22    54    1
    59    23    55    1
    60    24    56    1
    61    27    57    1
    62    28    58    1
    63    29    59    1
    64    30    60    1
