@<TRIPOS>MOLECULE
*****
 79 83 0 0 0
SMALL
GASTEIGER

@<TRIPOS>ATOM
      1 C          -4.9890    0.9409    3.0128 C.3     1  UNL1       -0.0598
      2 C          -4.4420    0.3122    1.7162 C.3     1  UNL1       -0.0343
      3 C          -4.4985   -1.1719    1.9808 C.3     1  UNL1       -0.0598
      4 C          -5.3775    0.7486    0.6306 C.3     1  UNL1       -0.0468
      5 C          -4.9927    0.1184   -0.6609 C.3     1  UNL1       -0.0362
      6 C          -3.5596    0.3997   -1.0612 C.3     1  UNL1        0.0741
      7 C          -3.6545    1.3268   -2.2415 C.2     1  UNL1        0.3115
      8 O          -3.2071    1.0764   -3.3734 O.2     1  UNL1       -0.2504
      9 O          -4.2875    2.5419   -2.0389 O.3     1  UNL1       -0.4802
     10 C          -2.9930   -0.8769   -1.6050 C.3     1  UNL1       -0.0359
     11 C          -1.5356   -0.8602   -1.9178 C.3     1  UNL1       -0.0424
     12 C          -0.7269   -0.3994   -0.6894 C.3     1  UNL1       -0.0051
     13 C          -0.9750   -1.4959    0.3072 C.3     1  UNL1       -0.0553
     14 C          -1.3174    0.8951   -0.3401 C.2     1  UNL1       -0.0629
     15 C          -0.5379    1.9454   -0.3060 C.2     1  UNL1       -0.0836
     16 C           0.9170    1.9951   -0.5862 C.3     1  UNL1       -0.0306
     17 C           1.4459    0.6336   -0.1780 C.3     1  UNL1       -0.0257
     18 C           2.9190    0.5968   -0.0479 C.3     1  UNL1       -0.0243
     19 C           3.7158    1.2357   -1.1311 C.3     1  UNL1       -0.0590
     20 C           3.2535    1.3784    1.2394 C.3     1  UNL1       -0.0404
     21 C           4.6914    1.2169    1.6475 C.3     1  UNL1        0.0069
     22 C           5.4233    0.2919    0.7420 C.2     1  UNL1        0.1392
     23 O           6.4741    0.6099    0.2054 O.2     1  UNL1       -0.2968
     24 C           4.7709   -1.0339    0.5523 C.3     1  UNL1        0.0267
     25 C           5.5044   -1.8788   -0.4639 C.3     1  UNL1       -0.0528
     26 C           4.9622   -1.7547    1.8990 C.3     1  UNL1       -0.0528
     27 C           3.3359   -0.8259    0.2535 C.3     1  UNL1       -0.0235
     28 C           2.8488   -1.7668   -0.8344 C.3     1  UNL1       -0.0483
     29 C           1.3328   -1.7422   -0.6740 C.3     1  UNL1       -0.0463
     30 C           0.7481   -0.3813   -0.9898 C.3     1  UNL1       -0.0194
     31 C           0.8870   -0.2105   -2.4831 C.3     1  UNL1       -0.0585
     32 C          -2.7571    1.0881   -0.0240 C.3     1  UNL1       -0.0031
     33 C          -3.0736    0.8212    1.4218 C.3     1  UNL1       -0.0403
     34 H          -4.6084    0.3790    3.8993 H       1  UNL1        0.0235
     35 H          -6.0868    0.9647    2.9633 H       1  UNL1        0.0235
     36 H          -4.5283    1.9580    3.0699 H       1  UNL1        0.0235
     37 H          -5.3804   -1.4787    2.5472 H       1  UNL1        0.0235
     38 H          -4.3836   -1.8042    1.1055 H       1  UNL1        0.0235
     39 H          -3.6142   -1.3959    2.6474 H       1  UNL1        0.0235
     40 H          -6.3941    0.4357    0.8892 H       1  UNL1        0.0271
     41 H          -5.3303    1.8561    0.5769 H       1  UNL1        0.0271
     42 H          -5.7346    0.4579   -1.4303 H       1  UNL1        0.0276
     43 H          -5.1901   -0.9886   -0.5754 H       1  UNL1        0.0276
     44 H          -4.3391    3.2254   -2.7907 H       1  UNL1        0.2951
     45 H          -3.3448   -1.7897   -1.0565 H       1  UNL1        0.0276
     46 H          -3.5034   -1.0301   -2.6121 H       1  UNL1        0.0276
     47 H          -1.3704   -0.2393   -2.7926 H       1  UNL1        0.0274
     48 H          -1.2597   -1.9010   -2.1884 H       1  UNL1        0.0274
     49 H          -2.0672   -1.6737    0.4961 H       1  UNL1        0.0238
     50 H          -0.6704   -2.4390   -0.1887 H       1  UNL1        0.0238
     51 H          -0.5219   -1.3784    1.2825 H       1  UNL1        0.0238
     52 H          -0.9789    2.9364   -0.0401 H       1  UNL1        0.0572
     53 H           1.4197    2.8149   -0.0196 H       1  UNL1        0.0310
     54 H           1.1322    2.1994   -1.6533 H       1  UNL1        0.0310
     55 H           1.0419    0.4988    0.8774 H       1  UNL1        0.0315
     56 H           4.4346    0.5347   -1.6213 H       1  UNL1        0.0235
     57 H           4.3739    2.0850   -0.7740 H       1  UNL1        0.0235
     58 H           3.0425    1.7151   -1.8657 H       1  UNL1        0.0235
     59 H           3.1109    2.4846    1.0612 H       1  UNL1        0.0275
     60 H           2.5605    1.0996    2.0559 H       1  UNL1        0.0275
     61 H           4.7078    0.7464    2.6742 H       1  UNL1        0.0342
     62 H           5.2294    2.1764    1.7671 H       1  UNL1        0.0342
     63 H           5.1878   -1.7331   -1.4952 H       1  UNL1        0.0239
     64 H           5.4806   -2.9412   -0.1359 H       1  UNL1        0.0239
     65 H           6.5825   -1.5691   -0.4141 H       1  UNL1        0.0239
     66 H           5.8879   -1.4298    2.3902 H       1  UNL1        0.0239
     67 H           4.8495   -2.8339    1.7995 H       1  UNL1        0.0239
     68 H           4.1212   -1.3860    2.5410 H       1  UNL1        0.0239
     69 H           2.7521   -1.1126    1.1661 H       1  UNL1        0.0315
     70 H           3.1883   -1.5177   -1.8288 H       1  UNL1        0.0269
     71 H           3.1815   -2.7803   -0.5728 H       1  UNL1        0.0269
     72 H           1.1888   -1.9595    0.4089 H       1  UNL1        0.0271
     73 H           0.9707   -2.5358   -1.3510 H       1  UNL1        0.0271
     74 H           0.4198    0.7176   -2.8408 H       1  UNL1        0.0235
     75 H           0.4618   -1.1316   -2.9410 H       1  UNL1        0.0235
     76 H           1.9425   -0.1861   -2.8174 H       1  UNL1        0.0235
     77 H          -3.0078    2.1959   -0.1437 H       1  UNL1        0.0357
     78 H          -2.2739    0.2012    1.9344 H       1  UNL1        0.0276
     79 H          -2.9852    1.7783    2.0342 H       1  UNL1        0.0276
@<TRIPOS>BOND
     1     1     2    1
     2     2     3    1
     3     2     4    1
     4     4     5    1
     5     5     6    1
     6     6     7    1
     7     7     8    2
     8     7     9    1
     9     6    10    1
    10    10    11    1
    11    11    12    1
    12    12    13    1
    13    12    14    1
    14    14    15    2
    15    15    16    1
    16    16    17    1
    17    17    18    1
    18    18    19    1
    19    18    20    1
    20    20    21    1
    21    21    22    1
    22    22    23    2
    23    22    24    1
    24    24    25    1
    25    24    26    1
    26    24    27    1
    27    27    28    1
    28    28    29    1
    29    29    30    1
    30    30    31    1
    31    14    32    1
    32    32    33    1
    33    33     2    1
    34    32     6    1
    35    30    12    1
    36    30    17    1
    37    27    18    1
    38     1    34    1
    39     1    35    1
    40     1    36    1
    41     3    37    1
    42     3    38    1
    43     3    39    1
    44     4    40    1
    45     4    41    1
    46     5    42    1
    47     5    43    1
    48     9    44    1
    49    10    45    1
    50    10    46    1
    51    11    47    1
    52    11    48    1
    53    13    49    1
    54    13    50    1
    55    13    51    1
    56    15    52    1
    57    16    53    1
    58    16    54    1
    59    17    55    1
    60    19    56    1
    61    19    57    1
    62    19    58    1
    63    20    59    1
    64    20    60    1
    65    21    61    1
    66    21    62    1
    67    25    63    1
    68    25    64    1
    69    25    65    1
    70    26    66    1
    71    26    67    1
    72    26    68    1
    73    27    69    1
    74    28    70    1
    75    28    71    1
    76    29    72    1
    77    29    73    1
    78    31    74    1
    79    31    75    1
    80    31    76    1
    81    32    77    1
    82    33    78    1
    83    33    79    1
