
     RDKit          3D

 79 83  0  0  0  0  0  0  0  0999 V2000
   -4.9890    0.9409    3.0128 C   0  0  0  0  0  0  0  0  0  0  0  0
   -4.4420    0.3122    1.7162 C   0  0  0  0  0  0  0  0  0  0  0  0
   -4.4985   -1.1719    1.9808 C   0  0  0  0  0  0  0  0  0  0  0  0
   -5.3775    0.7486    0.6306 C   0  0  0  0  0  0  0  0  0  0  0  0
   -4.9927    0.1184   -0.6609 C   0  0  0  0  0  0  0  0  0  0  0  0
   -3.5596    0.3997   -1.0612 C   0  0  2  0  0  0  0  0  0  0  0  0
   -3.6545    1.3268   -2.2415 C   0  0  0  0  0  0  0  0  0  0  0  0
   -3.2071    1.0764   -3.3734 O   0  0  0  0  0  0  0  0  0  0  0  0
   -4.2875    2.5419   -2.0389 O   0  0  0  0  0  0  0  0  0  0  0  0
   -2.9930   -0.8769   -1.6050 C   0  0  0  0  0  0  0  0  0  0  0  0
   -1.5356   -0.8602   -1.9178 C   0  0  0  0  0  0  0  0  0  0  0  0
   -0.7269   -0.3994   -0.6894 C   0  0  2  0  0  0  0  0  0  0  0  0
   -0.9750   -1.4959    0.3072 C   0  0  0  0  0  0  0  0  0  0  0  0
   -1.3174    0.8951   -0.3401 C   0  0  0  0  0  0  0  0  0  0  0  0
   -0.5379    1.9454   -0.3060 C   0  0  0  0  0  0  0  0  0  0  0  0
    0.9170    1.9951   -0.5862 C   0  0  0  0  0  0  0  0  0  0  0  0
    1.4459    0.6336   -0.1780 C   0  0  2  0  0  0  0  0  0  0  0  0
    2.9190    0.5968   -0.0479 C   0  0  1  0  0  0  0  0  0  0  0  0
    3.7158    1.2357   -1.1311 C   0  0  0  0  0  0  0  0  0  0  0  0
    3.2535    1.3784    1.2394 C   0  0  0  0  0  0  0  0  0  0  0  0
    4.6914    1.2169    1.6475 C   0  0  0  0  0  0  0  0  0  0  0  0
    5.4233    0.2919    0.7420 C   0  0  0  0  0  0  0  0  0  0  0  0
    6.4741    0.6099    0.2054 O   0  0  0  0  0  0  0  0  0  0  0  0
    4.7709   -1.0339    0.5523 C   0  0  0  0  0  0  0  0  0  0  0  0
    5.5044   -1.8788   -0.4639 C   0  0  0  0  0  0  0  0  0  0  0  0
    4.9622   -1.7547    1.8990 C   0  0  0  0  0  0  0  0  0  0  0  0
    3.3359   -0.8259    0.2535 C   0  0  2  0  0  0  0  0  0  0  0  0
    2.8488   -1.7668   -0.8344 C   0  0  0  0  0  0  0  0  0  0  0  0
    1.3328   -1.7422   -0.6740 C   0  0  0  0  0  0  0  0  0  0  0  0
    0.7481   -0.3813   -0.9898 C   0  0  1  0  0  0  0  0  0  0  0  0
    0.8870   -0.2105   -2.4831 C   0  0  0  0  0  0  0  0  0  0  0  0
   -2.7571    1.0881   -0.0240 C   0  0  2  0  0  0  0  0  0  0  0  0
   -3.0736    0.8212    1.4218 C   0  0  0  0  0  0  0  0  0  0  0  0
   -4.6084    0.3790    3.8993 H   0  0  0  0  0  0  0  0  0  0  0  0
   -6.0868    0.9647    2.9633 H   0  0  0  0  0  0  0  0  0  0  0  0
   -4.5283    1.9580    3.0699 H   0  0  0  0  0  0  0  0  0  0  0  0
   -5.3804   -1.4787    2.5472 H   0  0  0  0  0  0  0  0  0  0  0  0
   -4.3836   -1.8042    1.1055 H   0  0  0  0  0  0  0  0  0  0  0  0
   -3.6142   -1.3959    2.6474 H   0  0  0  0  0  0  0  0  0  0  0  0
   -6.3941    0.4357    0.8892 H   0  0  0  0  0  0  0  0  0  0  0  0
   -5.3303    1.8561    0.5769 H   0  0  0  0  0  0  0  0  0  0  0  0
   -5.7346    0.4579   -1.4303 H   0  0  0  0  0  0  0  0  0  0  0  0
   -5.1901   -0.9886   -0.5754 H   0  0  0  0  0  0  0  0  0  0  0  0
   -4.3391    3.2254   -2.7907 H   0  0  0  0  0  0  0  0  0  0  0  0
   -3.3448   -1.7897   -1.0565 H   0  0  0  0  0  0  0  0  0  0  0  0
   -3.5034   -1.0301   -2.6121 H   0  0  0  0  0  0  0  0  0  0  0  0
   -1.3704   -0.2393   -2.7926 H   0  0  0  0  0  0  0  0  0  0  0  0
   -1.2597   -1.9010   -2.1884 H   0  0  0  0  0  0  0  0  0  0  0  0
   -2.0672   -1.6737    0.4961 H   0  0  0  0  0  0  0  0  0  0  0  0
   -0.6704   -2.4390   -0.1887 H   0  0  0  0  0  0  0  0  0  0  0  0
   -0.5219   -1.3784    1.2825 H   0  0  0  0  0  0  0  0  0  0  0  0
   -0.9789    2.9364   -0.0401 H   0  0  0  0  0  0  0  0  0  0  0  0
    1.4197    2.8149   -0.0196 H   0  0  0  0  0  0  0  0  0  0  0  0
    1.1322    2.1994   -1.6533 H   0  0  0  0  0  0  0  0  0  0  0  0
    1.0419    0.4988    0.8774 H   0  0  0  0  0  0  0  0  0  0  0  0
    4.4346    0.5347   -1.6213 H   0  0  0  0  0  0  0  0  0  0  0  0
    4.3739    2.0850   -0.7740 H   0  0  0  0  0  0  0  0  0  0  0  0
    3.0425    1.7151   -1.8657 H   0  0  0  0  0  0  0  0  0  0  0  0
    3.1109    2.4846    1.0612 H   0  0  0  0  0  0  0  0  0  0  0  0
    2.5605    1.0996    2.0559 H   0  0  0  0  0  0  0  0  0  0  0  0
    4.7078    0.7464    2.6742 H   0  0  0  0  0  0  0  0  0  0  0  0
    5.2294    2.1764    1.7671 H   0  0  0  0  0  0  0  0  0  0  0  0
    5.1878   -1.7331   -1.4952 H   0  0  0  0  0  0  0  0  0  0  0  0
    5.4806   -2.9412   -0.1359 H   0  0  0  0  0  0  0  0  0  0  0  0
    6.5825   -1.5691   -0.4141 H   0  0  0  0  0  0  0  0  0  0  0  0
    5.8879   -1.4298    2.3902 H   0  0  0  0  0  0  0  0  0  0  0  0
    4.8495   -2.8339    1.7995 H   0  0  0  0  0  0  0  0  0  0  0  0
    4.1212   -1.3860    2.5410 H   0  0  0  0  0  0  0  0  0  0  0  0
    2.7521   -1.1126    1.1661 H   0  0  0  0  0  0  0  0  0  0  0  0
    3.1883   -1.5177   -1.8288 H   0  0  0  0  0  0  0  0  0  0  0  0
    3.1815   -2.7803   -0.5728 H   0  0  0  0  0  0  0  0  0  0  0  0
    1.1888   -1.9595    0.4089 H   0  0  0  0  0  0  0  0  0  0  0  0
    0.9707   -2.5358   -1.3510 H   0  0  0  0  0  0  0  0  0  0  0  0
    0.4198    0.7176   -2.8408 H   0  0  0  0  0  0  0  0  0  0  0  0
    0.4618   -1.1316   -2.9410 H   0  0  0  0  0  0  0  0  0  0  0  0
    1.9425   -0.1861   -2.8174 H   0  0  0  0  0  0  0  0  0  0  0  0
   -3.0078    2.1959   -0.1437 H   0  0  0  0  0  0  0  0  0  0  0  0
   -2.2739    0.2012    1.9344 H   0  0  0  0  0  0  0  0  0  0  0  0
   -2.9852    1.7783    2.0342 H   0  0  0  0  0  0  0  0  0  0  0  0
  1  2  1  0
  2  3  1  0
  2  4  1  0
  4  5  1  0
  5  6  1  0
  6  7  1  6
  7  8  2  0
  7  9  1  0
  6 10  1  0
 10 11  1  0
 11 12  1  0
 12 13  1  1
 12 14  1  0
 14 15  2  0
 15 16  1  0
 16 17  1  0
 17 18  1  0
 18 19  1  6
 18 20  1  0
 20 21  1  0
 21 22  1  0
 22 23  2  0
 22 24  1  0
 24 25  1  0
 24 26  1  0
 24 27  1  0
 27 28  1  0
 28 29  1  0
 29 30  1  0
 30 31  1  6
 14 32  1  0
 32 33  1  0
 33  2  1  0
 32  6  1  0
 30 12  1  0
 30 17  1  0
 27 18  1  0
  1 34  1  0
  1 35  1  0
  1 36  1  0
  3 37  1  0
  3 38  1  0
  3 39  1  0
  4 40  1  0
  4 41  1  0
  5 42  1  0
  5 43  1  0
  9 44  1  0
 10 45  1  0
 10 46  1  0
 11 47  1  0
 11 48  1  0
 13 49  1  0
 13 50  1  0
 13 51  1  0
 15 52  1  0
 16 53  1  0
 16 54  1  0
 17 55  1  1
 19 56  1  0
 19 57  1  0
 19 58  1  0
 20 59  1  0
 20 60  1  0
 21 61  1  0
 21 62  1  0
 25 63  1  0
 25 64  1  0
 25 65  1  0
 26 66  1  0
 26 67  1  0
 26 68  1  0
 27 69  1  1
 28 70  1  0
 28 71  1  0
 29 72  1  0
 29 73  1  0
 31 74  1  0
 31 75  1  0
 31 76  1  0
 32 77  1  6
 33 78  1  0
 33 79  1  0
M  END
$$$$
