@<TRIPOS>MOLECULE
*****
 39 40 0 0 0
SMALL
GASTEIGER

@<TRIPOS>ATOM
      1 O           0.2461   -0.6972   -2.0763 O.3     1  UNL1       -0.3864
      2 C          -0.5821   -0.3568   -1.0353 C.3     1  UNL1        0.1135
      3 C          -1.7213   -1.3566   -0.8223 C.3     1  UNL1        0.1286
      4 O          -1.1236   -2.6049   -0.7034 O.3     1  UNL1       -0.3847
      5 C          -2.1371   -0.9137    0.5838 C.3     1  UNL1        0.1679
      6 O          -1.0361   -0.3265    1.1687 O.3     1  UNL1       -0.3456
      7 C           0.0533   -0.5426    0.3386 C.3     1  UNL1        0.1134
      8 C           1.1859    0.3860    0.5652 C.3     1  UNL1        0.0879
      9 O           2.1848    0.0107   -0.3633 O.3     1  UNL1       -0.2837
     10 P           3.5426    1.0101   -0.1988 P.3     1  UNL1        0.4834
     11 O           4.1146    0.9122    1.3921 O.3     1  UNL1       -0.3022
     12 O           3.0902    2.4158   -0.5384 O.2     1  UNL1       -0.2269
     13 O           4.7006    0.5030   -1.2937 O.3     1  UNL1       -0.1862
     14 P           5.8759   -0.4991   -0.6123 P.3     1  UNL1        0.4808
     15 O           7.3670    0.2770   -0.7310 O.3     1  UNL1       -0.3023
     16 O           5.8949   -1.9973   -1.4182 O.3     1  UNL1       -0.3023
     17 O           5.6125   -0.7920    0.8454 O.2     1  UNL1       -0.2271
     18 N          -3.1547    0.1057    0.4111 N.ar    1  UNL1       -0.2715
     19 C          -3.0652    1.4395    0.5813 C.ar    1  UNL1        0.0171
     20 C          -4.1496    2.2357    0.3657 C.ar    1  UNL1        0.0192
     21 C          -5.3400    1.6548   -0.0294 C.ar    1  UNL1        0.2539
     22 O          -6.3093    2.4381   -0.2143 O.2     1  UNL1       -0.2677
     23 N          -5.4245    0.3224   -0.1981 N.ar    1  UNL1       -0.2749
     24 C          -4.3366   -0.4520    0.0209 C.ar    1  UNL1        0.3314
     25 O          -4.5530   -1.6774   -0.1729 O.2     1  UNL1       -0.2464
     26 H           0.3606    0.1288   -2.6395 H       1  UNL1        0.2100
     27 H          -0.9867    0.6753   -1.0728 H       1  UNL1        0.0647
     28 H          -2.5176   -1.2830   -1.5553 H       1  UNL1        0.0665
     29 H          -1.7798   -3.2310   -0.3166 H       1  UNL1        0.2101
     30 H          -2.5095   -1.7795    1.1587 H       1  UNL1        0.0867
     31 H           0.3904   -1.5773    0.4073 H       1  UNL1        0.0647
     32 H           1.6087    0.2139    1.5536 H       1  UNL1        0.0592
     33 H           0.9615    1.4382    0.3328 H       1  UNL1        0.0592
     34 H           3.7103    0.1336    1.8401 H       1  UNL1        0.2220
     35 H           7.2176    1.2506   -0.6125 H       1  UNL1        0.2220
     36 H           5.0453   -2.4477   -1.1964 H       1  UNL1        0.2220
     37 H          -2.0780    1.7575    0.8911 H       1  UNL1        0.0813
     38 H          -3.9998    3.2904    0.5223 H       1  UNL1        0.0686
     39 H          -6.3583   -0.0647   -0.5005 H       1  UNL1        0.1734
@<TRIPOS>BOND
     1     1     2    1
     2     2     3    1
     3     3     4    1
     4     3     5    1
     5     5     6    1
     6     6     7    1
     7     7     8    1
     8     8     9    1
     9     9    10    1
    10    10    11    1
    11    10    12    2
    12    10    13    1
    13    13    14    1
    14    14    15    1
    15    14    16    1
    16    14    17    2
    17     5    18    1
    18    18    19   ar
    19    19    20   ar
    20    20    21   ar
    21    21    22    2
    22    21    23   ar
    23    23    24   ar
    24    24    25    2
    25     7     2    1
    26    24    18   ar
    27     1    26    1
    28     2    27    1
    29     3    28    1
    30     4    29    1
    31     5    30    1
    32     7    31    1
    33     8    32    1
    34     8    33    1
    35    11    34    1
    36    15    35    1
    37    16    36    1
    38    19    37    1
    39    20    38    1
    40    23    39    1
