@<TRIPOS>MOLECULE
*****
 46 49 0 0 0
SMALL
GASTEIGER

@<TRIPOS>ATOM
      1 C           8.0262   -1.5767    1.3644 C.3     1  UNL1        0.0789
      2 O           7.5138   -0.2639    1.4378 O.3     1  UNL1       -0.4936
      3 C           6.2208   -0.0107    1.0050 C.ar    1  UNL1        0.1381
      4 C           5.6754    1.2680    1.0592 C.ar    1  UNL1       -0.0163
      5 C           4.3834    1.4475    0.6119 C.ar    1  UNL1       -0.0277
      6 C           3.5983    0.4317    0.1128 C.ar    1  UNL1        0.1259
      7 C           2.2286    0.6865   -0.3484 C.2     1  UNL1        0.2666
      8 O           1.7753    1.8435   -0.2843 O.2     1  UNL1       -0.2682
      9 N           1.3956   -0.3355   -0.8666 N.am    1  UNL1       -0.2802
     10 C           0.0652   -0.1114   -1.3193 C.ar    1  UNL1        0.0369
     11 C          -0.1174    0.2137   -2.6340 C.ar    1  UNL1       -0.0023
     12 C          -1.3612    0.4418   -3.1346 C.ar    1  UNL1        0.1605
     13 F          -1.5692    0.7697   -4.4518 F       1  UNL1       -0.2024
     14 C          -2.4726    0.3512   -2.3289 C.ar    1  UNL1        0.1642
     15 F          -3.7163    0.6124   -2.8670 F       1  UNL1       -0.2021
     16 C          -2.3010    0.0247   -1.0082 C.ar    1  UNL1        0.0256
     17 C          -3.5007   -0.0986   -0.1452 C.3     1  UNL1        0.1604
     18 C          -4.2555   -1.3711   -0.5689 C.3     1  UNL1        0.2686
     19 F          -3.4592   -2.4768   -0.4258 F       1  UNL1       -0.2062
     20 F          -4.7978   -1.3029   -1.8009 F       1  UNL1       -0.2062
     21 N          -3.0174   -0.4145    1.1888 N.2     1  UNL1       -0.2194
     22 C          -3.7574   -0.1673    2.1980 C.2     1  UNL1        0.2764
     23 N          -3.3283   -0.4607    3.5424 N.pl3   1  UNL1       -0.3134
     24 O          -4.9993    0.3954    1.9964 O.2     1  UNL1       -0.4622
     25 C          -5.1983    1.3613    0.9743 C.3     1  UNL1        0.1091
     26 C          -5.8613    0.9649   -0.3056 C.3     1  UNL1       -0.0064
     27 C          -4.3831    1.0932   -0.2300 C.3     1  UNL1        0.0344
     28 C          -1.0200   -0.2109   -0.4875 C.ar    1  UNL1       -0.0319
     29 N           4.1529   -0.7934    0.0729 N.ar    1  UNL1       -0.2467
     30 C           5.4288   -1.0229    0.5041 C.ar    1  UNL1        0.0700
     31 H           8.0685   -1.8475    0.2898 H       1  UNL1        0.0660
     32 H           9.0428   -1.6298    1.7921 H       1  UNL1        0.0660
     33 H           7.3780   -2.2985    1.9139 H       1  UNL1        0.0660
     34 H           6.2925    2.0652    1.4513 H       1  UNL1        0.0655
     35 H           3.9663    2.4387    0.6561 H       1  UNL1        0.0641
     36 H           1.8231   -1.3061   -0.9026 H       1  UNL1        0.1552
     37 H           0.7264    0.2992   -3.3169 H       1  UNL1        0.0666
     38 H          -5.1164   -1.5292    0.1469 H       1  UNL1        0.1047
     39 H          -2.9343    0.3016    4.1004 H       1  UNL1        0.1466
     40 H          -3.4241   -1.4162    3.9116 H       1  UNL1        0.1466
     41 H          -5.4050    2.3956    1.3068 H       1  UNL1        0.0737
     42 H          -6.3858    0.0035   -0.2737 H       1  UNL1        0.0306
     43 H          -6.4145    1.7305   -0.9000 H       1  UNL1        0.0306
     44 H          -3.9282    1.9844   -0.7092 H       1  UNL1        0.0366
     45 H          -0.9063   -0.4663    0.5566 H       1  UNL1        0.0640
     46 H           5.8687   -2.0130    0.4687 H       1  UNL1        0.0867
@<TRIPOS>BOND
     1     1     2    1
     2     2     3    1
     3     3     4   ar
     4     4     5   ar
     5     5     6   ar
     6     6     7    1
     7     7     8    2
     8     7     9   am
     9     9    10    1
    10    10    11   ar
    11    11    12   ar
    12    12    13    1
    13    12    14   ar
    14    14    15    1
    15    14    16   ar
    16    16    17    1
    17    17    18    1
    18    18    19    1
    19    18    20    1
    20    17    21    1
    21    21    22    2
    22    22    23    1
    23    22    24    1
    24    24    25    1
    25    25    26    1
    26    26    27    1
    27    16    28   ar
    28     6    29   ar
    29    29    30   ar
    30    30     3   ar
    31    28    10   ar
    32    27    17    1
    33    27    25    1
    34     1    31    1
    35     1    32    1
    36     1    33    1
    37     4    34    1
    38     5    35    1
    39     9    36    1
    40    11    37    1
    41    18    38    1
    42    23    39    1
    43    23    40    1
    44    25    41    1
    45    26    42    1
    46    26    43    1
    47    27    44    1
    48    28    45    1
    49    30    46    1
