
     RDKit          3D

 46 49  0  0  0  0  0  0  0  0999 V2000
    8.0262   -1.5767    1.3644 C   0  0  0  0  0  0  0  0  0  0  0  0
    7.5138   -0.2639    1.4378 O   0  0  0  0  0  0  0  0  0  0  0  0
    6.2208   -0.0107    1.0050 C   0  0  0  0  0  0  0  0  0  0  0  0
    5.6754    1.2680    1.0592 C   0  0  0  0  0  0  0  0  0  0  0  0
    4.3834    1.4475    0.6119 C   0  0  0  0  0  0  0  0  0  0  0  0
    3.5983    0.4317    0.1128 C   0  0  0  0  0  0  0  0  0  0  0  0
    2.2286    0.6865   -0.3484 C   0  0  0  0  0  0  0  0  0  0  0  0
    1.7753    1.8435   -0.2843 O   0  0  0  0  0  0  0  0  0  0  0  0
    1.3956   -0.3355   -0.8666 N   0  0  0  0  0  0  0  0  0  0  0  0
    0.0652   -0.1114   -1.3193 C   0  0  0  0  0  0  0  0  0  0  0  0
   -0.1174    0.2137   -2.6340 C   0  0  0  0  0  0  0  0  0  0  0  0
   -1.3612    0.4418   -3.1346 C   0  0  0  0  0  0  0  0  0  0  0  0
   -1.5692    0.7697   -4.4518 F   0  0  0  0  0  0  0  0  0  0  0  0
   -2.4726    0.3512   -2.3289 C   0  0  0  0  0  0  0  0  0  0  0  0
   -3.7163    0.6124   -2.8670 F   0  0  0  0  0  0  0  0  0  0  0  0
   -2.3010    0.0247   -1.0082 C   0  0  0  0  0  0  0  0  0  0  0  0
   -3.5007   -0.0986   -0.1452 C   0  0  1  0  0  0  0  0  0  0  0  0
   -4.2555   -1.3711   -0.5689 C   0  0  0  0  0  0  0  0  0  0  0  0
   -3.4592   -2.4768   -0.4258 F   0  0  0  0  0  0  0  0  0  0  0  0
   -4.7978   -1.3029   -1.8009 F   0  0  0  0  0  0  0  0  0  0  0  0
   -3.0174   -0.4145    1.1888 N   0  0  0  0  0  0  0  0  0  0  0  0
   -3.7574   -0.1673    2.1980 C   0  0  0  0  0  0  0  0  0  0  0  0
   -3.3283   -0.4607    3.5424 N   0  0  0  0  0  0  0  0  0  0  0  0
   -4.9993    0.3954    1.9964 O   0  0  0  0  0  0  0  0  0  0  0  0
   -5.1983    1.3613    0.9743 C   0  0  2  0  0  0  0  0  0  0  0  0
   -5.8613    0.9649   -0.3056 C   0  0  0  0  0  0  0  0  0  0  0  0
   -4.3831    1.0932   -0.2300 C   0  0  2  0  0  0  0  0  0  0  0  0
   -1.0200   -0.2109   -0.4875 C   0  0  0  0  0  0  0  0  0  0  0  0
    4.1529   -0.7934    0.0729 N   0  0  0  0  0  0  0  0  0  0  0  0
    5.4288   -1.0229    0.5041 C   0  0  0  0  0  0  0  0  0  0  0  0
    8.0685   -1.8475    0.2898 H   0  0  0  0  0  0  0  0  0  0  0  0
    9.0428   -1.6298    1.7921 H   0  0  0  0  0  0  0  0  0  0  0  0
    7.3780   -2.2985    1.9139 H   0  0  0  0  0  0  0  0  0  0  0  0
    6.2925    2.0652    1.4513 H   0  0  0  0  0  0  0  0  0  0  0  0
    3.9663    2.4387    0.6561 H   0  0  0  0  0  0  0  0  0  0  0  0
    1.8231   -1.3061   -0.9026 H   0  0  0  0  0  0  0  0  0  0  0  0
    0.7264    0.2992   -3.3169 H   0  0  0  0  0  0  0  0  0  0  0  0
   -5.1164   -1.5292    0.1469 H   0  0  0  0  0  0  0  0  0  0  0  0
   -2.9343    0.3016    4.1004 H   0  0  0  0  0  0  0  0  0  0  0  0
   -3.4241   -1.4162    3.9116 H   0  0  0  0  0  0  0  0  0  0  0  0
   -5.4050    2.3956    1.3068 H   0  0  0  0  0  0  0  0  0  0  0  0
   -6.3858    0.0035   -0.2737 H   0  0  0  0  0  0  0  0  0  0  0  0
   -6.4145    1.7305   -0.9000 H   0  0  0  0  0  0  0  0  0  0  0  0
   -3.9282    1.9844   -0.7092 H   0  0  0  0  0  0  0  0  0  0  0  0
   -0.9063   -0.4663    0.5566 H   0  0  0  0  0  0  0  0  0  0  0  0
    5.8687   -2.0130    0.4687 H   0  0  0  0  0  0  0  0  0  0  0  0
  1  2  1  0
  2  3  1  0
  3  4  2  0
  4  5  1  0
  5  6  2  0
  6  7  1  0
  7  8  2  0
  7  9  1  0
  9 10  1  0
 10 11  2  0
 11 12  1  0
 12 13  1  0
 12 14  2  0
 14 15  1  0
 14 16  1  0
 16 17  1  0
 17 18  1  6
 18 19  1  0
 18 20  1  0
 17 21  1  0
 21 22  2  0
 22 23  1  0
 22 24  1  0
 24 25  1  0
 25 26  1  0
 26 27  1  0
 16 28  2  0
  6 29  1  0
 29 30  2  0
 30  3  1  0
 28 10  1  0
 27 17  1  0
 27 25  1  0
  1 31  1  0
  1 32  1  0
  1 33  1  0
  4 34  1  0
  5 35  1  0
  9 36  1  0
 11 37  1  0
 18 38  1  0
 23 39  1  0
 23 40  1  0
 25 41  1  1
 26 42  1  0
 26 43  1  0
 27 44  1  6
 28 45  1  0
 30 46  1  0
M  END
$$$$
