@<TRIPOS>MOLECULE
*****
 76 80 0 0 0
SMALL
GASTEIGER

@<TRIPOS>ATOM
      1 C          -4.6630    5.0783    0.9136 C.3     1  UNL1       -0.0397
      2 C          -4.7087    3.6144    0.6079 C.ar    1  UNL1       -0.0503
      3 C          -3.7341    2.7586    1.0765 C.ar    1  UNL1       -0.0568
      4 C          -3.7595    1.3973    0.8034 C.ar    1  UNL1       -0.0359
      5 C          -4.7729    0.8525    0.0455 C.ar    1  UNL1        0.0674
      6 N          -4.8518   -0.5361   -0.2673 N.ar    1  UNL1       -0.2181
      7 N          -5.7671   -1.3948    0.2095 N.ar    1  UNL1       -0.1691
      8 C          -5.5516   -2.6142   -0.2856 C.ar    1  UNL1        0.0706
      9 C          -6.3172   -3.8519   -0.0267 C.3     1  UNL1        0.0063
     10 C          -7.4376   -3.9562   -1.0647 C.3     1  UNL1       -0.0546
     11 C          -5.4225   -5.0646   -0.0918 C.3     1  UNL1       -0.0546
     12 C          -6.9430   -3.7296    1.3481 C.3     1  UNL1       -0.0546
     13 C          -4.4613   -2.5149   -1.1023 C.ar    1  UNL1        0.0021
     14 C          -4.0184   -1.1971   -1.0901 C.ar    1  UNL1        0.1299
     15 N          -2.9107   -0.6594   -1.8023 N.am    1  UNL1       -0.2538
     16 C          -1.5997   -0.6205   -1.2594 C.2     1  UNL1        0.3092
     17 O          -1.4179   -1.0828   -0.0999 O.2     1  UNL1       -0.2521
     18 N          -0.4820   -0.0766   -1.9809 N.am    1  UNL1       -0.2686
     19 C           0.8088   -0.0608   -1.3939 C.ar    1  UNL1        0.0427
     20 C           1.7142   -1.0887   -1.5271 C.ar    1  UNL1       -0.0364
     21 C           2.9675   -1.0599   -0.9498 C.ar    1  UNL1       -0.0176
     22 C           3.3391    0.0322   -0.2100 C.ar    1  UNL1        0.1283
     23 O           4.5590    0.1701    0.4097 O.3     1  UNL1       -0.4901
     24 C           5.5947   -0.7885    0.3712 C.3     1  UNL1        0.1023
     25 C           6.7490   -0.2438    1.1751 C.3     1  UNL1        0.0333
     26 N           7.1851    0.9921    0.6102 N.3     1  UNL1       -0.2948
     27 C           8.2909    1.5113    1.4119 C.3     1  UNL1        0.0225
     28 C           9.5312    0.6860    1.1880 C.3     1  UNL1        0.0604
     29 O           9.8705    0.5205   -0.1317 O.3     1  UNL1       -0.3772
     30 C           8.8271   -0.0042   -0.8950 C.3     1  UNL1        0.0604
     31 C           7.6070    0.9026   -0.7512 C.3     1  UNL1        0.0225
     32 C           2.4401    1.0794   -0.0638 C.ar    1  UNL1        0.0256
     33 C           2.7784    2.1867    0.6690 C.ar    1  UNL1       -0.0505
     34 C           1.9165    3.2514    0.8409 C.ar    1  UNL1       -0.0611
     35 C           0.6716    3.1799    0.2450 C.ar    1  UNL1       -0.0611
     36 C           0.3164    2.0701   -0.4967 C.ar    1  UNL1       -0.0521
     37 C           1.1924    1.0331   -0.6478 C.ar    1  UNL1        0.0069
     38 C          -5.7476    1.7166   -0.4216 C.ar    1  UNL1       -0.0359
     39 C          -5.7233    3.0695   -0.1507 C.ar    1  UNL1       -0.0568
     40 H          -4.7771    5.6786   -0.0001 H       1  UNL1        0.0278
     41 H          -3.7261    5.3136    1.4242 H       1  UNL1        0.0278
     42 H          -5.4964    5.3686    1.5972 H       1  UNL1        0.0278
     43 H          -2.9271    3.1959    1.6807 H       1  UNL1        0.0621
     44 H          -2.9851    0.7742    1.1866 H       1  UNL1        0.0639
     45 H          -7.8784   -4.9605   -1.0574 H       1  UNL1        0.0239
     46 H          -8.1719   -3.1592   -0.7866 H       1  UNL1        0.0239
     47 H          -7.0093   -3.6767   -2.0460 H       1  UNL1        0.0239
     48 H          -6.0241   -5.9934   -0.1869 H       1  UNL1        0.0239
     49 H          -4.7976   -5.0618    0.8223 H       1  UNL1        0.0239
     50 H          -4.7467   -5.0196   -0.9611 H       1  UNL1        0.0239
     51 H          -7.4438   -4.6707    1.6149 H       1  UNL1        0.0239
     52 H          -6.1206   -3.4561    2.0622 H       1  UNL1        0.0239
     53 H          -7.6857   -2.9084    1.3056 H       1  UNL1        0.0239
     54 H          -3.9698   -3.2789   -1.6883 H       1  UNL1        0.0671
     55 H          -3.0137   -0.2604   -2.7773 H       1  UNL1        0.1578
     56 H          -0.6316    0.3036   -2.9348 H       1  UNL1        0.1564
     57 H           1.3977   -1.9484   -2.1202 H       1  UNL1        0.0637
     58 H           3.6748   -1.8876   -1.0668 H       1  UNL1        0.0655
     59 H           5.2373   -1.7558    0.7974 H       1  UNL1        0.0709
     60 H           5.9386   -1.0089   -0.6543 H       1  UNL1        0.0709
     61 H           6.4464   -0.0628    2.2322 H       1  UNL1        0.0460
     62 H           7.5930   -0.9678    1.2346 H       1  UNL1        0.0460
     63 H           8.0437    1.4651    2.4880 H       1  UNL1        0.0449
     64 H           8.5210    2.5547    1.0846 H       1  UNL1        0.0449
     65 H           9.4468   -0.2870    1.7267 H       1  UNL1        0.0572
     66 H          10.3831    1.2559    1.6649 H       1  UNL1        0.0572
     67 H           8.6093   -1.0272   -0.5832 H       1  UNL1        0.0572
     68 H           9.1148   -0.0185   -1.9542 H       1  UNL1        0.0572
     69 H           7.9663    1.9231   -1.0534 H       1  UNL1        0.0449
     70 H           6.8388    0.5911   -1.4480 H       1  UNL1        0.0449
     71 H           3.7395    2.2591    1.1381 H       1  UNL1        0.0625
     72 H           2.1705    4.1285    1.4151 H       1  UNL1        0.0618
     73 H          -0.0705    3.9636    0.3234 H       1  UNL1        0.0618
     74 H          -0.6685    2.0158   -0.9669 H       1  UNL1        0.0624
     75 H          -6.5632    1.3132   -1.0249 H       1  UNL1        0.0639
     76 H          -6.4839    3.7465   -0.5147 H       1  UNL1        0.0621
@<TRIPOS>BOND
     1     1     2    1
     2     2     3   ar
     3     3     4   ar
     4     4     5   ar
     5     5     6    1
     6     6     7   ar
     7     7     8   ar
     8     8     9    1
     9     9    10    1
    10     9    11    1
    11     9    12    1
    12     8    13   ar
    13    13    14   ar
    14    14    15    1
    15    15    16   am
    16    16    17    2
    17    16    18   am
    18    18    19    1
    19    19    20   ar
    20    20    21   ar
    21    21    22   ar
    22    22    23    1
    23    23    24    1
    24    24    25    1
    25    25    26    1
    26    26    27    1
    27    27    28    1
    28    28    29    1
    29    29    30    1
    30    30    31    1
    31    22    32   ar
    32    32    33   ar
    33    33    34   ar
    34    34    35   ar
    35    35    36   ar
    36    36    37   ar
    37     5    38   ar
    38    38    39   ar
    39    39     2   ar
    40    14     6   ar
    41    37    19   ar
    42    31    26    1
    43    37    32   ar
    44     1    40    1
    45     1    41    1
    46     1    42    1
    47     3    43    1
    48     4    44    1
    49    10    45    1
    50    10    46    1
    51    10    47    1
    52    11    48    1
    53    11    49    1
    54    11    50    1
    55    12    51    1
    56    12    52    1
    57    12    53    1
    58    13    54    1
    59    15    55    1
    60    18    56    1
    61    20    57    1
    62    21    58    1
    63    24    59    1
    64    24    60    1
    65    25    61    1
    66    25    62    1
    67    27    63    1
    68    27    64    1
    69    28    65    1
    70    28    66    1
    71    30    67    1
    72    30    68    1
    73    31    69    1
    74    31    70    1
    75    33    71    1
    76    34    72    1
    77    35    73    1
    78    36    74    1
    79    38    75    1
    80    39    76    1
