
     RDKit          3D

 51 54  0  0  0  0  0  0  0  0999 V2000
    1.8432   -0.4453   -2.2126 C   0  0  1  0  0  0  0  0  0  0  0  0
    1.5386    1.2409   -1.5521 S   0  0  0  0  0  0  0  0  0  0  0  0
    3.2936    1.4675   -1.0633 C   0  0  0  0  0  0  0  0  0  0  0  0
    3.8647    2.4919   -2.0195 C   0  0  0  0  0  0  0  0  0  0  0  0
    3.4475    1.9217    0.3486 C   0  0  0  0  0  0  0  0  0  0  0  0
    3.9192    0.1406   -1.3575 C   0  0  1  0  0  0  0  0  0  0  0  0
    2.8870   -0.8577   -1.3347 N   0  0  0  0  0  0  0  0  0  0  0  0
    2.1630   -2.0086   -1.0337 C   0  0  0  0  0  0  0  0  0  0  0  0
    2.3503   -3.1204   -0.4406 O   0  0  0  0  0  0  0  0  0  0  0  0
    0.9328   -1.4958   -1.6969 C   0  0  1  0  0  0  0  0  0  0  0  0
   -0.0192   -1.1036   -0.6961 N   0  0  0  0  0  0  0  0  0  0  0  0
   -1.3774   -1.4770   -0.5127 C   0  0  0  0  0  0  0  0  0  0  0  0
   -1.4702   -2.2480   -1.4961 O   0  0  0  0  0  0  0  0  0  0  0  0
   -2.2551   -1.0163    0.5429 C   0  0  0  0  0  0  0  0  0  0  0  0
   -1.9154   -0.1680    1.5717 C   0  0  0  0  0  0  0  0  0  0  0  0
   -0.6424    0.3143    1.6630 O   0  0  0  0  0  0  0  0  0  0  0  0
   -0.1490    1.1872    2.6348 C   0  0  0  0  0  0  0  0  0  0  0  0
   -0.8228    2.5411    2.6545 C   0  0  0  0  0  0  0  0  0  0  0  0
   -2.8020    0.2218    2.5251 C   0  0  0  0  0  0  0  0  0  0  0  0
   -4.1108   -0.2033    2.5329 C   0  0  0  0  0  0  0  0  0  0  0  0
   -4.4704   -1.0535    1.5102 C   0  0  0  0  0  0  0  0  0  0  0  0
   -5.7856   -1.4619    1.5438 C   0  0  0  0  0  0  0  0  0  0  0  0
   -6.2771   -2.3123    0.5805 C   0  0  0  0  0  0  0  0  0  0  0  0
   -5.4222   -2.7363   -0.4057 C   0  0  0  0  0  0  0  0  0  0  0  0
   -4.1258   -2.2865   -0.3727 C   0  0  0  0  0  0  0  0  0  0  0  0
   -3.5600   -1.4426    0.5477 C   0  0  0  0  0  0  0  0  0  0  0  0
    4.6719    0.0905   -2.6347 C   0  0  0  0  0  0  0  0  0  0  0  0
    5.7435    0.8843   -3.0033 O   0  0  0  0  0  0  0  0  0  0  0  0
    4.4363   -0.7016   -3.5877 O   0  0  0  0  0  0  0  0  0  0  0  0
    2.0364   -0.4730   -3.2994 H   0  0  0  0  0  0  0  0  0  0  0  0
    3.7396    2.0775   -3.0390 H   0  0  0  0  0  0  0  0  0  0  0  0
    4.9218    2.6572   -1.7298 H   0  0  0  0  0  0  0  0  0  0  0  0
    3.3511    3.4753   -1.9236 H   0  0  0  0  0  0  0  0  0  0  0  0
    4.0982    1.1556    0.8592 H   0  0  0  0  0  0  0  0  0  0  0  0
    4.0459    2.8730    0.3652 H   0  0  0  0  0  0  0  0  0  0  0  0
    2.5191    2.1166    0.8877 H   0  0  0  0  0  0  0  0  0  0  0  0
    4.6708   -0.0511   -0.5627 H   0  0  0  0  0  0  0  0  0  0  0  0
    0.5247   -2.1851   -2.4730 H   0  0  0  0  0  0  0  0  0  0  0  0
    0.4399   -0.4331   -0.0426 H   0  0  0  0  0  0  0  0  0  0  0  0
    0.9702    1.3135    2.5541 H   0  0  0  0  0  0  0  0  0  0  0  0
   -0.3955    0.7132    3.6249 H   0  0  0  0  0  0  0  0  0  0  0  0
   -0.0852    3.2982    2.2879 H   0  0  0  0  0  0  0  0  0  0  0  0
   -1.6234    2.5341    1.8897 H   0  0  0  0  0  0  0  0  0  0  0  0
   -1.2181    2.8321    3.6450 H   0  0  0  0  0  0  0  0  0  0  0  0
   -2.5050    0.8774    3.3236 H   0  0  0  0  0  0  0  0  0  0  0  0
   -4.7975    0.1204    3.3018 H   0  0  0  0  0  0  0  0  0  0  0  0
   -6.4843   -1.1375    2.3192 H   0  0  0  0  0  0  0  0  0  0  0  0
   -7.2976   -2.6210    0.6181 H   0  0  0  0  0  0  0  0  0  0  0  0
   -5.8130   -3.4040   -1.1600 H   0  0  0  0  0  0  0  0  0  0  0  0
   -3.5380   -2.6740   -1.1868 H   0  0  0  0  0  0  0  0  0  0  0  0
    6.5534    0.5718   -3.4950 H   0  0  0  0  0  0  0  0  0  0  0  0
  1  2  1  0
  2  3  1  0
  3  4  1  0
  3  5  1  0
  3  6  1  0
  6  7  1  0
  7  8  1  0
  8  9  2  0
  8 10  1  0
 10 11  1  0
 11 12  1  0
 12 13  2  0
 12 14  1  0
 14 15  2  0
 15 16  1  0
 16 17  1  0
 17 18  1  0
 15 19  1  0
 19 20  2  0
 20 21  1  0
 21 22  2  0
 22 23  1  0
 23 24  2  0
 24 25  1  0
 25 26  2  0
  6 27  1  0
 27 28  1  0
 27 29  2  0
  7  1  1  0
 26 14  1  0
 10  1  1  0
 26 21  1  0
  1 30  1  6
  4 31  1  0
  4 32  1  0
  4 33  1  0
  5 34  1  0
  5 35  1  0
  5 36  1  0
  6 37  1  1
 10 38  1  6
 11 39  1  0
 17 40  1  0
 17 41  1  0
 18 42  1  0
 18 43  1  0
 18 44  1  0
 19 45  1  0
 20 46  1  0
 22 47  1  0
 23 48  1  0
 24 49  1  0
 25 50  1  0
 28 51  1  0
M  END
$$$$
