@<TRIPOS>MOLECULE
*****
 59 63 0 0 0
SMALL
GASTEIGER

@<TRIPOS>ATOM
      1 C          -8.7323    1.2095    0.6797 C.3     1  UNL1        0.0788
      2 O          -7.8612    0.5915   -0.2534 O.3     1  UNL1       -0.4951
      3 C          -6.4954    0.5308   -0.0263 C.ar    1  UNL1        0.1207
      4 C          -5.9210    1.0676    1.1152 C.ar    1  UNL1       -0.0194
      5 C          -4.5523    0.9755    1.2847 C.ar    1  UNL1       -0.0506
      6 C          -3.7317    0.3673    0.3577 C.ar    1  UNL1       -0.0170
      7 C          -2.3708    0.2866    0.5464 C.ar    1  UNL1       -0.0448
      8 C          -1.5325   -0.3156   -0.3651 C.ar    1  UNL1        0.0012
      9 C          -0.0965   -0.4069   -0.1819 C.ar    1  UNL1        0.0767
     10 C           0.6093   -1.5638    0.0041 C.ar    1  UNL1        0.0974
     11 C           0.0254   -2.9012    0.0499 C.ar    1  UNL1        0.0053
     12 C           0.3774   -3.8676   -0.8695 C.ar    1  UNL1       -0.0343
     13 C          -0.1602   -5.1412   -0.8497 C.ar    1  UNL1        0.0282
     14 N          -1.0614   -5.4797    0.0880 N.ar    1  UNL1       -0.2632
     15 C          -1.4271   -4.5453    1.0085 C.ar    1  UNL1        0.0282
     16 C          -0.8974   -3.2734    0.9975 C.ar    1  UNL1       -0.0343
     17 N           1.8848   -1.1918    0.1257 N.ar    1  UNL1       -0.2269
     18 C           2.0069    0.1784    0.0205 C.ar    1  UNL1        0.1419
     19 C           3.2796    0.8758    0.1454 C.ar    1  UNL1        0.0204
     20 C           3.4816    2.1759   -0.1933 C.ar    1  UNL1       -0.0497
     21 C           4.7192    2.8252   -0.0224 C.ar    1  UNL1       -0.0453
     22 C           5.7774    2.1250    0.5082 C.ar    1  UNL1        0.0388
     23 S           7.3551    2.8925    0.7436 S.O     1  UNL1        0.0507
     24 C           8.4131    2.7021   -0.6941 C.3     1  UNL1        0.0163
     25 O           7.1423    4.3865    1.0179 O.2     1  UNL1       -0.2524
     26 C           5.6126    0.8038    0.8636 C.ar    1  UNL1       -0.0424
     27 C           4.3899    0.2006    0.6835 C.ar    1  UNL1       -0.0387
     28 C           4.2473   -1.2175    1.0794 C.3     1  UNL1       -0.0390
     29 N           0.7779    0.6567   -0.1688 N.ar    1  UNL1       -0.3262
     30 C           0.3259    2.0231   -0.3194 C.3     1  UNL1        0.0138
     31 C          -2.1266   -0.8474   -1.5016 C.ar    1  UNL1       -0.0520
     32 C          -3.4840   -0.7773   -1.7091 C.ar    1  UNL1       -0.0533
     33 C          -4.3164   -0.1739   -0.7946 C.ar    1  UNL1       -0.0144
     34 C          -5.6897   -0.0815   -0.9648 C.ar    1  UNL1       -0.0122
     35 H          -8.6022    2.2937    0.6032 H       1  UNL1        0.0660
     36 H          -9.7801    0.9080    0.4550 H       1  UNL1        0.0660
     37 H          -8.4490    0.8938    1.7098 H       1  UNL1        0.0660
     38 H          -6.5225    1.5494    1.8620 H       1  UNL1        0.0654
     39 H          -4.0543    1.3836    2.1677 H       1  UNL1        0.0625
     40 H          -1.9521    0.7094    1.4426 H       1  UNL1        0.0630
     41 H           1.0947   -3.6441   -1.6391 H       1  UNL1        0.0639
     42 H           0.1142   -5.9033   -1.5704 H       1  UNL1        0.0830
     43 H          -2.1569   -4.8811    1.7370 H       1  UNL1        0.0830
     44 H          -1.2341   -2.5859    1.7589 H       1  UNL1        0.0639
     45 H           2.6996    2.7671   -0.6309 H       1  UNL1        0.0625
     46 H           4.7903    3.8416   -0.3124 H       1  UNL1        0.0629
     47 H           7.7629    2.4304   -1.5527 H       1  UNL1        0.0368
     48 H           9.1702    1.8970   -0.5093 H       1  UNL1        0.0368
     49 H           8.9328    3.6366   -0.9609 H       1  UNL1        0.0368
     50 H           6.4566    0.2511    1.2853 H       1  UNL1        0.0632
     51 H           5.2078   -1.5252    1.5910 H       1  UNL1        0.0278
     52 H           4.1089   -1.9160    0.2455 H       1  UNL1        0.0278
     53 H           3.4541   -1.2677    1.8564 H       1  UNL1        0.0278
     54 H          -0.7932    2.0502   -0.1556 H       1  UNL1        0.0456
     55 H           0.7542    2.6553    0.4803 H       1  UNL1        0.0456
     56 H           0.5771    2.4163   -1.3015 H       1  UNL1        0.0456
     57 H          -1.4948   -1.3401   -2.2596 H       1  UNL1        0.0624
     58 H          -3.9417   -1.1939   -2.5972 H       1  UNL1        0.0624
     59 H          -6.1119   -0.5166   -1.8797 H       1  UNL1        0.0660
@<TRIPOS>BOND
     1     1     2    1
     2     2     3    1
     3     3     4   ar
     4     4     5   ar
     5     5     6   ar
     6     6     7   ar
     7     7     8   ar
     8     8     9    1
     9     9    10   ar
    10    10    11    1
    11    11    12   ar
    12    12    13   ar
    13    13    14   ar
    14    14    15   ar
    15    15    16   ar
    16    10    17   ar
    17    17    18   ar
    18    18    19    1
    19    19    20   ar
    20    20    21   ar
    21    21    22   ar
    22    22    23    1
    23    23    24    1
    24    23    25    2
    25    22    26   ar
    26    26    27   ar
    27    27    28    1
    28    18    29   ar
    29    29    30    1
    30     8    31   ar
    31    31    32   ar
    32    32    33   ar
    33    33    34   ar
    34    34     3   ar
    35    33     6   ar
    36    29     9   ar
    37    16    11   ar
    38    27    19   ar
    39     1    35    1
    40     1    36    1
    41     1    37    1
    42     4    38    1
    43     5    39    1
    44     7    40    1
    45    12    41    1
    46    13    42    1
    47    15    43    1
    48    16    44    1
    49    20    45    1
    50    21    46    1
    51    24    47    1
    52    24    48    1
    53    24    49    1
    54    26    50    1
    55    28    51    1
    56    28    52    1
    57    28    53    1
    58    30    54    1
    59    30    55    1
    60    30    56    1
    61    31    57    1
    62    32    58    1
    63    34    59    1
