
     RDKit          3D

 59 63  0  0  0  0  0  0  0  0999 V2000
   -8.7323    1.2095    0.6797 C   0  0  0  0  0  0  0  0  0  0  0  0
   -7.8612    0.5915   -0.2534 O   0  0  0  0  0  0  0  0  0  0  0  0
   -6.4954    0.5308   -0.0263 C   0  0  0  0  0  0  0  0  0  0  0  0
   -5.9210    1.0676    1.1152 C   0  0  0  0  0  0  0  0  0  0  0  0
   -4.5523    0.9755    1.2847 C   0  0  0  0  0  0  0  0  0  0  0  0
   -3.7317    0.3673    0.3577 C   0  0  0  0  0  0  0  0  0  0  0  0
   -2.3708    0.2866    0.5464 C   0  0  0  0  0  0  0  0  0  0  0  0
   -1.5325   -0.3156   -0.3651 C   0  0  0  0  0  0  0  0  0  0  0  0
   -0.0965   -0.4069   -0.1819 C   0  0  0  0  0  0  0  0  0  0  0  0
    0.6093   -1.5638    0.0041 C   0  0  0  0  0  0  0  0  0  0  0  0
    0.0254   -2.9012    0.0499 C   0  0  0  0  0  0  0  0  0  0  0  0
    0.3774   -3.8676   -0.8695 C   0  0  0  0  0  0  0  0  0  0  0  0
   -0.1602   -5.1412   -0.8497 C   0  0  0  0  0  0  0  0  0  0  0  0
   -1.0614   -5.4797    0.0880 N   0  0  0  0  0  0  0  0  0  0  0  0
   -1.4271   -4.5453    1.0085 C   0  0  0  0  0  0  0  0  0  0  0  0
   -0.8974   -3.2734    0.9975 C   0  0  0  0  0  0  0  0  0  0  0  0
    1.8848   -1.1918    0.1257 N   0  0  0  0  0  0  0  0  0  0  0  0
    2.0069    0.1784    0.0205 C   0  0  0  0  0  0  0  0  0  0  0  0
    3.2796    0.8758    0.1454 C   0  0  0  0  0  0  0  0  0  0  0  0
    3.4816    2.1759   -0.1933 C   0  0  0  0  0  0  0  0  0  0  0  0
    4.7192    2.8252   -0.0224 C   0  0  0  0  0  0  0  0  0  0  0  0
    5.7774    2.1250    0.5082 C   0  0  0  0  0  0  0  0  0  0  0  0
    7.3551    2.8925    0.7436 S   0  0  0  0  0  4  0  0  0  0  0  0
    8.4131    2.7021   -0.6941 C   0  0  0  0  0  0  0  0  0  0  0  0
    7.1423    4.3865    1.0179 O   0  0  0  0  0  0  0  0  0  0  0  0
    5.6126    0.8038    0.8636 C   0  0  0  0  0  0  0  0  0  0  0  0
    4.3899    0.2006    0.6835 C   0  0  0  0  0  0  0  0  0  0  0  0
    4.2473   -1.2175    1.0794 C   0  0  0  0  0  0  0  0  0  0  0  0
    0.7779    0.6567   -0.1688 N   0  0  0  0  0  0  0  0  0  0  0  0
    0.3259    2.0231   -0.3194 C   0  0  0  0  0  0  0  0  0  0  0  0
   -2.1266   -0.8474   -1.5016 C   0  0  0  0  0  0  0  0  0  0  0  0
   -3.4840   -0.7773   -1.7091 C   0  0  0  0  0  0  0  0  0  0  0  0
   -4.3164   -0.1739   -0.7946 C   0  0  0  0  0  0  0  0  0  0  0  0
   -5.6897   -0.0815   -0.9648 C   0  0  0  0  0  0  0  0  0  0  0  0
   -8.6022    2.2937    0.6032 H   0  0  0  0  0  0  0  0  0  0  0  0
   -9.7801    0.9080    0.4550 H   0  0  0  0  0  0  0  0  0  0  0  0
   -8.4490    0.8938    1.7098 H   0  0  0  0  0  0  0  0  0  0  0  0
   -6.5225    1.5494    1.8620 H   0  0  0  0  0  0  0  0  0  0  0  0
   -4.0543    1.3836    2.1677 H   0  0  0  0  0  0  0  0  0  0  0  0
   -1.9521    0.7094    1.4426 H   0  0  0  0  0  0  0  0  0  0  0  0
    1.0947   -3.6441   -1.6391 H   0  0  0  0  0  0  0  0  0  0  0  0
    0.1142   -5.9033   -1.5704 H   0  0  0  0  0  0  0  0  0  0  0  0
   -2.1569   -4.8811    1.7370 H   0  0  0  0  0  0  0  0  0  0  0  0
   -1.2341   -2.5859    1.7589 H   0  0  0  0  0  0  0  0  0  0  0  0
    2.6996    2.7671   -0.6309 H   0  0  0  0  0  0  0  0  0  0  0  0
    4.7903    3.8416   -0.3124 H   0  0  0  0  0  0  0  0  0  0  0  0
    7.7629    2.4304   -1.5527 H   0  0  0  0  0  0  0  0  0  0  0  0
    9.1702    1.8970   -0.5093 H   0  0  0  0  0  0  0  0  0  0  0  0
    8.9328    3.6366   -0.9609 H   0  0  0  0  0  0  0  0  0  0  0  0
    6.4566    0.2511    1.2853 H   0  0  0  0  0  0  0  0  0  0  0  0
    5.2078   -1.5252    1.5910 H   0  0  0  0  0  0  0  0  0  0  0  0
    4.1089   -1.9160    0.2455 H   0  0  0  0  0  0  0  0  0  0  0  0
    3.4541   -1.2677    1.8564 H   0  0  0  0  0  0  0  0  0  0  0  0
   -0.7932    2.0502   -0.1556 H   0  0  0  0  0  0  0  0  0  0  0  0
    0.7542    2.6553    0.4803 H   0  0  0  0  0  0  0  0  0  0  0  0
    0.5771    2.4163   -1.3015 H   0  0  0  0  0  0  0  0  0  0  0  0
   -1.4948   -1.3401   -2.2596 H   0  0  0  0  0  0  0  0  0  0  0  0
   -3.9417   -1.1939   -2.5972 H   0  0  0  0  0  0  0  0  0  0  0  0
   -6.1119   -0.5166   -1.8797 H   0  0  0  0  0  0  0  0  0  0  0  0
  1  2  1  0
  2  3  1  0
  3  4  2  0
  4  5  1  0
  5  6  2  0
  6  7  1  0
  7  8  2  0
  8  9  1  0
  9 10  2  0
 10 11  1  0
 11 12  2  0
 12 13  1  0
 13 14  2  0
 14 15  1  0
 15 16  2  0
 10 17  1  0
 17 18  2  0
 18 19  1  0
 19 20  2  0
 20 21  1  0
 21 22  2  0
 22 23  1  0
 23 24  1  0
 23 25  2  0
 22 26  1  0
 26 27  2  0
 27 28  1  0
 18 29  1  0
 29 30  1  0
  8 31  1  0
 31 32  2  0
 32 33  1  0
 33 34  2  0
 34  3  1  0
 33  6  1  0
 29  9  1  0
 16 11  1  0
 27 19  1  0
  1 35  1  0
  1 36  1  0
  1 37  1  0
  4 38  1  0
  5 39  1  0
  7 40  1  0
 12 41  1  0
 13 42  1  0
 15 43  1  0
 16 44  1  0
 20 45  1  0
 21 46  1  0
 24 47  1  0
 24 48  1  0
 24 49  1  0
 26 50  1  0
 28 51  1  0
 28 52  1  0
 28 53  1  0
 30 54  1  0
 30 55  1  0
 30 56  1  0
 31 57  1  0
 32 58  1  0
 34 59  1  0
M  END
$$$$
