@<TRIPOS>MOLECULE
*****
 44 46 0 0 0
SMALL
GASTEIGER

@<TRIPOS>ATOM
      1 C           4.8819    0.7299   -0.6917 C.3     1  UNL1       -0.0128
      2 N           4.2429   -0.4932   -0.2821 N.3     1  UNL1       -0.3052
      3 C           3.3827   -1.0788   -1.2717 C.3     1  UNL1        0.0009
      4 C           2.0485   -1.5302   -0.6571 C.3     1  UNL1       -0.0137
      5 C           1.3535   -0.2819   -0.2251 C.3     1  UNL1        0.0622
      6 C           2.2386    0.4226    0.7831 C.3     1  UNL1       -0.0137
      7 C           3.5773   -0.2511    0.9585 C.3     1  UNL1        0.0009
      8 O           0.1218   -0.3730    0.2926 O.3     1  UNL1       -0.3640
      9 C          -0.9339    0.2747   -0.2548 C.3     1  UNL1        0.1090
     10 C          -1.6007    1.1088    0.7765 C.ar    1  UNL1       -0.0145
     11 C          -1.8724    0.7509    2.0736 C.ar    1  UNL1       -0.0558
     12 C          -2.5038    1.6101    2.9482 C.ar    1  UNL1       -0.0614
     13 C          -2.8841    2.8598    2.5492 C.ar    1  UNL1       -0.0617
     14 C          -2.6405    3.2782    1.2633 C.ar    1  UNL1       -0.0614
     15 C          -2.0076    2.3921    0.4178 C.ar    1  UNL1       -0.0558
     16 C          -1.9207   -0.7285   -0.7230 C.ar    1  UNL1       -0.0145
     17 C          -2.5817   -0.6120   -1.9521 C.ar    1  UNL1       -0.0558
     18 C          -3.5046   -1.5061   -2.4522 C.ar    1  UNL1       -0.0614
     19 C          -3.8103   -2.6090   -1.6894 C.ar    1  UNL1       -0.0617
     20 C          -3.2011   -2.7945   -0.4669 C.ar    1  UNL1       -0.0614
     21 C          -2.2964   -1.8643   -0.0388 C.ar    1  UNL1       -0.0558
     22 H           5.9464    0.6948   -0.3233 H       1  UNL1        0.0391
     23 H           4.4568    1.6244   -0.1706 H       1  UNL1        0.0391
     24 H           4.8444    0.8855   -1.7851 H       1  UNL1        0.0391
     25 H           3.8589   -1.8632   -1.8607 H       1  UNL1        0.0427
     26 H           3.0975   -0.2532   -1.9872 H       1  UNL1        0.0427
     27 H           2.3106   -2.2125    0.1593 H       1  UNL1        0.0302
     28 H           1.5531   -2.0303   -1.5184 H       1  UNL1        0.0302
     29 H           1.3110    0.3914   -1.1311 H       1  UNL1        0.0597
     30 H           1.7707    0.4214    1.7886 H       1  UNL1        0.0302
     31 H           2.3508    1.5091    0.5282 H       1  UNL1        0.0302
     32 H           4.2042    0.4522    1.5526 H       1  UNL1        0.0427
     33 H           3.4259   -1.1640    1.5748 H       1  UNL1        0.0427
     34 H          -0.6967    0.8787   -1.1554 H       1  UNL1        0.0697
     35 H          -1.5773   -0.2175    2.3924 H       1  UNL1        0.0621
     36 H          -2.6791    1.2396    3.9614 H       1  UNL1        0.0618
     37 H          -3.3710    3.4834    3.2728 H       1  UNL1        0.0618
     38 H          -2.9314    4.2630    0.9215 H       1  UNL1        0.0618
     39 H          -1.8201    2.7395   -0.6040 H       1  UNL1        0.0621
     40 H          -2.3629    0.2511   -2.5830 H       1  UNL1        0.0621
     41 H          -3.9638   -1.3353   -3.4094 H       1  UNL1        0.0618
     42 H          -4.5236   -3.3332   -2.0377 H       1  UNL1        0.0618
     43 H          -3.4456   -3.6704    0.1359 H       1  UNL1        0.0618
     44 H          -1.8480   -2.0595    0.9205 H       1  UNL1        0.0621
@<TRIPOS>BOND
     1     1     2    1
     2     2     3    1
     3     3     4    1
     4     4     5    1
     5     5     6    1
     6     6     7    1
     7     5     8    1
     8     8     9    1
     9     9    10    1
    10    10    11   ar
    11    11    12   ar
    12    12    13   ar
    13    13    14   ar
    14    14    15   ar
    15     9    16    1
    16    16    17   ar
    17    17    18   ar
    18    18    19   ar
    19    19    20   ar
    20    20    21   ar
    21     7     2    1
    22    15    10   ar
    23    21    16   ar
    24     1    22    1
    25     1    23    1
    26     1    24    1
    27     3    25    1
    28     3    26    1
    29     4    27    1
    30     4    28    1
    31     5    29    1
    32     6    30    1
    33     6    31    1
    34     7    32    1
    35     7    33    1
    36     9    34    1
    37    11    35    1
    38    12    36    1
    39    13    37    1
    40    14    38    1
    41    15    39    1
    42    17    40    1
    43    18    41    1
    44    19    42    1
    45    20    43    1
    46    21    44    1
