
     RDKit          3D

 44 46  0  0  0  0  0  0  0  0999 V2000
    4.8819    0.7299   -0.6917 C   0  0  0  0  0  0  0  0  0  0  0  0
    4.2429   -0.4932   -0.2821 N   0  0  0  0  0  0  0  0  0  0  0  0
    3.3827   -1.0788   -1.2717 C   0  0  0  0  0  0  0  0  0  0  0  0
    2.0485   -1.5302   -0.6571 C   0  0  0  0  0  0  0  0  0  0  0  0
    1.3535   -0.2819   -0.2251 C   0  0  0  0  0  0  0  0  0  0  0  0
    2.2386    0.4226    0.7831 C   0  0  0  0  0  0  0  0  0  0  0  0
    3.5773   -0.2511    0.9585 C   0  0  0  0  0  0  0  0  0  0  0  0
    0.1218   -0.3730    0.2926 O   0  0  0  0  0  0  0  0  0  0  0  0
   -0.9339    0.2747   -0.2548 C   0  0  0  0  0  0  0  0  0  0  0  0
   -1.6007    1.1088    0.7765 C   0  0  0  0  0  0  0  0  0  0  0  0
   -1.8724    0.7509    2.0736 C   0  0  0  0  0  0  0  0  0  0  0  0
   -2.5038    1.6101    2.9482 C   0  0  0  0  0  0  0  0  0  0  0  0
   -2.8841    2.8598    2.5492 C   0  0  0  0  0  0  0  0  0  0  0  0
   -2.6405    3.2782    1.2633 C   0  0  0  0  0  0  0  0  0  0  0  0
   -2.0076    2.3921    0.4178 C   0  0  0  0  0  0  0  0  0  0  0  0
   -1.9207   -0.7285   -0.7230 C   0  0  0  0  0  0  0  0  0  0  0  0
   -2.5817   -0.6120   -1.9521 C   0  0  0  0  0  0  0  0  0  0  0  0
   -3.5046   -1.5061   -2.4522 C   0  0  0  0  0  0  0  0  0  0  0  0
   -3.8103   -2.6090   -1.6894 C   0  0  0  0  0  0  0  0  0  0  0  0
   -3.2011   -2.7945   -0.4669 C   0  0  0  0  0  0  0  0  0  0  0  0
   -2.2964   -1.8643   -0.0388 C   0  0  0  0  0  0  0  0  0  0  0  0
    5.9464    0.6948   -0.3233 H   0  0  0  0  0  0  0  0  0  0  0  0
    4.4568    1.6244   -0.1706 H   0  0  0  0  0  0  0  0  0  0  0  0
    4.8444    0.8855   -1.7851 H   0  0  0  0  0  0  0  0  0  0  0  0
    3.8589   -1.8632   -1.8607 H   0  0  0  0  0  0  0  0  0  0  0  0
    3.0975   -0.2532   -1.9872 H   0  0  0  0  0  0  0  0  0  0  0  0
    2.3106   -2.2125    0.1593 H   0  0  0  0  0  0  0  0  0  0  0  0
    1.5531   -2.0303   -1.5184 H   0  0  0  0  0  0  0  0  0  0  0  0
    1.3110    0.3914   -1.1311 H   0  0  0  0  0  0  0  0  0  0  0  0
    1.7707    0.4214    1.7886 H   0  0  0  0  0  0  0  0  0  0  0  0
    2.3508    1.5091    0.5282 H   0  0  0  0  0  0  0  0  0  0  0  0
    4.2042    0.4522    1.5526 H   0  0  0  0  0  0  0  0  0  0  0  0
    3.4259   -1.1640    1.5748 H   0  0  0  0  0  0  0  0  0  0  0  0
   -0.6967    0.8787   -1.1554 H   0  0  0  0  0  0  0  0  0  0  0  0
   -1.5773   -0.2175    2.3924 H   0  0  0  0  0  0  0  0  0  0  0  0
   -2.6791    1.2396    3.9614 H   0  0  0  0  0  0  0  0  0  0  0  0
   -3.3710    3.4834    3.2728 H   0  0  0  0  0  0  0  0  0  0  0  0
   -2.9314    4.2630    0.9215 H   0  0  0  0  0  0  0  0  0  0  0  0
   -1.8201    2.7395   -0.6040 H   0  0  0  0  0  0  0  0  0  0  0  0
   -2.3629    0.2511   -2.5830 H   0  0  0  0  0  0  0  0  0  0  0  0
   -3.9638   -1.3353   -3.4094 H   0  0  0  0  0  0  0  0  0  0  0  0
   -4.5236   -3.3332   -2.0377 H   0  0  0  0  0  0  0  0  0  0  0  0
   -3.4456   -3.6704    0.1359 H   0  0  0  0  0  0  0  0  0  0  0  0
   -1.8480   -2.0595    0.9205 H   0  0  0  0  0  0  0  0  0  0  0  0
  1  2  1  0
  2  3  1  0
  3  4  1  0
  4  5  1  0
  5  6  1  0
  6  7  1  0
  5  8  1  0
  8  9  1  0
  9 10  1  0
 10 11  2  0
 11 12  1  0
 12 13  2  0
 13 14  1  0
 14 15  2  0
  9 16  1  0
 16 17  2  0
 17 18  1  0
 18 19  2  0
 19 20  1  0
 20 21  2  0
  7  2  1  0
 15 10  1  0
 21 16  1  0
  1 22  1  0
  1 23  1  0
  1 24  1  0
  3 25  1  0
  3 26  1  0
  4 27  1  0
  4 28  1  0
  5 29  1  0
  6 30  1  0
  6 31  1  0
  7 32  1  0
  7 33  1  0
  9 34  1  0
 11 35  1  0
 12 36  1  0
 13 37  1  0
 14 38  1  0
 15 39  1  0
 17 40  1  0
 18 41  1  0
 19 42  1  0
 20 43  1  0
 21 44  1  0
M  END
$$$$
