@<TRIPOS>MOLECULE
*****
 218 228 0 0 0
SMALL
GASTEIGER

@<TRIPOS>ATOM
      1 C          13.0129    3.7268   -0.9772 C.3     0  UNK0       -0.0151
      2 N          12.2049    3.4648   -2.1206 N.3     1  ALA1       -0.3089
      3 CA         12.1617    2.1239   -2.5868 C.3     1  ALA1        0.0817
      4 CB         13.5209    1.5472   -2.8869 C.3     1  ALA1       -0.0412
      5 C          11.3131    1.2869   -1.7418 C.2     1  ALA1        0.2304
      6 O          11.1227    0.0470   -1.9757 O.2     1  ALA1       -0.2741
      7 N          10.6573    1.8370   -0.6128 N.am    2  UNK2       -0.3022
      8 C           9.7766    0.9916    0.2549 C.3     2  UNK2        0.1045
      9 C           8.6665    1.8584    0.6793 C.2     2  UNK2        0.2371
     10 O           8.9968    3.1257    0.6285 O.2     2  UNK2       -0.2735
     11 N           7.3779    1.5189    1.1039 N.am    3  UNK3       -0.2863
     12 C           6.4615    2.5702    1.6153 C.3     3  UNK3        0.0380
     13 C           5.0821    2.2577    1.0945 C.3     3  UNK3        0.0722
     14 C           5.2925    0.8758    0.4961 C.3     3  UNK3       -0.0017
     15 C           6.5704    0.3537    1.1564 C.3     3  UNK3        0.1043
     16 C           7.0306   -0.8849    0.5564 C.2     3  UNK3        0.2342
     17 O           7.4136   -1.7917    1.4038 O.2     3  UNK3       -0.2738
     18 N           7.1670   -1.3645   -0.7568 N.am    4  UNK4       -0.3022
     19 C           6.4258   -2.4410   -1.3675 C.3     4  UNK4        0.1034
     20 C           7.2539   -3.2358   -2.3652 C.3     4  UNK4       -0.0006
     21 C           8.4201   -3.9063   -1.8376 C.ar    4  UNK4       -0.0445
     22 C           9.6373   -3.2893   -1.7425 C.ar    4  UNK4       -0.0579
     23 C          10.7593   -3.9405   -1.2463 C.ar    4  UNK4       -0.0538
     24 C          10.6737   -5.2407   -0.8335 C.ar    4  UNK4       -0.0179
     25 C          11.7982   -5.8889   -0.3393 C.ar    4  UNK4       -0.0540
     26 C          11.6980   -7.2049    0.0740 C.ar    4  UNK4       -0.0612
     27 C          10.4975   -7.8724   -0.0003 C.ar    4  UNK4       -0.0612
     28 C           9.4016   -7.1963   -0.4966 C.ar    4  UNK4       -0.0540
     29 C           9.4382   -5.8967   -0.9208 C.ar    4  UNK4       -0.0176
     30 C           8.3482   -5.2160   -1.4180 C.ar    4  UNK4       -0.0508
     31 C           5.5500   -3.2832   -0.5746 C.2     4  UNK4        0.2343
     32 O           4.9211   -4.1081   -1.3936 O.2     4  UNK4       -0.2738
     33 N           5.1538   -3.5127    0.7234 N.am    5  UNK5       -0.3006
     34 C           5.1138   -4.7929    1.3843 C.3     5  UNK5        0.1242
     35 C           6.3795   -5.3710    1.8108 C.2     5  UNK5        0.3256
     36 O           6.4065   -6.5151    2.3891 O.2     5  UNK5       -0.2489
     37 O           7.5840   -4.7536    1.6312 O.3     5  UNK5       -0.4793
     38 C           4.2928   -5.8512    0.6821 C.3     5  UNK5        0.0012
     39 C           2.8027   -5.6916    0.9729 C.ar    5  UNK5       -0.0449
     40 C           2.1936   -6.3491    2.0074 C.ar    5  UNK5       -0.0550
     41 C           0.7995   -6.1820    2.2386 C.ar    5  UNK5       -0.0197
     42 C           0.0323   -5.3782    1.4606 C.ar    5  UNK5        0.1205
     43 C           0.6490   -4.7288    0.4357 C.ar    5  UNK5       -0.0197
     44 C           2.0410   -4.8743    0.1779 C.ar    5  UNK5       -0.0550
     45 O          -1.3409   -5.2211    1.6965 O.3     5  UNK5       -0.4920
     46 C          -1.9565   -4.2860    2.5460 C.3     5  UNK5        0.0896
     47 C          -3.4114   -4.6940    2.7106 C.3     5  UNK5       -0.0186
     48 C          -3.9142   -5.2532    1.4044 C.3     5  UNK5       -0.0497
     49 C          -4.3147   -4.1492    0.4411 C.3     5  UNK5       -0.0486
     50 C          -5.5245   -3.4083    0.8988 C.3     5  UNK5       -0.0230
     51 C          -5.1367   -1.9592    1.1565 C.3     5  UNK5       -0.0215
     52 C          -6.4024   -1.2212    1.0830 C.3     5  UNK5        0.1025
     53 C          -6.3243    0.1555    0.5579 C.2     5  UNK5        0.2342
     54 O          -6.7093    0.2558   -0.6807 O.2     5  UNK5       -0.2738
     55 N          -5.9403    1.3805    1.0613 N.am    5  UNK5       -0.3022
     56 C          -6.7804    2.6127    1.0051 C.3     5  UNK5        0.1034
     57 C          -7.2848    2.9969    2.3449 C.3     5  UNK5       -0.0006
     58 C          -8.1470    4.1992    2.3472 C.ar    5  UNK5       -0.0445
     59 C          -7.7642    5.4594    2.7222 C.ar    5  UNK5       -0.0579
     60 C          -8.6216    6.5658    2.6764 C.ar    5  UNK5       -0.0538
     61 C          -9.8995    6.4333    2.2496 C.ar    5  UNK5       -0.0179
     62 C         -10.7308    7.5268    2.2088 C.ar    5  UNK5       -0.0540
     63 C         -12.0243    7.4145    1.7783 C.ar    5  UNK5       -0.0612
     64 C         -12.4665    6.1732    1.3885 C.ar    5  UNK5       -0.0612
     65 C         -11.6261    5.0706    1.4296 C.ar    5  UNK5       -0.0540
     66 C         -10.3164    5.1725    1.8633 C.ar    5  UNK5       -0.0176
     67 C          -9.4782    4.0847    1.9063 C.ar    5  UNK5       -0.0508
     68 C          -5.8781    3.6323    0.4559 C.2     5  UNK5        0.2349
     69 O          -5.3339    4.3662    1.3955 O.2     5  UNK5       -0.2737
     70 N          -5.4565    4.0102   -0.8070 N.am    5  UNK5       -0.2967
     71 C          -4.2138    4.8834   -0.9410 C.3     5  UNK5        0.0971
     72 N          -4.1333    5.2980   -2.3062 N.3     5  UNK5       -0.1739
     73 S          -4.4770    6.9744   -2.4641 S.O2    5  UNK5        0.0338
     74 O          -4.8320    7.4972   -1.0715 O.2     5  UNK5       -0.1579
     75 O          -5.7612    7.0660   -3.2628 O.2     5  UNK5       -0.1579
     76 C          -3.1869    7.8959   -3.1855 C.3     5  UNK5        0.0929
     77 C          -2.8066    7.4220   -4.5707 C.3     5  UNK5       -0.0275
     78 C          -1.8567    7.2720   -3.4380 C.3     5  UNK5       -0.0275
     79 C          -3.0703    4.1398   -0.3454 C.3     5  UNK5        0.0056
     80 C          -1.7240    4.5932   -0.8364 C.ar    5  UNK5       -0.0441
     81 C          -0.9871    3.8414   -1.7235 C.ar    5  UNK5       -0.0550
     82 C           0.2794    4.3049   -2.1565 C.ar    5  UNK5       -0.0197
     83 C           0.8263    5.4854   -1.7369 C.ar    5  UNK5        0.1211
     84 C           0.0740    6.2041   -0.8605 C.ar    5  UNK5       -0.0197
     85 C          -1.2083    5.7815   -0.3920 C.ar    5  UNK5       -0.0550
     86 O           2.0356    5.8958   -2.1833 O.3     5  UNK5       -0.4858
     87 C           3.3376    6.0141   -1.8412 C.3     5  UNK5        0.1346
     88 C           3.9845    4.8182   -1.2187 C.ar    5  UNK5        0.1199
     89 C           3.8822    4.2640    0.0317 C.ar    5  UNK5        0.0524
     90 N           4.7065    3.2254    0.0498 N.ar    3  UNK3       -0.2467
     91 N           5.3272    3.1096   -1.1656 N.ar    3  UNK3       -0.0650
     92 N           4.9030    4.0507   -1.9219 N.ar    5  UNK5       -0.1310
     93 N          -7.3095   -2.0281    0.2976 N.am    5  UNK5       -0.2881
     94 C          -8.6789   -1.8386    0.0980 C.2     5  UNK5        0.2370
     95 O          -9.2213   -0.8544    0.7138 O.2     5  UNK5       -0.2735
     96 C          -9.5577   -2.6460   -0.7266 C.3     5  UNK5        0.1045
     97 N         -10.9690   -2.4820   -0.2828 N.am    5  UNK5       -0.3022
     98 C         -11.6945   -3.6020    0.1592 C.2     5  UNK5        0.2304
     99 O         -11.0766   -4.7200    0.1543 O.2     5  UNK5       -0.2741
    100 C         -13.0909   -3.5619    0.6157 C.3     5  UNK5        0.0817
    101 C         -13.3129   -2.5483    1.6936 C.3     5  UNK5       -0.0412
    102 N         -13.4836   -4.9005    1.0196 N.3     5  UNK5       -0.3089
    103 C         -14.8482   -4.9659    1.4823 C.3     5  UNK5       -0.0151
    104 C          -9.6001   -2.2478   -2.1932 C.3     5  UNK5       -0.0108
    105 C         -10.5969   -3.2301   -2.8344 C.3     5  UNK5       -0.0579
    106 C         -10.1632   -0.8522   -2.3640 C.3     5  UNK5       -0.0579
    107 C          -8.2776   -2.4061   -2.8413 C.3     5  UNK5       -0.0579
    108 C          -6.5458   -3.1712   -0.2227 C.3     5  UNK5        0.0184
    109 C          10.6125    0.7605    1.5411 C.3     2  UNK2       -0.0108
    110 C          11.9007    0.0596    1.1397 C.3     2  UNK2       -0.0579
    111 C          10.8963    2.0623    2.2479 C.3     2  UNK2       -0.0579
    112 C           9.9100   -0.1394    2.5083 C.3     2  UNK2       -0.0579
    113 H          13.9766    4.1719   -1.3168 H       0  UNK0        0.0388
    114 H          12.5059    4.5049   -0.3514 H       0  UNK0        0.0388
    115 H          13.1609    2.8491   -0.3408 H       0  UNK0        0.0388
    116 H          11.2808    3.9213   -2.0214 H       1  ALA1        0.1223
    117 HA         11.6451    2.1678   -3.6015 H       1  ALA1        0.0553
    118 HB1        13.4050    0.4638   -3.0404 H       1  ALA1        0.0249
    119 HB2        14.2828    1.8205   -2.1263 H       1  ALA1        0.0249
    120 HB3        13.8572    1.9663   -3.8605 H       1  ALA1        0.0249
    121 H          10.7837    2.8448   -0.3789 H       2  UNK2        0.1495
    122 H           9.5657    0.0339   -0.1586 H       2  UNK2        0.0600
    123 H           6.5151    2.4664    2.7170 H       3  UNK3        0.0486
    124 H           6.7937    3.5747    1.3544 H       3  UNK3        0.0486
    125 H           4.4360    2.1287    1.9397 H       3  UNK3        0.0562
    126 H           4.4503    0.2099    0.7514 H       3  UNK3        0.0309
    127 H           5.4219    0.9596   -0.5935 H       3  UNK3        0.0309
    128 H           6.2497    0.1726    2.2212 H       3  UNK3        0.0597
    129 H           7.8610   -0.9759   -1.4706 H       4  UNK4        0.1495
    130 H           5.7003   -1.8705   -2.0646 H       4  UNK4        0.0598
    131 H           6.5333   -3.9522   -2.8481 H       4  UNK4        0.0336
    132 H           7.4935   -2.5177   -3.2028 H       4  UNK4        0.0336
    133 H           9.7388   -2.2697   -2.0652 H       4  UNK4        0.0620
    134 H          11.6981   -3.4193   -1.1855 H       4  UNK4        0.0624
    135 H          12.7423   -5.3527   -0.2813 H       4  UNK4        0.0624
    136 H          12.5826   -7.7084    0.4586 H       4  UNK4        0.0618
    137 H          10.4756   -8.8989    0.3364 H       4  UNK4        0.0618
    138 H           8.4421   -7.7100   -0.5650 H       4  UNK4        0.0624
    139 H           7.4223   -5.7856   -1.4606 H       4  UNK4        0.0626
    140 H           4.8023   -2.7602    1.4114 H       5  UNK5        0.1496
    141 H           4.5295   -4.6659    2.3782 H       5  UNK5        0.0618
    142 H           8.3184   -4.7497    2.3456 H       5  UNK5        0.2951
    143 H           4.5713   -6.0274   -0.3794 H       5  UNK5        0.0337
    144 H           4.7475   -6.8206    1.0647 H       5  UNK5        0.0337
    145 H           2.5949   -7.0442    2.8115 H       5  UNK5        0.0621
    146 H           0.4713   -6.8170    3.1231 H       5  UNK5        0.0654
    147 H           0.1796   -4.0325   -0.3261 H       5  UNK5        0.0654
    148 H           2.2973   -4.2095   -0.7065 H       5  UNK5        0.0621
    149 H          -1.8438   -3.2697    2.1717 H       5  UNK5        0.0696
    150 H          -1.4924   -4.4041    3.5595 H       5  UNK5        0.0696
    151 H          -3.9941   -3.8678    3.1144 H       5  UNK5        0.0298
    152 H          -3.4470   -5.5112    3.4622 H       5  UNK5        0.0298
    153 H          -4.7663   -5.9298    1.5570 H       5  UNK5        0.0266
    154 H          -3.0737   -5.7912    0.9271 H       5  UNK5        0.0266
    155 H          -4.5109   -4.6296   -0.5408 H       5  UNK5        0.0268
    156 H          -3.4120   -3.5177    0.3018 H       5  UNK5        0.0268
    157 H          -6.0170   -3.8067    1.7989 H       5  UNK5        0.0317
    158 H          -4.4967   -1.6766    0.2661 H       5  UNK5        0.0291
    159 H          -4.5706   -1.8054    2.0870 H       5  UNK5        0.0291
    160 H          -6.8614   -1.2455    2.1264 H       5  UNK5        0.0597
    161 H          -5.0486    1.6300    1.5189 H       5  UNK5        0.1495
    162 H          -7.7066    2.3883    0.4139 H       5  UNK5        0.0598
    163 H          -6.4278    3.2484    3.0385 H       5  UNK5        0.0336
    164 H          -7.7993    2.1518    2.8821 H       5  UNK5        0.0336
    165 H          -6.7919    5.6638    3.0890 H       5  UNK5        0.0620
    166 H          -8.2670    7.5422    2.9852 H       5  UNK5        0.0624
    167 H         -10.3512    8.5064    2.5248 H       5  UNK5        0.0624
    168 H         -12.6257    8.3151    1.7670 H       5  UNK5        0.0618
    169 H         -13.4927    6.0923    1.0530 H       5  UNK5        0.0618
    170 H         -11.9690    4.0940    1.1195 H       5  UNK5        0.0624
    171 H          -9.8342    3.1114    1.5957 H       5  UNK5        0.0626
    172 H          -5.7934    3.8390   -1.7711 H       5  UNK5        0.1503
    173 H          -4.4034    5.7904   -0.3277 H       5  UNK5        0.0686
    174 H          -3.2134    5.0622   -2.6925 H       5  UNK5        0.1497
    175 H          -3.3399    9.0071   -3.1119 H       5  UNK5        0.0551
    176 H          -3.2944    6.5179   -4.9632 H       5  UNK5        0.0285
    177 H          -2.5803    8.1979   -5.2976 H       5  UNK5        0.0285
    178 H          -1.6077    6.2383   -3.1700 H       5  UNK5        0.0285
    179 H          -1.0018    7.9737   -3.3137 H       5  UNK5        0.0285
    180 H          -3.3445    3.0608   -0.4942 H       5  UNK5        0.0345
    181 H          -3.1477    4.0985    0.7995 H       5  UNK5        0.0345
    182 H          -1.2059    2.8547   -2.2366 H       5  UNK5        0.0621
    183 H           0.7382    3.5608   -2.8763 H       5  UNK5        0.0654
    184 H           0.3185    7.2056   -0.3907 H       5  UNK5        0.0654
    185 H          -1.6002    6.5827    0.3158 H       5  UNK5        0.0621
    186 H           3.8735    6.2381   -2.8412 H       5  UNK5        0.0764
    187 H           3.5959    6.9878   -1.3147 H       5  UNK5        0.0764
    188 H           3.1980    4.6419    0.8863 H       5  UNK5        0.0846
    189 H          -9.3045   -3.7090   -0.6590 H       5  UNK5        0.0600
    190 H         -11.3869   -1.5506   -0.3075 H       5  UNK5        0.1495
    191 H         -13.7174   -3.2826   -0.2719 H       5  UNK5        0.0553
    192 H         -14.2624   -2.0159    1.4924 H       5  UNK5        0.0249
    193 H         -12.4977   -1.8071    1.6294 H       5  UNK5        0.0249
    194 H         -13.3840   -3.0299    2.6939 H       5  UNK5        0.0249
    195 H         -13.3927   -5.5366    0.1977 H       5  UNK5        0.1223
    196 H         -15.2075   -3.9828    1.8112 H       5  UNK5        0.0388
    197 H         -14.8488   -5.6489    2.3691 H       5  UNK5        0.0388
    198 H         -15.5100   -5.4309    0.7144 H       5  UNK5        0.0388
    199 H         -10.3139   -4.2315   -2.4400 H       5  UNK5        0.0236
    200 H         -11.5847   -2.9783   -2.4265 H       5  UNK5        0.0236
    201 H         -10.5336   -3.1930   -3.9346 H       5  UNK5        0.0236
    202 H         -11.2731   -0.9483   -2.3995 H       5  UNK5        0.0236
    203 H          -9.8604   -0.4120   -3.3296 H       5  UNK5        0.0236
    204 H          -9.9366   -0.1908   -1.4962 H       5  UNK5        0.0236
    205 H          -8.3721   -2.2258   -3.9532 H       5  UNK5        0.0236
    206 H          -7.8995   -3.4213   -2.6715 H       5  UNK5        0.0236
    207 H          -7.5746   -1.6761   -2.4137 H       5  UNK5        0.0236
    208 H          -7.2280   -4.0271   -0.2515 H       5  UNK5        0.0467
    209 H          -6.0342   -2.9739   -1.1579 H       5  UNK5        0.0467
    210 H          12.5607    0.7035    0.5198 H       2  UNK2        0.0236
    211 H          11.6704   -0.9070    0.6401 H       2  UNK2        0.0236
    212 H          12.5031   -0.2111    2.0324 H       2  UNK2        0.0236
    213 H          11.3174    2.8297    1.5683 H       2  UNK2        0.0236
    214 H          11.5520    1.8946    3.1353 H       2  UNK2        0.0236
    215 H           9.9716    2.5107    2.6717 H       2  UNK2        0.0236
    216 H          10.4568   -0.1703    3.4809 H       2  UNK2        0.0236
    217 H           9.9721   -1.2005    2.1143 H       2  UNK2        0.0236
    218 H           8.8849    0.1421    2.7661 H       2  UNK2        0.0236
@<TRIPOS>BOND
     1     1     2    1
     2     2     3    1
     3     3     4    1
     4     3     5    1
     5     5     6    2
     6     5     7   am
     7     7     8    1
     8     8     9    1
     9     9    10    2
    10     9    11   am
    11    11    12    1
    12    12    13    1
    13    13    14    1
    14    14    15    1
    15    15    16    1
    16    16    17    2
    17    16    18   am
    18    18    19    1
    19    19    20    1
    20    20    21    1
    21    21    22   ar
    22    22    23   ar
    23    23    24   ar
    24    24    25   ar
    25    25    26   ar
    26    26    27   ar
    27    27    28   ar
    28    28    29   ar
    29    29    30   ar
    30    19    31    1
    31    31    32    2
    32    31    33   am
    33    33    34    1
    34    34    35    1
    35    35    36    2
    36    35    37    1
    37    34    38    1
    38    38    39    1
    39    39    40   ar
    40    40    41   ar
    41    41    42   ar
    42    42    43   ar
    43    43    44   ar
    44    42    45    1
    45    45    46    1
    46    46    47    1
    47    47    48    1
    48    48    49    1
    49    49    50    1
    50    50    51    1
    51    51    52    1
    52    52    53    1
    53    53    54    2
    54    53    55   am
    55    55    56    1
    56    56    57    1
    57    57    58    1
    58    58    59   ar
    59    59    60   ar
    60    60    61   ar
    61    61    62   ar
    62    62    63   ar
    63    63    64   ar
    64    64    65   ar
    65    65    66   ar
    66    66    67   ar
    67    56    68    1
    68    68    69    2
    69    68    70   am
    70    70    71    1
    71    71    72    1
    72    72    73    1
    73    73    74    2
    74    73    75    2
    75    73    76    1
    76    76    77    1
    77    77    78    1
    78    71    79    1
    79    79    80    1
    80    80    81   ar
    81    81    82   ar
    82    82    83   ar
    83    83    84   ar
    84    84    85   ar
    85    83    86    1
    86    86    87    1
    87    87    88    1
    88    88    89   ar
    89    89    90   ar
    90    90    91   ar
    91    91    92   ar
    92    52    93    1
    93    93    94   am
    94    94    95    2
    95    94    96    1
    96    96    97    1
    97    97    98   am
    98    98    99    2
    99    98   100    1
   100   100   101    1
   101   100   102    1
   102   102   103    1
   103    96   104    1
   104   104   105    1
   105   104   106    1
   106   104   107    1
   107    93   108    1
   108     8   109    1
   109   109   110    1
   110   109   111    1
   111   109   112    1
   112    15    11    1
   113    30    21   ar
   114    44    39   ar
   115   108    50    1
   116    90    13    1
   117    29    24   ar
   118    67    58   ar
   119    78    76    1
   120    85    80   ar
   121    92    88   ar
   122    66    61   ar
   123     1   113    1
   124     1   114    1
   125     1   115    1
   126     2   116    1
   127     3   117    1
   128     4   118    1
   129     4   119    1
   130     4   120    1
   131     7   121    1
   132     8   122    1
   133    12   123    1
   134    12   124    1
   135    13   125    1
   136    14   126    1
   137    14   127    1
   138    15   128    1
   139    18   129    1
   140    19   130    1
   141    20   131    1
   142    20   132    1
   143    22   133    1
   144    23   134    1
   145    25   135    1
   146    26   136    1
   147    27   137    1
   148    28   138    1
   149    30   139    1
   150    33   140    1
   151    34   141    1
   152    37   142    1
   153    38   143    1
   154    38   144    1
   155    40   145    1
   156    41   146    1
   157    43   147    1
   158    44   148    1
   159    46   149    1
   160    46   150    1
   161    47   151    1
   162    47   152    1
   163    48   153    1
   164    48   154    1
   165    49   155    1
   166    49   156    1
   167    50   157    1
   168    51   158    1
   169    51   159    1
   170    52   160    1
   171    55   161    1
   172    56   162    1
   173    57   163    1
   174    57   164    1
   175    59   165    1
   176    60   166    1
   177    62   167    1
   178    63   168    1
   179    64   169    1
   180    65   170    1
   181    67   171    1
   182    70   172    1
   183    71   173    1
   184    72   174    1
   185    76   175    1
   186    77   176    1
   187    77   177    1
   188    78   178    1
   189    78   179    1
   190    79   180    1
   191    79   181    1
   192    81   182    1
   193    82   183    1
   194    84   184    1
   195    85   185    1
   196    87   186    1
   197    87   187    1
   198    89   188    1
   199    96   189    1
   200    97   190    1
   201   100   191    1
   202   101   192    1
   203   101   193    1
   204   101   194    1
   205   102   195    1
   206   103   196    1
   207   103   197    1
   208   103   198    1
   209   105   199    1
   210   105   200    1
   211   105   201    1
   212   106   202    1
   213   106   203    1
   214   106   204    1
   215   107   205    1
   216   107   206    1
   217   107   207    1
   218   108   208    1
   219   108   209    1
   220   110   210    1
   221   110   211    1
   222   110   212    1
   223   111   213    1
   224   111   214    1
   225   111   215    1
   226   112   216    1
   227   112   217    1
   228   112   218    1
