
     RDKit          3D

218228  0  0  0  0  0  0  0  0999 V2000
   13.0129    3.7268   -0.9772 C   0  0  0  0  0  0  0  0  0  0  0  0
   12.2049    3.4648   -2.1206 N   0  0  0  0  0  0  0  0  0  0  0  0
   12.1617    2.1239   -2.5868 C   0  0  1  0  0  0  0  0  0  0  0  0
   13.5209    1.5472   -2.8869 C   0  0  0  0  0  0  0  0  0  0  0  0
   11.3131    1.2869   -1.7418 C   0  0  0  0  0  0  0  0  0  0  0  0
   11.1227    0.0470   -1.9757 O   0  0  0  0  0  0  0  0  0  0  0  0
   10.6573    1.8370   -0.6128 N   0  0  0  0  0  0  0  0  0  0  0  0
    9.7766    0.9916    0.2549 C   0  0  2  0  0  0  0  0  0  0  0  0
    8.6665    1.8584    0.6793 C   0  0  0  0  0  0  0  0  0  0  0  0
    8.9968    3.1257    0.6285 O   0  0  0  0  0  0  0  0  0  0  0  0
    7.3779    1.5189    1.1039 N   0  0  0  0  0  0  0  0  0  0  0  0
    6.4615    2.5702    1.6153 C   0  0  0  0  0  0  0  0  0  0  0  0
    5.0821    2.2577    1.0945 C   0  0  2  0  0  0  0  0  0  0  0  0
    5.2925    0.8758    0.4961 C   0  0  0  0  0  0  0  0  0  0  0  0
    6.5704    0.3537    1.1564 C   0  0  1  0  0  0  0  0  0  0  0  0
    7.0306   -0.8849    0.5564 C   0  0  0  0  0  0  0  0  0  0  0  0
    7.4136   -1.7917    1.4038 O   0  0  0  0  0  0  0  0  0  0  0  0
    7.1670   -1.3645   -0.7568 N   0  0  0  0  0  0  0  0  0  0  0  0
    6.4258   -2.4410   -1.3675 C   0  0  1  0  0  0  0  0  0  0  0  0
    7.2539   -3.2358   -2.3652 C   0  0  0  0  0  0  0  0  0  0  0  0
    8.4201   -3.9063   -1.8376 C   0  0  0  0  0  0  0  0  0  0  0  0
    9.6373   -3.2893   -1.7425 C   0  0  0  0  0  0  0  0  0  0  0  0
   10.7593   -3.9405   -1.2463 C   0  0  0  0  0  0  0  0  0  0  0  0
   10.6737   -5.2407   -0.8335 C   0  0  0  0  0  0  0  0  0  0  0  0
   11.7982   -5.8889   -0.3393 C   0  0  0  0  0  0  0  0  0  0  0  0
   11.6980   -7.2049    0.0740 C   0  0  0  0  0  0  0  0  0  0  0  0
   10.4975   -7.8724   -0.0003 C   0  0  0  0  0  0  0  0  0  0  0  0
    9.4016   -7.1963   -0.4966 C   0  0  0  0  0  0  0  0  0  0  0  0
    9.4382   -5.8967   -0.9208 C   0  0  0  0  0  0  0  0  0  0  0  0
    8.3482   -5.2160   -1.4180 C   0  0  0  0  0  0  0  0  0  0  0  0
    5.5500   -3.2832   -0.5746 C   0  0  0  0  0  0  0  0  0  0  0  0
    4.9211   -4.1081   -1.3936 O   0  0  0  0  0  0  0  0  0  0  0  0
    5.1538   -3.5127    0.7234 N   0  0  0  0  0  0  0  0  0  0  0  0
    5.1138   -4.7929    1.3843 C   0  0  2  0  0  0  0  0  0  0  0  0
    6.3795   -5.3710    1.8108 C   0  0  0  0  0  0  0  0  0  0  0  0
    6.4065   -6.5151    2.3891 O   0  0  0  0  0  0  0  0  0  0  0  0
    7.5840   -4.7536    1.6312 O   0  0  0  0  0  0  0  0  0  0  0  0
    4.2928   -5.8512    0.6821 C   0  0  0  0  0  0  0  0  0  0  0  0
    2.8027   -5.6916    0.9729 C   0  0  0  0  0  0  0  0  0  0  0  0
    2.1936   -6.3491    2.0074 C   0  0  0  0  0  0  0  0  0  0  0  0
    0.7995   -6.1820    2.2386 C   0  0  0  0  0  0  0  0  0  0  0  0
    0.0323   -5.3782    1.4606 C   0  0  0  0  0  0  0  0  0  0  0  0
    0.6490   -4.7288    0.4357 C   0  0  0  0  0  0  0  0  0  0  0  0
    2.0410   -4.8743    0.1779 C   0  0  0  0  0  0  0  0  0  0  0  0
   -1.3409   -5.2211    1.6965 O   0  0  0  0  0  0  0  0  0  0  0  0
   -1.9565   -4.2860    2.5460 C   0  0  0  0  0  0  0  0  0  0  0  0
   -3.4114   -4.6940    2.7106 C   0  0  0  0  0  0  0  0  0  0  0  0
   -3.9142   -5.2532    1.4044 C   0  0  0  0  0  0  0  0  0  0  0  0
   -4.3147   -4.1492    0.4411 C   0  0  0  0  0  0  0  0  0  0  0  0
   -5.5245   -3.4083    0.8988 C   0  0  1  0  0  0  0  0  0  0  0  0
   -5.1367   -1.9592    1.1565 C   0  0  0  0  0  0  0  0  0  0  0  0
   -6.4024   -1.2212    1.0830 C   0  0  1  0  0  0  0  0  0  0  0  0
   -6.3243    0.1555    0.5579 C   0  0  0  0  0  0  0  0  0  0  0  0
   -6.7093    0.2558   -0.6807 O   0  0  0  0  0  0  0  0  0  0  0  0
   -5.9403    1.3805    1.0613 N   0  0  0  0  0  0  0  0  0  0  0  0
   -6.7804    2.6127    1.0051 C   0  0  1  0  0  0  0  0  0  0  0  0
   -7.2848    2.9969    2.3449 C   0  0  0  0  0  0  0  0  0  0  0  0
   -8.1470    4.1992    2.3472 C   0  0  0  0  0  0  0  0  0  0  0  0
   -7.7642    5.4594    2.7222 C   0  0  0  0  0  0  0  0  0  0  0  0
   -8.6216    6.5658    2.6764 C   0  0  0  0  0  0  0  0  0  0  0  0
   -9.8995    6.4333    2.2496 C   0  0  0  0  0  0  0  0  0  0  0  0
  -10.7308    7.5268    2.2088 C   0  0  0  0  0  0  0  0  0  0  0  0
  -12.0243    7.4145    1.7783 C   0  0  0  0  0  0  0  0  0  0  0  0
  -12.4665    6.1732    1.3885 C   0  0  0  0  0  0  0  0  0  0  0  0
  -11.6261    5.0706    1.4296 C   0  0  0  0  0  0  0  0  0  0  0  0
  -10.3164    5.1725    1.8633 C   0  0  0  0  0  0  0  0  0  0  0  0
   -9.4782    4.0847    1.9063 C   0  0  0  0  0  0  0  0  0  0  0  0
   -5.8781    3.6323    0.4559 C   0  0  0  0  0  0  0  0  0  0  0  0
   -5.3339    4.3662    1.3955 O   0  0  0  0  0  0  0  0  0  0  0  0
   -5.4565    4.0102   -0.8070 N   0  0  0  0  0  0  0  0  0  0  0  0
   -4.2138    4.8834   -0.9410 C   0  0  2  0  0  0  0  0  0  0  0  0
   -4.1333    5.2980   -2.3062 N   0  0  0  0  0  0  0  0  0  0  0  0
   -4.4770    6.9744   -2.4641 S   0  0  0  0  0  6  0  0  0  0  0  0
   -4.8320    7.4972   -1.0715 O   0  0  0  0  0  0  0  0  0  0  0  0
   -5.7612    7.0660   -3.2628 O   0  0  0  0  0  0  0  0  0  0  0  0
   -3.1869    7.8959   -3.1855 C   0  0  0  0  0  0  0  0  0  0  0  0
   -2.8066    7.4220   -4.5707 C   0  0  0  0  0  0  0  0  0  0  0  0
   -1.8567    7.2720   -3.4380 C   0  0  0  0  0  0  0  0  0  0  0  0
   -3.0703    4.1398   -0.3454 C   0  0  0  0  0  0  0  0  0  0  0  0
   -1.7240    4.5932   -0.8364 C   0  0  0  0  0  0  0  0  0  0  0  0
   -0.9871    3.8414   -1.7235 C   0  0  0  0  0  0  0  0  0  0  0  0
    0.2794    4.3049   -2.1565 C   0  0  0  0  0  0  0  0  0  0  0  0
    0.8263    5.4854   -1.7369 C   0  0  0  0  0  0  0  0  0  0  0  0
    0.0740    6.2041   -0.8605 C   0  0  0  0  0  0  0  0  0  0  0  0
   -1.2083    5.7815   -0.3920 C   0  0  0  0  0  0  0  0  0  0  0  0
    2.0356    5.8958   -2.1833 O   0  0  0  0  0  0  0  0  0  0  0  0
    3.3376    6.0141   -1.8412 C   0  0  0  0  0  0  0  0  0  0  0  0
    3.9845    4.8182   -1.2187 C   0  0  0  0  0  0  0  0  0  0  0  0
    3.8822    4.2640    0.0317 C   0  0  0  0  0  0  0  0  0  0  0  0
    4.7065    3.2254    0.0498 N   0  0  0  0  0  0  0  0  0  0  0  0
    5.3272    3.1096   -1.1656 N   0  0  0  0  0  0  0  0  0  0  0  0
    4.9030    4.0507   -1.9219 N   0  0  0  0  0  0  0  0  0  0  0  0
   -7.3095   -2.0281    0.2976 N   0  0  0  0  0  0  0  0  0  0  0  0
   -8.6789   -1.8386    0.0980 C   0  0  0  0  0  0  0  0  0  0  0  0
   -9.2213   -0.8544    0.7138 O   0  0  0  0  0  0  0  0  0  0  0  0
   -9.5577   -2.6460   -0.7266 C   0  0  1  0  0  0  0  0  0  0  0  0
  -10.9690   -2.4820   -0.2828 N   0  0  0  0  0  0  0  0  0  0  0  0
  -11.6945   -3.6020    0.1592 C   0  0  0  0  0  0  0  0  0  0  0  0
  -11.0766   -4.7200    0.1543 O   0  0  0  0  0  0  0  0  0  0  0  0
  -13.0909   -3.5619    0.6157 C   0  0  2  0  0  0  0  0  0  0  0  0
  -13.3129   -2.5483    1.6936 C   0  0  0  0  0  0  0  0  0  0  0  0
  -13.4836   -4.9005    1.0196 N   0  0  0  0  0  0  0  0  0  0  0  0
  -14.8482   -4.9659    1.4823 C   0  0  0  0  0  0  0  0  0  0  0  0
   -9.6001   -2.2478   -2.1932 C   0  0  0  0  0  0  0  0  0  0  0  0
  -10.5969   -3.2301   -2.8344 C   0  0  0  0  0  0  0  0  0  0  0  0
  -10.1632   -0.8522   -2.3640 C   0  0  0  0  0  0  0  0  0  0  0  0
   -8.2776   -2.4061   -2.8413 C   0  0  0  0  0  0  0  0  0  0  0  0
   -6.5458   -3.1712   -0.2227 C   0  0  0  0  0  0  0  0  0  0  0  0
   10.6125    0.7605    1.5411 C   0  0  0  0  0  0  0  0  0  0  0  0
   11.9007    0.0596    1.1397 C   0  0  0  0  0  0  0  0  0  0  0  0
   10.8963    2.0623    2.2479 C   0  0  0  0  0  0  0  0  0  0  0  0
    9.9100   -0.1394    2.5083 C   0  0  0  0  0  0  0  0  0  0  0  0
   13.9766    4.1719   -1.3168 H   0  0  0  0  0  0  0  0  0  0  0  0
   12.5059    4.5049   -0.3514 H   0  0  0  0  0  0  0  0  0  0  0  0
   13.1609    2.8491   -0.3408 H   0  0  0  0  0  0  0  0  0  0  0  0
   11.2808    3.9213   -2.0214 H   0  0  0  0  0  0  0  0  0  0  0  0
   11.6451    2.1678   -3.6015 H   0  0  0  0  0  0  0  0  0  0  0  0
   13.4050    0.4638   -3.0404 H   0  0  0  0  0  0  0  0  0  0  0  0
   14.2828    1.8205   -2.1263 H   0  0  0  0  0  0  0  0  0  0  0  0
   13.8572    1.9663   -3.8605 H   0  0  0  0  0  0  0  0  0  0  0  0
   10.7837    2.8448   -0.3789 H   0  0  0  0  0  0  0  0  0  0  0  0
    9.5657    0.0339   -0.1586 H   0  0  0  0  0  0  0  0  0  0  0  0
    6.5151    2.4664    2.7170 H   0  0  0  0  0  0  0  0  0  0  0  0
    6.7937    3.5747    1.3544 H   0  0  0  0  0  0  0  0  0  0  0  0
    4.4360    2.1287    1.9397 H   0  0  0  0  0  0  0  0  0  0  0  0
    4.4503    0.2099    0.7514 H   0  0  0  0  0  0  0  0  0  0  0  0
    5.4219    0.9596   -0.5935 H   0  0  0  0  0  0  0  0  0  0  0  0
    6.2497    0.1726    2.2212 H   0  0  0  0  0  0  0  0  0  0  0  0
    7.8610   -0.9759   -1.4706 H   0  0  0  0  0  0  0  0  0  0  0  0
    5.7003   -1.8705   -2.0646 H   0  0  0  0  0  0  0  0  0  0  0  0
    6.5333   -3.9522   -2.8481 H   0  0  0  0  0  0  0  0  0  0  0  0
    7.4935   -2.5177   -3.2028 H   0  0  0  0  0  0  0  0  0  0  0  0
    9.7388   -2.2697   -2.0652 H   0  0  0  0  0  0  0  0  0  0  0  0
   11.6981   -3.4193   -1.1855 H   0  0  0  0  0  0  0  0  0  0  0  0
   12.7423   -5.3527   -0.2813 H   0  0  0  0  0  0  0  0  0  0  0  0
   12.5826   -7.7084    0.4586 H   0  0  0  0  0  0  0  0  0  0  0  0
   10.4756   -8.8989    0.3364 H   0  0  0  0  0  0  0  0  0  0  0  0
    8.4421   -7.7100   -0.5650 H   0  0  0  0  0  0  0  0  0  0  0  0
    7.4223   -5.7856   -1.4606 H   0  0  0  0  0  0  0  0  0  0  0  0
    4.8023   -2.7602    1.4114 H   0  0  0  0  0  0  0  0  0  0  0  0
    4.5295   -4.6659    2.3782 H   0  0  0  0  0  0  0  0  0  0  0  0
    8.3184   -4.7497    2.3456 H   0  0  0  0  0  0  0  0  0  0  0  0
    4.5713   -6.0274   -0.3794 H   0  0  0  0  0  0  0  0  0  0  0  0
    4.7475   -6.8206    1.0647 H   0  0  0  0  0  0  0  0  0  0  0  0
    2.5949   -7.0442    2.8115 H   0  0  0  0  0  0  0  0  0  0  0  0
    0.4713   -6.8170    3.1231 H   0  0  0  0  0  0  0  0  0  0  0  0
    0.1796   -4.0325   -0.3261 H   0  0  0  0  0  0  0  0  0  0  0  0
    2.2973   -4.2095   -0.7065 H   0  0  0  0  0  0  0  0  0  0  0  0
   -1.8438   -3.2697    2.1717 H   0  0  0  0  0  0  0  0  0  0  0  0
   -1.4924   -4.4041    3.5595 H   0  0  0  0  0  0  0  0  0  0  0  0
   -3.9941   -3.8678    3.1144 H   0  0  0  0  0  0  0  0  0  0  0  0
   -3.4470   -5.5112    3.4622 H   0  0  0  0  0  0  0  0  0  0  0  0
   -4.7663   -5.9298    1.5570 H   0  0  0  0  0  0  0  0  0  0  0  0
   -3.0737   -5.7912    0.9271 H   0  0  0  0  0  0  0  0  0  0  0  0
   -4.5109   -4.6296   -0.5408 H   0  0  0  0  0  0  0  0  0  0  0  0
   -3.4120   -3.5177    0.3018 H   0  0  0  0  0  0  0  0  0  0  0  0
   -6.0170   -3.8067    1.7989 H   0  0  0  0  0  0  0  0  0  0  0  0
   -4.4967   -1.6766    0.2661 H   0  0  0  0  0  0  0  0  0  0  0  0
   -4.5706   -1.8054    2.0870 H   0  0  0  0  0  0  0  0  0  0  0  0
   -6.8614   -1.2455    2.1264 H   0  0  0  0  0  0  0  0  0  0  0  0
   -5.0486    1.6300    1.5189 H   0  0  0  0  0  0  0  0  0  0  0  0
   -7.7066    2.3883    0.4139 H   0  0  0  0  0  0  0  0  0  0  0  0
   -6.4278    3.2484    3.0385 H   0  0  0  0  0  0  0  0  0  0  0  0
   -7.7993    2.1518    2.8821 H   0  0  0  0  0  0  0  0  0  0  0  0
   -6.7919    5.6638    3.0890 H   0  0  0  0  0  0  0  0  0  0  0  0
   -8.2670    7.5422    2.9852 H   0  0  0  0  0  0  0  0  0  0  0  0
  -10.3512    8.5064    2.5248 H   0  0  0  0  0  0  0  0  0  0  0  0
  -12.6257    8.3151    1.7670 H   0  0  0  0  0  0  0  0  0  0  0  0
  -13.4927    6.0923    1.0530 H   0  0  0  0  0  0  0  0  0  0  0  0
  -11.9690    4.0940    1.1195 H   0  0  0  0  0  0  0  0  0  0  0  0
   -9.8342    3.1114    1.5957 H   0  0  0  0  0  0  0  0  0  0  0  0
   -5.7934    3.8390   -1.7711 H   0  0  0  0  0  0  0  0  0  0  0  0
   -4.4034    5.7904   -0.3277 H   0  0  0  0  0  0  0  0  0  0  0  0
   -3.2134    5.0622   -2.6925 H   0  0  0  0  0  0  0  0  0  0  0  0
   -3.3399    9.0071   -3.1119 H   0  0  0  0  0  0  0  0  0  0  0  0
   -3.2944    6.5179   -4.9632 H   0  0  0  0  0  0  0  0  0  0  0  0
   -2.5803    8.1979   -5.2976 H   0  0  0  0  0  0  0  0  0  0  0  0
   -1.6077    6.2383   -3.1700 H   0  0  0  0  0  0  0  0  0  0  0  0
   -1.0018    7.9737   -3.3137 H   0  0  0  0  0  0  0  0  0  0  0  0
   -3.3445    3.0608   -0.4942 H   0  0  0  0  0  0  0  0  0  0  0  0
   -3.1477    4.0985    0.7995 H   0  0  0  0  0  0  0  0  0  0  0  0
   -1.2059    2.8547   -2.2366 H   0  0  0  0  0  0  0  0  0  0  0  0
    0.7382    3.5608   -2.8763 H   0  0  0  0  0  0  0  0  0  0  0  0
    0.3185    7.2056   -0.3907 H   0  0  0  0  0  0  0  0  0  0  0  0
   -1.6002    6.5827    0.3158 H   0  0  0  0  0  0  0  0  0  0  0  0
    3.8735    6.2381   -2.8412 H   0  0  0  0  0  0  0  0  0  0  0  0
    3.5959    6.9878   -1.3147 H   0  0  0  0  0  0  0  0  0  0  0  0
    3.1980    4.6419    0.8863 H   0  0  0  0  0  0  0  0  0  0  0  0
   -9.3045   -3.7090   -0.6590 H   0  0  0  0  0  0  0  0  0  0  0  0
  -11.3869   -1.5506   -0.3075 H   0  0  0  0  0  0  0  0  0  0  0  0
  -13.7174   -3.2826   -0.2719 H   0  0  0  0  0  0  0  0  0  0  0  0
  -14.2624   -2.0159    1.4924 H   0  0  0  0  0  0  0  0  0  0  0  0
  -12.4977   -1.8071    1.6294 H   0  0  0  0  0  0  0  0  0  0  0  0
  -13.3840   -3.0299    2.6939 H   0  0  0  0  0  0  0  0  0  0  0  0
  -13.3927   -5.5366    0.1977 H   0  0  0  0  0  0  0  0  0  0  0  0
  -15.2075   -3.9828    1.8112 H   0  0  0  0  0  0  0  0  0  0  0  0
  -14.8488   -5.6489    2.3691 H   0  0  0  0  0  0  0  0  0  0  0  0
  -15.5100   -5.4309    0.7144 H   0  0  0  0  0  0  0  0  0  0  0  0
  -10.3139   -4.2315   -2.4400 H   0  0  0  0  0  0  0  0  0  0  0  0
  -11.5847   -2.9783   -2.4265 H   0  0  0  0  0  0  0  0  0  0  0  0
  -10.5336   -3.1930   -3.9346 H   0  0  0  0  0  0  0  0  0  0  0  0
  -11.2731   -0.9483   -2.3995 H   0  0  0  0  0  0  0  0  0  0  0  0
   -9.8604   -0.4120   -3.3296 H   0  0  0  0  0  0  0  0  0  0  0  0
   -9.9366   -0.1908   -1.4962 H   0  0  0  0  0  0  0  0  0  0  0  0
   -8.3721   -2.2258   -3.9532 H   0  0  0  0  0  0  0  0  0  0  0  0
   -7.8995   -3.4213   -2.6715 H   0  0  0  0  0  0  0  0  0  0  0  0
   -7.5746   -1.6761   -2.4137 H   0  0  0  0  0  0  0  0  0  0  0  0
   -7.2280   -4.0271   -0.2515 H   0  0  0  0  0  0  0  0  0  0  0  0
   -6.0342   -2.9739   -1.1579 H   0  0  0  0  0  0  0  0  0  0  0  0
   12.5607    0.7035    0.5198 H   0  0  0  0  0  0  0  0  0  0  0  0
   11.6704   -0.9070    0.6401 H   0  0  0  0  0  0  0  0  0  0  0  0
   12.5031   -0.2111    2.0324 H   0  0  0  0  0  0  0  0  0  0  0  0
   11.3174    2.8297    1.5683 H   0  0  0  0  0  0  0  0  0  0  0  0
   11.5520    1.8946    3.1353 H   0  0  0  0  0  0  0  0  0  0  0  0
    9.9716    2.5107    2.6717 H   0  0  0  0  0  0  0  0  0  0  0  0
   10.4568   -0.1703    3.4809 H   0  0  0  0  0  0  0  0  0  0  0  0
    9.9721   -1.2005    2.1143 H   0  0  0  0  0  0  0  0  0  0  0  0
    8.8849    0.1421    2.7661 H   0  0  0  0  0  0  0  0  0  0  0  0
  1  2  1  0
  2  3  1  0
  3  4  1  0
  3  5  1  0
  5  6  2  0
  5  7  1  0
  7  8  1  0
  8  9  1  0
  9 10  2  0
  9 11  1  0
 11 12  1  0
 12 13  1  0
 13 14  1  0
 14 15  1  0
 15 16  1  0
 16 17  2  0
 16 18  1  0
 18 19  1  0
 19 20  1  0
 20 21  1  0
 21 22  2  0
 22 23  1  0
 23 24  2  0
 24 25  1  0
 25 26  2  0
 26 27  1  0
 27 28  2  0
 28 29  1  0
 29 30  2  0
 19 31  1  0
 31 32  2  0
 31 33  1  0
 33 34  1  0
 34 35  1  0
 35 36  2  0
 35 37  1  0
 34 38  1  0
 38 39  1  0
 39 40  2  0
 40 41  1  0
 41 42  2  0
 42 43  1  0
 43 44  2  0
 42 45  1  0
 45 46  1  0
 46 47  1  0
 47 48  1  0
 48 49  1  0
 49 50  1  0
 50 51  1  0
 51 52  1  0
 52 53  1  0
 53 54  2  0
 53 55  1  0
 55 56  1  0
 56 57  1  0
 57 58  1  0
 58 59  2  0
 59 60  1  0
 60 61  2  0
 61 62  1  0
 62 63  2  0
 63 64  1  0
 64 65  2  0
 65 66  1  0
 66 67  2  0
 56 68  1  0
 68 69  2  0
 68 70  1  0
 70 71  1  0
 71 72  1  0
 72 73  1  0
 73 74  2  0
 73 75  2  0
 73 76  1  0
 76 77  1  0
 77 78  1  0
 71 79  1  0
 79 80  1  0
 80 81  2  0
 81 82  1  0
 82 83  2  0
 83 84  1  0
 84 85  2  0
 83 86  1  0
 86 87  1  0
 87 88  1  0
 88 89  2  0
 89 90  1  0
 90 91  1  0
 91 92  2  0
 52 93  1  0
 93 94  1  0
 94 95  2  0
 94 96  1  0
 96 97  1  0
 97 98  1  0
 98 99  2  0
 98100  1  0
100101  1  0
100102  1  0
102103  1  0
 96104  1  0
104105  1  0
104106  1  0
104107  1  0
 93108  1  0
  8109  1  0
109110  1  0
109111  1  0
109112  1  0
 15 11  1  0
 30 21  1  0
 44 39  1  0
108 50  1  0
 90 13  1  0
 29 24  1  0
 67 58  1  0
 78 76  1  0
 85 80  1  0
 92 88  1  0
 66 61  1  0
  1113  1  0
  1114  1  0
  1115  1  0
  2116  1  0
  3117  1  6
  4118  1  0
  4119  1  0
  4120  1  0
  7121  1  0
  8122  1  6
 12123  1  0
 12124  1  0
 13125  1  1
 14126  1  0
 14127  1  0
 15128  1  1
 18129  1  0
 19130  1  6
 20131  1  0
 20132  1  0
 22133  1  0
 23134  1  0
 25135  1  0
 26136  1  0
 27137  1  0
 28138  1  0
 30139  1  0
 33140  1  0
 34141  1  1
 37142  1  0
 38143  1  0
 38144  1  0
 40145  1  0
 41146  1  0
 43147  1  0
 44148  1  0
 46149  1  0
 46150  1  0
 47151  1  0
 47152  1  0
 48153  1  0
 48154  1  0
 49155  1  0
 49156  1  0
 50157  1  1
 51158  1  0
 51159  1  0
 52160  1  1
 55161  1  0
 56162  1  6
 57163  1  0
 57164  1  0
 59165  1  0
 60166  1  0
 62167  1  0
 63168  1  0
 64169  1  0
 65170  1  0
 67171  1  0
 70172  1  0
 71173  1  1
 72174  1  0
 76175  1  0
 77176  1  0
 77177  1  0
 78178  1  0
 78179  1  0
 79180  1  0
 79181  1  0
 81182  1  0
 82183  1  0
 84184  1  0
 85185  1  0
 87186  1  0
 87187  1  0
 89188  1  0
 96189  1  6
 97190  1  0
100191  1  6
101192  1  0
101193  1  0
101194  1  0
102195  1  0
103196  1  0
103197  1  0
103198  1  0
105199  1  0
105200  1  0
105201  1  0
106202  1  0
106203  1  0
106204  1  0
107205  1  0
107206  1  0
107207  1  0
108208  1  0
108209  1  0
110210  1  0
110211  1  0
110212  1  0
111213  1  0
111214  1  0
111215  1  0
112216  1  0
112217  1  0
112218  1  0
M  END
$$$$
