
     RDKit          3D

 31 33  0  0  0  0  0  0  0  0999 V2000
    1.0610    1.6141   -0.0218 C   0  0  0  0  0  0  0  0  0  0  0  0
    2.5318    1.7526    0.3841 C   0  0  0  0  0  0  0  0  0  0  0  0
    3.2919    0.6017   -0.0662 N   0  0  0  0  0  0  0  0  0  0  0  0
    3.5369   -0.5666    0.5730 C   0  0  0  0  0  0  0  0  0  0  0  0
    4.3186   -1.3646   -0.2695 C   0  0  0  0  0  0  0  0  0  0  0  0
    4.5597   -0.6800   -1.4449 C   0  0  0  0  0  0  0  0  0  0  0  0
    3.9102    0.5278   -1.2809 C   0  0  0  0  0  0  0  0  0  0  0  0
    0.4717    0.4693    0.5327 O   0  0  0  0  0  0  0  0  0  0  0  0
   -0.8626    0.2156    0.2486 C   0  0  0  0  0  0  0  0  0  0  0  0
   -1.5328   -0.8823    0.7450 C   0  0  0  0  0  0  0  0  0  0  0  0
   -2.8637   -1.1138    0.4475 C   0  0  0  0  0  0  0  0  0  0  0  0
   -3.5756   -0.2405   -0.3682 C   0  0  0  0  0  0  0  0  0  0  0  0
   -4.8504   -0.6354   -0.5391 N   0  0  0  0  0  0  0  0  0  0  0  0
   -4.9931   -1.7746    0.1628 C   0  0  0  0  0  0  0  0  0  0  0  0
   -3.7985   -2.0885    0.7733 C   0  0  0  0  0  0  0  0  0  0  0  0
   -2.9383    0.8762   -0.8880 C   0  0  0  0  0  0  0  0  0  0  0  0
   -1.6137    1.0415   -0.5491 C   0  0  0  0  0  0  0  0  0  0  0  0
    1.0806    1.4443   -1.1302 H   0  0  0  0  0  0  0  0  0  0  0  0
    0.5391    2.5515    0.2131 H   0  0  0  0  0  0  0  0  0  0  0  0
    2.9134    2.6779   -0.0826 H   0  0  0  0  0  0  0  0  0  0  0  0
    2.6114    1.8789    1.4771 H   0  0  0  0  0  0  0  0  0  0  0  0
    3.1806   -0.8209    1.5651 H   0  0  0  0  0  0  0  0  0  0  0  0
    4.6944   -2.3762   -0.0566 H   0  0  0  0  0  0  0  0  0  0  0  0
    5.1184   -0.9681   -2.3247 H   0  0  0  0  0  0  0  0  0  0  0  0
    3.9028    1.3016   -2.0268 H   0  0  0  0  0  0  0  0  0  0  0  0
   -1.0226   -1.5919    1.3847 H   0  0  0  0  0  0  0  0  0  0  0  0
   -5.5729   -0.1405   -1.1092 H   0  0  0  0  0  0  0  0  0  0  0  0
   -5.9508   -2.2948    0.1815 H   0  0  0  0  0  0  0  0  0  0  0  0
   -3.6162   -2.9395    1.3952 H   0  0  0  0  0  0  0  0  0  0  0  0
   -3.4208    1.6026   -1.5294 H   0  0  0  0  0  0  0  0  0  0  0  0
   -1.1106    1.9228   -0.9592 H   0  0  0  0  0  0  0  0  0  0  0  0
  1  2  1  0
  2  3  1  0
  3  4  1  0
  4  5  2  0
  5  6  1  0
  6  7  2  0
  1  8  1  0
  8  9  1  0
  9 10  2  0
 10 11  1  0
 11 12  2  0
 12 13  1  0
 13 14  1  0
 14 15  2  0
 12 16  1  0
 16 17  2  0
  7  3  1  0
 17  9  1  0
 15 11  1  0
  1 18  1  0
  1 19  1  0
  2 20  1  0
  2 21  1  0
  4 22  1  0
  5 23  1  0
  6 24  1  0
  7 25  1  0
 10 26  1  0
 13 27  1  0
 14 28  1  0
 15 29  1  0
 16 30  1  0
 17 31  1  0
M  END
$$$$
