@<TRIPOS>MOLECULE
*****
 31 33 0 0 0
SMALL
GASTEIGER

@<TRIPOS>ATOM
      1 C           1.0610    1.6141   -0.0218 C.3     1  UNL1        0.1074
      2 C           2.5318    1.7526    0.3841 C.3     1  UNL1        0.0569
      3 N           3.2919    0.6017   -0.0662 N.ar    1  UNL1       -0.3500
      4 C           3.5369   -0.5666    0.5730 C.ar    1  UNL1        0.0047
      5 C           4.3186   -1.3646   -0.2695 C.ar    1  UNL1       -0.0442
      6 C           4.5597   -0.6800   -1.4449 C.ar    1  UNL1       -0.0442
      7 C           3.9102    0.5278   -1.2809 C.ar    1  UNL1        0.0047
      8 O           0.4717    0.4693    0.5327 O.3     1  UNL1       -0.4902
      9 C          -0.8626    0.2156    0.2486 C.ar    1  UNL1        0.1213
     10 C          -1.5328   -0.8823    0.7450 C.ar    1  UNL1       -0.0108
     11 C          -2.8637   -1.1138    0.4475 C.ar    1  UNL1        0.0031
     12 C          -3.5756   -0.2405   -0.3682 C.ar    1  UNL1        0.0467
     13 N          -4.8504   -0.6354   -0.5391 N.ar    1  UNL1       -0.3606
     14 C          -4.9931   -1.7746    0.1628 C.ar    1  UNL1        0.0027
     15 C          -3.7985   -2.0885    0.7733 C.ar    1  UNL1       -0.0365
     16 C          -2.9383    0.8762   -0.8880 C.ar    1  UNL1       -0.0343
     17 C          -1.6137    1.0415   -0.5491 C.ar    1  UNL1       -0.0180
     18 H           1.0806    1.4443   -1.1302 H       1  UNL1        0.0714
     19 H           0.5391    2.5515    0.2131 H       1  UNL1        0.0714
     20 H           2.9134    2.6779   -0.0826 H       1  UNL1        0.0525
     21 H           2.6114    1.8789    1.4771 H       1  UNL1        0.0525
     22 H           3.1806   -0.8209    1.5651 H       1  UNL1        0.0809
     23 H           4.6944   -2.3762   -0.0566 H       1  UNL1        0.0632
     24 H           5.1184   -0.9681   -2.3247 H       1  UNL1        0.0632
     25 H           3.9028    1.3016   -2.0268 H       1  UNL1        0.0809
     26 H          -1.0226   -1.5919    1.3847 H       1  UNL1        0.0661
     27 H          -5.5729   -0.1405   -1.1092 H       1  UNL1        0.1653
     28 H          -5.9508   -2.2948    0.1815 H       1  UNL1        0.0807
     29 H          -3.6162   -2.9395    1.3952 H       1  UNL1        0.0638
     30 H          -3.4208    1.6026   -1.5294 H       1  UNL1        0.0639
     31 H          -1.1106    1.9228   -0.9592 H       1  UNL1        0.0655
@<TRIPOS>BOND
     1     1     2    1
     2     2     3    1
     3     3     4   ar
     4     4     5   ar
     5     5     6   ar
     6     6     7   ar
     7     1     8    1
     8     8     9    1
     9     9    10   ar
    10    10    11   ar
    11    11    12   ar
    12    12    13   ar
    13    13    14   ar
    14    14    15   ar
    15    12    16   ar
    16    16    17   ar
    17     7     3   ar
    18    17     9   ar
    19    15    11   ar
    20     1    18    1
    21     1    19    1
    22     2    20    1
    23     2    21    1
    24     4    22    1
    25     5    23    1
    26     6    24    1
    27     7    25    1
    28    10    26    1
    29    13    27    1
    30    14    28    1
    31    15    29    1
    32    16    30    1
    33    17    31    1
