
     RDKit          3D

 61 63  0  0  0  0  0  0  0  0999 V2000
    6.3098    2.0086    0.8123 C   0  0  0  0  0  0  0  0  0  0  0  0
    6.0580    1.5430   -0.5929 C   0  0  0  0  0  0  0  0  0  0  0  0
    4.7934    0.6896   -0.6971 C   0  0  0  0  0  0  0  0  0  0  0  0
    3.4403    1.6798   -0.1645 S   0  0  0  0  0  6  0  0  0  0  0  0
    3.7122    2.0775    1.2765 O   0  0  0  0  0  0  0  0  0  0  0  0
    3.3493    2.9673   -0.9368 O   0  0  0  0  0  0  0  0  0  0  0  0
    1.9402    0.9038   -0.2092 N   0  0  0  0  0  0  0  0  0  0  0  0
    1.4981    0.4678   -1.4912 C   0  0  0  0  0  0  0  0  0  0  0  0
   -0.0162    0.3478   -1.4174 C   0  0  0  0  0  0  0  0  0  0  0  0
   -0.4727   -0.5837   -0.3327 C   0  0  0  0  0  0  0  0  0  0  0  0
   -1.9526   -0.6147   -0.2282 C   0  0  0  0  0  0  0  0  0  0  0  0
   -2.7231    0.5338    0.0301 N   0  0  0  0  0  0  0  0  0  0  0  0
   -3.0099    1.6554   -0.7742 C   0  0  0  0  0  0  0  0  0  0  0  0
   -2.5715    1.7138   -1.9380 O   0  0  0  0  0  0  0  0  0  0  0  0
   -3.8326    2.7867   -0.2658 C   0  0  0  0  0  0  0  0  0  0  0  0
   -3.3506    4.0552   -0.1669 C   0  0  0  0  0  0  0  0  0  0  0  0
   -4.1940    5.0355    0.3171 C   0  0  0  0  0  0  0  0  0  0  0  0
   -5.4867    4.7413    0.6900 C   0  0  0  0  0  0  0  0  0  0  0  0
   -5.9754    3.4561    0.5899 C   0  0  0  0  0  0  0  0  0  0  0  0
   -5.1270    2.4849    0.1061 C   0  0  0  0  0  0  0  0  0  0  0  0
   -5.7380    0.8495   -0.0247 Cl  0  0  0  0  0  0  0  0  0  0  0  0
   -0.0647   -1.9943   -0.6725 C   0  0  0  0  0  0  0  0  0  0  0  0
    0.5409   -2.0792   -1.8103 O   0  0  0  0  0  0  0  0  0  0  0  0
   -0.2473   -3.1596    0.0426 N   0  0  0  0  0  0  0  0  0  0  0  0
   -0.8455   -3.4896    1.2772 C   0  0  0  0  0  0  0  0  0  0  0  0
   -2.0558   -4.4078    1.1183 C   0  0  0  0  0  0  0  0  0  0  0  0
   -1.8553   -5.2041    0.0168 O   0  0  0  0  0  0  0  0  0  0  0  0
   -0.5111   -5.5401   -0.1130 C   0  0  0  0  0  0  0  0  0  0  0  0
    0.3108   -4.3843   -0.6384 C   0  0  0  0  0  0  0  0  0  0  0  0
    0.2144   -0.2232    0.9708 C   0  0  0  0  0  0  0  0  0  0  0  0
    1.7364   -0.1390    0.7395 C   0  0  0  0  0  0  0  0  0  0  0  0
    6.0444    1.2610    1.5809 H   0  0  0  0  0  0  0  0  0  0  0  0
    5.8405    2.9950    0.9873 H   0  0  0  0  0  0  0  0  0  0  0  0
    7.4220    2.1637    0.8993 H   0  0  0  0  0  0  0  0  0  0  0  0
    6.9293    1.0136   -1.0101 H   0  0  0  0  0  0  0  0  0  0  0  0
    5.8785    2.4481   -1.2162 H   0  0  0  0  0  0  0  0  0  0  0  0
    4.9253   -0.1424    0.0276 H   0  0  0  0  0  0  0  0  0  0  0  0
    4.7030    0.3187   -1.7191 H   0  0  0  0  0  0  0  0  0  0  0  0
    1.6661    1.2832   -2.2591 H   0  0  0  0  0  0  0  0  0  0  0  0
    1.9806   -0.4118   -1.8908 H   0  0  0  0  0  0  0  0  0  0  0  0
   -0.3125    1.3930   -1.0947 H   0  0  0  0  0  0  0  0  0  0  0  0
   -0.4481    0.1192   -2.3782 H   0  0  0  0  0  0  0  0  0  0  0  0
   -2.3930   -1.0369   -1.2179 H   0  0  0  0  0  0  0  0  0  0  0  0
   -2.2349   -1.3743    0.5713 H   0  0  0  0  0  0  0  0  0  0  0  0
   -3.2025    0.6205    1.0127 H   0  0  0  0  0  0  0  0  0  0  0  0
   -2.3416    4.2665   -0.4616 H   0  0  0  0  0  0  0  0  0  0  0  0
   -3.8662    6.0487    0.4154 H   0  0  0  0  0  0  0  0  0  0  0  0
   -6.1611    5.4977    1.0714 H   0  0  0  0  0  0  0  0  0  0  0  0
   -6.9958    3.1996    0.8792 H   0  0  0  0  0  0  0  0  0  0  0  0
   -1.1173   -2.7542    2.0010 H   0  0  0  0  0  0  0  0  0  0  0  0
   -0.0952   -4.1632    1.8184 H   0  0  0  0  0  0  0  0  0  0  0  0
   -2.9491   -3.7771    0.9533 H   0  0  0  0  0  0  0  0  0  0  0  0
   -2.1856   -4.9395    2.0722 H   0  0  0  0  0  0  0  0  0  0  0  0
   -0.1029   -5.9432    0.8381 H   0  0  0  0  0  0  0  0  0  0  0  0
   -0.4962   -6.3821   -0.8600 H   0  0  0  0  0  0  0  0  0  0  0  0
    1.3643   -4.4987   -0.3920 H   0  0  0  0  0  0  0  0  0  0  0  0
    0.0720   -4.2892   -1.7030 H   0  0  0  0  0  0  0  0  0  0  0  0
   -0.0717    0.8430    1.2147 H   0  0  0  0  0  0  0  0  0  0  0  0
    0.0678   -0.8769    1.7940 H   0  0  0  0  0  0  0  0  0  0  0  0
    2.0166   -1.0984    0.2893 H   0  0  0  0  0  0  0  0  0  0  0  0
    2.1896    0.0385    1.7320 H   0  0  0  0  0  0  0  0  0  0  0  0
  1  2  1  0
  2  3  1  0
  3  4  1  0
  4  5  2  0
  4  6  2  0
  4  7  1  0
  7  8  1  0
  8  9  1  0
  9 10  1  0
 10 11  1  0
 11 12  1  0
 12 13  1  0
 13 14  2  0
 13 15  1  0
 15 16  2  0
 16 17  1  0
 17 18  2  0
 18 19  1  0
 19 20  2  0
 20 21  1  0
 10 22  1  0
 22 23  2  0
 22 24  1  0
 24 25  1  0
 25 26  1  0
 26 27  1  0
 27 28  1  0
 28 29  1  0
 10 30  1  0
 30 31  1  0
 31  7  1  0
 20 15  1  0
 29 24  1  0
  1 32  1  0
  1 33  1  0
  1 34  1  0
  2 35  1  0
  2 36  1  0
  3 37  1  0
  3 38  1  0
  8 39  1  0
  8 40  1  0
  9 41  1  0
  9 42  1  0
 11 43  1  0
 11 44  1  0
 12 45  1  0
 16 46  1  0
 17 47  1  0
 18 48  1  0
 19 49  1  0
 25 50  1  0
 25 51  1  0
 26 52  1  0
 26 53  1  0
 28 54  1  0
 28 55  1  0
 29 56  1  0
 29 57  1  0
 30 58  1  0
 30 59  1  0
 31 60  1  0
 31 61  1  0
M  END
$$$$
