@<TRIPOS>MOLECULE
*****
 61 63 0 0 0
SMALL
GASTEIGER

@<TRIPOS>ATOM
      1 C           6.3098    2.0086    0.8123 C.3     1  UNL1       -0.0638
      2 C           6.0580    1.5430   -0.5929 C.3     1  UNL1       -0.0350
      3 C           4.7934    0.6896   -0.6971 C.3     1  UNL1        0.0817
      4 S           3.4403    1.6798   -0.1645 S.O2    1  UNL1        0.0318
      5 O           3.7122    2.0775    1.2765 O.2     1  UNL1       -0.1580
      6 O           3.3493    2.9673   -0.9368 O.2     1  UNL1       -0.1580
      7 N           1.9402    0.9038   -0.2092 N.3     1  UNL1       -0.1811
      8 C           1.4981    0.4678   -1.4912 C.3     1  UNL1        0.0211
      9 C          -0.0162    0.3478   -1.4174 C.3     1  UNL1       -0.0231
     10 C          -0.4727   -0.5837   -0.3327 C.3     1  UNL1        0.0650
     11 C          -1.9526   -0.6147   -0.2282 C.3     1  UNL1        0.0259
     12 N          -2.7231    0.5338    0.0301 N.am    1  UNL1       -0.3103
     13 C          -3.0099    1.6554   -0.7742 C.2     1  UNL1        0.2455
     14 O          -2.5715    1.7138   -1.9380 O.2     1  UNL1       -0.2702
     15 C          -3.8326    2.7867   -0.2658 C.ar    1  UNL1        0.0550
     16 C          -3.3506    4.0552   -0.1669 C.ar    1  UNL1       -0.0482
     17 C          -4.1940    5.0355    0.3171 C.ar    1  UNL1       -0.0610
     18 C          -5.4867    4.7413    0.6900 C.ar    1  UNL1       -0.0603
     19 C          -5.9754    3.4561    0.5899 C.ar    1  UNL1       -0.0427
     20 C          -5.1270    2.4849    0.1061 C.ar    1  UNL1        0.0531
     21 CL         -5.7380    0.8495   -0.0247 Cl      1  UNL1       -0.0828
     22 C          -0.0647   -1.9943   -0.6725 C.2     1  UNL1        0.2235
     23 O           0.5409   -2.0792   -1.8103 O.2     1  UNL1       -0.2749
     24 N          -0.2473   -3.1596    0.0426 N.am    1  UNL1       -0.2966
     25 C          -0.8455   -3.4896    1.2772 C.3     1  UNL1        0.0382
     26 C          -2.0558   -4.4078    1.1183 C.3     1  UNL1        0.0635
     27 O          -1.8553   -5.2041    0.0168 O.3     1  UNL1       -0.3767
     28 C          -0.5111   -5.5401   -0.1130 C.3     1  UNL1        0.0635
     29 C           0.3108   -4.3843   -0.6384 C.3     1  UNL1        0.0382
     30 C           0.2144   -0.2232    0.9708 C.3     1  UNL1       -0.0231
     31 C           1.7364   -0.1390    0.7395 C.3     1  UNL1        0.0211
     32 H           6.0444    1.2610    1.5809 H       1  UNL1        0.0230
     33 H           5.8405    2.9950    0.9873 H       1  UNL1        0.0230
     34 H           7.4220    2.1637    0.8993 H       1  UNL1        0.0230
     35 H           6.9293    1.0136   -1.0101 H       1  UNL1        0.0279
     36 H           5.8785    2.4481   -1.2162 H       1  UNL1        0.0279
     37 H           4.9253   -0.1424    0.0276 H       1  UNL1        0.0515
     38 H           4.7030    0.3187   -1.7191 H       1  UNL1        0.0515
     39 H           1.6661    1.2832   -2.2591 H       1  UNL1        0.0444
     40 H           1.9806   -0.4118   -1.8908 H       1  UNL1        0.0444
     41 H          -0.3125    1.3930   -1.0947 H       1  UNL1        0.0289
     42 H          -0.4481    0.1192   -2.3782 H       1  UNL1        0.0289
     43 H          -2.3930   -1.0369   -1.2179 H       1  UNL1        0.0472
     44 H          -2.2349   -1.3743    0.5713 H       1  UNL1        0.0472
     45 H          -3.2025    0.6205    1.0127 H       1  UNL1        0.1490
     46 H          -2.3416    4.2665   -0.4616 H       1  UNL1        0.0625
     47 H          -3.8662    6.0487    0.4154 H       1  UNL1        0.0618
     48 H          -6.1611    5.4977    1.0714 H       1  UNL1        0.0618
     49 H          -6.9958    3.1996    0.8792 H       1  UNL1        0.0632
     50 H          -1.1173   -2.7542    2.0010 H       1  UNL1        0.0487
     51 H          -0.0952   -4.1632    1.8184 H       1  UNL1        0.0487
     52 H          -2.9491   -3.7771    0.9533 H       1  UNL1        0.0575
     53 H          -2.1856   -4.9395    2.0722 H       1  UNL1        0.0575
     54 H          -0.1029   -5.9432    0.8381 H       1  UNL1        0.0575
     55 H          -0.4962   -6.3821   -0.8600 H       1  UNL1        0.0575
     56 H           1.3643   -4.4987   -0.3920 H       1  UNL1        0.0487
     57 H           0.0720   -4.2892   -1.7030 H       1  UNL1        0.0487
     58 H          -0.0717    0.8430    1.2147 H       1  UNL1        0.0289
     59 H           0.0678   -0.8769    1.7940 H       1  UNL1        0.0289
     60 H           2.0166   -1.0984    0.2893 H       1  UNL1        0.0444
     61 H           2.1896    0.0385    1.7320 H       1  UNL1        0.0444
@<TRIPOS>BOND
     1     1     2    1
     2     2     3    1
     3     3     4    1
     4     4     5    2
     5     4     6    2
     6     4     7    1
     7     7     8    1
     8     8     9    1
     9     9    10    1
    10    10    11    1
    11    11    12    1
    12    12    13   am
    13    13    14    2
    14    13    15    1
    15    15    16   ar
    16    16    17   ar
    17    17    18   ar
    18    18    19   ar
    19    19    20   ar
    20    20    21    1
    21    10    22    1
    22    22    23    2
    23    22    24   am
    24    24    25    1
    25    25    26    1
    26    26    27    1
    27    27    28    1
    28    28    29    1
    29    10    30    1
    30    30    31    1
    31    31     7    1
    32    20    15   ar
    33    29    24    1
    34     1    32    1
    35     1    33    1
    36     1    34    1
    37     2    35    1
    38     2    36    1
    39     3    37    1
    40     3    38    1
    41     8    39    1
    42     8    40    1
    43     9    41    1
    44     9    42    1
    45    11    43    1
    46    11    44    1
    47    12    45    1
    48    16    46    1
    49    17    47    1
    50    18    48    1
    51    19    49    1
    52    25    50    1
    53    25    51    1
    54    26    52    1
    55    26    53    1
    56    28    54    1
    57    28    55    1
    58    29    56    1
    59    29    57    1
    60    30    58    1
    61    30    59    1
    62    31    60    1
    63    31    61    1
