@<TRIPOS>MOLECULE
*****
 34 36 0 0 0
SMALL
GASTEIGER

@<TRIPOS>ATOM
      1 C          -5.5426    1.7040   -0.1002 C.3     1  UNL1       -0.0397
      2 C          -4.3327    0.8830    0.1437 C.ar    1  UNL1       -0.0504
      3 C          -4.5014   -0.4137    0.5804 C.ar    1  UNL1       -0.0582
      4 C          -3.3985   -1.2254    0.8240 C.ar    1  UNL1       -0.0523
      5 C          -2.1113   -0.7709    0.6406 C.ar    1  UNL1        0.0010
      6 C          -0.9613   -1.6560    0.9074 C.ar    1  UNL1        0.0802
      7 C          -1.1240   -2.9776    1.3523 C.ar    1  UNL1        0.0049
      8 S           0.5089   -3.5218    1.4935 S.2     1  UNL1       -0.0599
      9 C           1.2774   -1.8781    0.9262 C.ar    1  UNL1        0.1629
     10 N           2.7052   -1.8239    0.8728 N.pl3   1  UNL1       -0.2937
     11 C           3.3160   -0.6143    0.4545 C.ar    1  UNL1        0.0330
     12 C           2.6041    0.5089    0.0983 C.ar    1  UNL1       -0.0370
     13 C           3.2658    1.6731   -0.3063 C.ar    1  UNL1       -0.0184
     14 C           4.6325    1.7274   -0.3589 C.ar    1  UNL1        0.1170
     15 O           5.3330    2.8569   -0.7529 O.3     1  UNL1       -0.5068
     16 C           5.3364    0.6000   -0.0012 C.ar    1  UNL1       -0.0184
     17 C           4.7221   -0.5611    0.4012 C.ar    1  UNL1       -0.0370
     18 N           0.2748   -1.2870    0.7538 N.ar    1  UNL1       -0.2247
     19 C          -1.9422    0.5389    0.1995 C.ar    1  UNL1       -0.0523
     20 C          -3.0459    1.3224   -0.0346 C.ar    1  UNL1       -0.0582
     21 H          -5.3251    2.6031   -0.7082 H       1  UNL1        0.0278
     22 H          -6.2502    1.0635   -0.6876 H       1  UNL1        0.0278
     23 H          -6.0617    1.9244    0.8495 H       1  UNL1        0.0278
     24 H          -5.4937   -0.8165    0.7393 H       1  UNL1        0.0620
     25 H          -3.5401   -2.2420    1.1666 H       1  UNL1        0.0624
     26 H          -2.0500   -3.5026    1.5503 H       1  UNL1        0.0716
     27 H           3.3111   -2.6516    1.1338 H       1  UNL1        0.1541
     28 H           1.5357    0.5229    0.1207 H       1  UNL1        0.0637
     29 H           2.7086    2.5651   -0.5893 H       1  UNL1        0.0655
     30 H           6.2399    3.0191   -0.3299 H       1  UNL1        0.2921
     31 H           6.4361    0.6409   -0.0426 H       1  UNL1        0.0655
     32 H           5.2935   -1.4535    0.6840 H       1  UNL1        0.0637
     33 H          -0.9362    0.9032    0.0531 H       1  UNL1        0.0624
     34 H          -2.8842    2.3392   -0.3778 H       1  UNL1        0.0620
@<TRIPOS>BOND
     1     1     2    1
     2     2     3   ar
     3     3     4   ar
     4     4     5   ar
     5     5     6    1
     6     6     7   ar
     7     7     8   ar
     8     8     9   ar
     9     9    10    1
    10    10    11    1
    11    11    12   ar
    12    12    13   ar
    13    13    14   ar
    14    14    15    1
    15    14    16   ar
    16    16    17   ar
    17     9    18   ar
    18     5    19   ar
    19    19    20   ar
    20    20     2   ar
    21    18     6   ar
    22    17    11   ar
    23     1    21    1
    24     1    22    1
    25     1    23    1
    26     3    24    1
    27     4    25    1
    28     7    26    1
    29    10    27    1
    30    12    28    1
    31    13    29    1
    32    15    30    1
    33    16    31    1
    34    17    32    1
    35    19    33    1
    36    20    34    1
