
     RDKit          3D

 29 28  0  0  0  0  0  0  0  0999 V2000
    5.1870    0.4288    0.7118 C   0  0  0  0  0  0  0  0  0  0  0  0
    3.6795    0.3426    1.0168 C   0  0  0  0  0  0  0  0  0  0  0  0
    3.1438   -0.3929    0.0112 O   0  0  0  0  0  0  0  0  0  0  0  0
    1.8084   -0.6586    0.0228 C   0  0  0  0  0  0  0  0  0  0  0  0
    1.0218    0.6183   -0.0183 C   0  0  0  0  0  0  0  0  0  0  0  0
   -0.3421    0.4781   -0.0083 O   0  0  0  0  0  0  0  0  0  0  0  0
   -0.7580   -0.2462   -1.1043 C   0  0  0  0  0  0  0  0  0  0  0  0
   -2.2789   -0.3365   -1.0659 C   0  0  0  0  0  0  0  0  0  0  0  0
   -2.6602   -0.9742    0.1114 O   0  0  0  0  0  0  0  0  0  0  0  0
   -4.0512   -1.0841    0.1985 C   0  0  0  0  0  0  0  0  0  0  0  0
   -4.6722    0.3115    0.1751 C   0  0  0  0  0  0  0  0  0  0  0  0
    5.2663    0.8521   -0.3103 H   0  0  0  0  0  0  0  0  0  0  0  0
    5.5819   -0.6101    0.6890 H   0  0  0  0  0  0  0  0  0  0  0  0
    5.7114    1.0178    1.4822 H   0  0  0  0  0  0  0  0  0  0  0  0
    3.5038   -0.0220    2.0404 H   0  0  0  0  0  0  0  0  0  0  0  0
    3.3494    1.4233    1.0393 H   0  0  0  0  0  0  0  0  0  0  0  0
    1.4696   -1.2915    0.8645 H   0  0  0  0  0  0  0  0  0  0  0  0
    1.5929   -1.2893   -0.8871 H   0  0  0  0  0  0  0  0  0  0  0  0
    1.3851    1.1620   -0.9404 H   0  0  0  0  0  0  0  0  0  0  0  0
    1.3823    1.2804    0.8206 H   0  0  0  0  0  0  0  0  0  0  0  0
   -0.3695    0.1407   -2.0414 H   0  0  0  0  0  0  0  0  0  0  0  0
   -0.3753   -1.3013   -0.9440 H   0  0  0  0  0  0  0  0  0  0  0  0
   -2.6926    0.6773   -1.0494 H   0  0  0  0  0  0  0  0  0  0  0  0
   -2.6798   -0.9406   -1.9043 H   0  0  0  0  0  0  0  0  0  0  0  0
   -4.2725   -1.6045    1.1494 H   0  0  0  0  0  0  0  0  0  0  0  0
   -4.4703   -1.6351   -0.6629 H   0  0  0  0  0  0  0  0  0  0  0  0
   -5.6123    0.2363    0.7662 H   0  0  0  0  0  0  0  0  0  0  0  0
   -4.8804    0.6474   -0.8492 H   0  0  0  0  0  0  0  0  0  0  0  0
   -3.9681    1.0286    0.6863 H   0  0  0  0  0  0  0  0  0  0  0  0
  1  2  1  0
  2  3  1  0
  3  4  1  0
  4  5  1  0
  5  6  1  0
  6  7  1  0
  7  8  1  0
  8  9  1  0
  9 10  1  0
 10 11  1  0
  1 12  1  0
  1 13  1  0
  1 14  1  0
  2 15  1  0
  2 16  1  0
  4 17  1  0
  4 18  1  0
  5 19  1  0
  5 20  1  0
  7 21  1  0
  7 22  1  0
  8 23  1  0
  8 24  1  0
 10 25  1  0
 10 26  1  0
 11 27  1  0
 11 28  1  0
 11 29  1  0
M  END
$$$$
