@<TRIPOS>MOLECULE
*****
 69 74 0 0 0
SMALL
GASTEIGER

@<TRIPOS>ATOM
      1 C          -2.4377   -6.1207   -1.1402 C.3     1  UNL1       -0.0649
      2 C          -1.2041   -5.2525   -1.0418 C.3     1  UNL1       -0.0491
      3 C          -1.5680   -3.8611   -1.4831 C.3     1  UNL1        0.0054
      4 C          -0.3753   -2.9631   -1.4026 C.ar    1  UNL1        0.1111
      5 N           0.5101   -2.7621   -2.4251 N.ar    1  UNL1       -0.2320
      6 C           1.4708   -1.9202   -2.0371 C.ar    1  UNL1        0.0922
      7 C           2.5851   -1.4268   -2.7199 C.ar    1  UNL1       -0.0223
      8 C           2.8503   -1.8258   -4.1319 C.3     1  UNL1       -0.0376
      9 C           3.4103   -0.5666   -2.0281 C.ar    1  UNL1       -0.0460
     10 C           3.2058   -0.1706   -0.7251 C.ar    1  UNL1        0.0198
     11 C           4.1008    0.7430   -0.0202 C.ar    1  UNL1        0.1417
     12 N           5.0084    0.3364    0.8839 N.ar    1  UNL1       -0.2275
     13 C           5.7063    1.3897    1.3852 C.ar    1  UNL1        0.0896
     14 C           6.7191    1.4961    2.3145 C.ar    1  UNL1       -0.0342
     15 C           7.2130    2.7500    2.5971 C.ar    1  UNL1       -0.0596
     16 C           6.7374    3.8957    1.9908 C.ar    1  UNL1       -0.0597
     17 C           5.7254    3.7309    1.0705 C.ar    1  UNL1       -0.0361
     18 C           5.1931    2.5002    0.7489 C.ar    1  UNL1        0.0688
     19 N           4.2223    2.0684   -0.0951 N.ar    1  UNL1       -0.3267
     20 C           3.4356    2.9181   -0.9494 C.3     1  UNL1        0.0138
     21 C           2.0819   -0.6886   -0.0869 C.ar    1  UNL1       -0.0254
     22 C           1.2181   -1.5569   -0.7357 C.ar    1  UNL1        0.0700
     23 N           0.0779   -2.2160   -0.3831 N.ar    1  UNL1       -0.3231
     24 C          -0.5075   -2.0711    0.9257 C.3     1  UNL1        0.0500
     25 C          -1.5351   -0.9870    0.9782 C.ar    1  UNL1       -0.0277
     26 C          -2.8931   -1.3075    1.0109 C.ar    1  UNL1       -0.0563
     27 C          -3.8583   -0.3240    1.0483 C.ar    1  UNL1       -0.0537
     28 C          -3.5440    1.0123    1.0556 C.ar    1  UNL1       -0.0171
     29 C          -4.5393    2.0715    1.0815 C.ar    1  UNL1       -0.0039
     30 C          -4.4836    2.8964    2.2064 C.ar    1  UNL1       -0.0532
     31 C          -5.3860    3.8960    2.3914 C.ar    1  UNL1       -0.0611
     32 C          -6.3711    4.0991    1.4551 C.ar    1  UNL1       -0.0609
     33 C          -6.4258    3.2896    0.3492 C.ar    1  UNL1       -0.0472
     34 C          -5.5012    2.2554    0.1446 C.ar    1  UNL1        0.0665
     35 C          -5.5708    1.4681   -1.0657 C.2     1  UNL1        0.3374
     36 O          -6.5268    1.6752   -1.8828 O.2     1  UNL1       -0.2451
     37 O          -4.6355    0.5067   -1.3616 O.3     1  UNL1       -0.4771
     38 C          -2.2073    1.3370    1.0245 C.ar    1  UNL1       -0.0537
     39 C          -1.2173    0.3504    0.9864 C.ar    1  UNL1       -0.0563
     40 H          -2.1912   -7.2054   -1.1913 H       1  UNL1        0.0230
     41 H          -3.0186   -5.9753   -0.2062 H       1  UNL1        0.0230
     42 H          -3.0121   -5.8149   -2.0429 H       1  UNL1        0.0230
     43 H          -0.4372   -5.6938   -1.7256 H       1  UNL1        0.0267
     44 H          -0.8406   -5.2633   -0.0037 H       1  UNL1        0.0267
     45 H          -1.9651   -3.9019   -2.5218 H       1  UNL1        0.0343
     46 H          -2.3481   -3.4640   -0.8274 H       1  UNL1        0.0343
     47 H           2.9446   -2.9327   -4.2022 H       1  UNL1        0.0278
     48 H           2.0997   -1.4196   -4.8355 H       1  UNL1        0.0278
     49 H           3.8467   -1.4165   -4.4023 H       1  UNL1        0.0278
     50 H           4.2941   -0.1604   -2.5343 H       1  UNL1        0.0628
     51 H           7.0921    0.6025    2.7893 H       1  UNL1        0.0639
     52 H           8.0169    2.8985    3.3257 H       1  UNL1        0.0618
     53 H           7.1495    4.8842    2.2348 H       1  UNL1        0.0618
     54 H           5.3388    4.6180    0.5840 H       1  UNL1        0.0639
     55 H           3.1917    3.9036   -0.4688 H       1  UNL1        0.0456
     56 H           4.0072    3.0803   -1.9038 H       1  UNL1        0.0456
     57 H           2.4785    2.4604   -1.2343 H       1  UNL1        0.0456
     58 H           1.8945   -0.4066    0.9383 H       1  UNL1        0.0646
     59 H          -0.9985   -3.0421    1.1734 H       1  UNL1        0.0542
     60 H           0.2702   -1.8064    1.6785 H       1  UNL1        0.0542
     61 H          -3.1834   -2.3424    1.0195 H       1  UNL1        0.0621
     62 H          -4.9280   -0.5967    1.0836 H       1  UNL1        0.0624
     63 H          -3.6997    2.7454    2.9648 H       1  UNL1        0.0624
     64 H          -5.3403    4.5318    3.2618 H       1  UNL1        0.0618
     65 H          -7.0975    4.8798    1.5750 H       1  UNL1        0.0618
     66 H          -7.1988    3.4301   -0.4098 H       1  UNL1        0.0626
     67 H          -4.9253   -0.3147   -1.8922 H       1  UNL1        0.2954
     68 H          -1.9328    2.3814    1.0301 H       1  UNL1        0.0624
     69 H          -0.1913    0.6755    0.9666 H       1  UNL1        0.0621
@<TRIPOS>BOND
     1     1     2    1
     2     2     3    1
     3     3     4    1
     4     4     5   ar
     5     5     6   ar
     6     6     7   ar
     7     7     8    1
     8     7     9   ar
     9     9    10   ar
    10    10    11    1
    11    11    12   ar
    12    12    13   ar
    13    13    14   ar
    14    14    15   ar
    15    15    16   ar
    16    16    17   ar
    17    17    18   ar
    18    18    19   ar
    19    19    20    1
    20    10    21   ar
    21    21    22   ar
    22    22    23   ar
    23    23    24    1
    24    24    25    1
    25    25    26   ar
    26    26    27   ar
    27    27    28   ar
    28    28    29    1
    29    29    30   ar
    30    30    31   ar
    31    31    32   ar
    32    32    33   ar
    33    33    34   ar
    34    34    35    1
    35    35    36    2
    36    35    37    1
    37    28    38   ar
    38    38    39   ar
    39    23     4   ar
    40    39    25   ar
    41    22     6   ar
    42    34    29   ar
    43    19    11   ar
    44    18    13   ar
    45     1    40    1
    46     1    41    1
    47     1    42    1
    48     2    43    1
    49     2    44    1
    50     3    45    1
    51     3    46    1
    52     8    47    1
    53     8    48    1
    54     8    49    1
    55     9    50    1
    56    14    51    1
    57    15    52    1
    58    16    53    1
    59    17    54    1
    60    20    55    1
    61    20    56    1
    62    20    57    1
    63    21    58    1
    64    24    59    1
    65    24    60    1
    66    26    61    1
    67    27    62    1
    68    30    63    1
    69    31    64    1
    70    32    65    1
    71    33    66    1
    72    37    67    1
    73    38    68    1
    74    39    69    1
