@<TRIPOS>MOLECULE
*****
 77 82 0 0 0
SMALL
GASTEIGER

@<TRIPOS>ATOM
      1 C           0.0052    0.5256   -2.6204 C.3     1  UNL1       -0.0394
      2 C           0.2754    1.7914   -1.9117 C.ar    1  UNL1       -0.0470
      3 C           0.0933    2.9999   -2.5428 C.ar    1  UNL1       -0.0586
      4 C           0.3499    4.1940   -1.8749 C.ar    1  UNL1       -0.0615
      5 C           0.7891    4.1392   -0.5719 C.ar    1  UNL1       -0.0615
      6 C           0.9817    2.9228    0.0908 C.ar    1  UNL1       -0.0580
      7 C           0.7145    1.7496   -0.6089 C.ar    1  UNL1       -0.0406
      8 C           0.9117    0.4551    0.0428 C.3     1  UNL1       -0.0031
      9 C           2.4034    0.1057   -0.0718 C.3     1  UNL1       -0.0300
     10 C           2.7117   -1.2639    0.4662 C.3     1  UNL1        0.0085
     11 N           4.1744   -1.3173    0.6239 N.3     1  UNL1       -0.3093
     12 C           4.8307   -1.1142   -0.6295 C.3     1  UNL1        0.0215
     13 C           6.3081   -1.1792   -0.3979 C.ar    1  UNL1       -0.0335
     14 C           7.0263   -0.0323   -0.0892 C.ar    1  UNL1       -0.0560
     15 C           8.3830   -0.0579    0.1295 C.ar    1  UNL1       -0.0431
     16 C           9.0792   -1.2372    0.0478 C.ar    1  UNL1        0.0410
     17 CL         10.8163   -1.2274    0.3349 Cl      1  UNL1       -0.0835
     18 C           8.3910   -2.3937   -0.2576 C.ar    1  UNL1       -0.0431
     19 C           7.0194   -2.3587   -0.4771 C.ar    1  UNL1       -0.0560
     20 C           2.1723   -1.4150    1.8715 C.3     1  UNL1       -0.0368
     21 C           0.7629   -0.9570    2.0094 C.3     1  UNL1       -0.0399
     22 C           0.5903    0.4683    1.5133 C.3     1  UNL1        0.0426
     23 C          -0.7260    0.9873    1.8685 C.2     1  UNL1        0.2193
     24 O          -0.7688    2.0431    2.5934 O.2     1  UNL1       -0.2753
     25 N          -1.9800    0.4464    1.4980 N.am    1  UNL1       -0.2988
     26 C          -3.3788    0.7833    1.7218 C.3     1  UNL1        0.0298
     27 C          -3.8263   -0.1664    0.6154 C.3     1  UNL1        0.0520
     28 C          -4.8285   -1.1649    1.0784 C.ar    1  UNL1       -0.0339
     29 C          -5.9996   -0.8023    1.6781 C.ar    1  UNL1       -0.0576
     30 C          -6.9317   -1.7556    2.1043 C.ar    1  UNL1       -0.0615
     31 C          -6.6981   -3.0951    1.9325 C.ar    1  UNL1       -0.0617
     32 C          -5.5118   -3.4502    1.3256 C.ar    1  UNL1       -0.0615
     33 C          -4.5755   -2.5074    0.8966 C.ar    1  UNL1       -0.0576
     34 C          -4.1995    0.5076   -0.6385 C.ar    1  UNL1       -0.0339
     35 C          -5.0649    1.5756   -0.5814 C.ar    1  UNL1       -0.0576
     36 C          -5.4218    2.2117   -1.7691 C.ar    1  UNL1       -0.0615
     37 C          -4.9419    1.8124   -2.9934 C.ar    1  UNL1       -0.0617
     38 C          -4.0683    0.7349   -3.0536 C.ar    1  UNL1       -0.0615
     39 C          -3.7196    0.1108   -1.8790 C.ar    1  UNL1       -0.0576
     40 C          -2.4387   -0.6967    0.7380 C.3     1  UNL1        0.0298
     41 H           0.9670    0.0037   -2.8054 H       1  UNL1        0.0278
     42 H          -0.7462   -0.1130   -2.1489 H       1  UNL1        0.0278
     43 H          -0.4131    0.7777   -3.6378 H       1  UNL1        0.0278
     44 H          -0.2497    3.0801   -3.5636 H       1  UNL1        0.0620
     45 H           0.2170    5.1585   -2.3416 H       1  UNL1        0.0618
     46 H           1.0045    5.0431   -0.0028 H       1  UNL1        0.0618
     47 H           1.3330    2.9014    1.1100 H       1  UNL1        0.0620
     48 H           0.3951   -0.3807   -0.4896 H       1  UNL1        0.0357
     49 H           2.9173    0.8353    0.5873 H       1  UNL1        0.0286
     50 H           2.6556    0.2061   -1.1243 H       1  UNL1        0.0286
     51 H           2.3598   -2.0673   -0.2161 H       1  UNL1        0.0461
     52 H           4.4017   -0.4966    1.2450 H       1  UNL1        0.1225
     53 H           4.6669   -0.0807   -1.0547 H       1  UNL1        0.0474
     54 H           4.4992   -1.8915   -1.3508 H       1  UNL1        0.0474
     55 H           6.5118    0.9343   -0.0136 H       1  UNL1        0.0621
     56 H           8.9147    0.8472    0.3677 H       1  UNL1        0.0632
     57 H           8.9706   -3.3064   -0.3142 H       1  UNL1        0.0632
     58 H           6.5299   -3.2734   -0.7094 H       1  UNL1        0.0621
     59 H           2.8170   -0.9267    2.6003 H       1  UNL1        0.0280
     60 H           2.1963   -2.5150    2.0941 H       1  UNL1        0.0280
     61 H           0.5104   -0.9433    3.0909 H       1  UNL1        0.0273
     62 H           0.0410   -1.5944    1.4565 H       1  UNL1        0.0273
     63 H           1.4121    1.0476    2.0011 H       1  UNL1        0.0400
     64 H          -3.6767    0.4041    2.7248 H       1  UNL1        0.0477
     65 H          -3.6590    1.8083    1.4765 H       1  UNL1        0.0477
     66 H          -6.2143    0.2330    1.8287 H       1  UNL1        0.0621
     67 H          -7.8536   -1.4154    2.5783 H       1  UNL1        0.0618
     68 H          -7.4351   -3.8086    2.2713 H       1  UNL1        0.0618
     69 H          -5.2877   -4.4965    1.1708 H       1  UNL1        0.0618
     70 H          -3.6605   -2.8587    0.4232 H       1  UNL1        0.0621
     71 H          -5.4850    1.9521    0.3394 H       1  UNL1        0.0621
     72 H          -6.1068    3.0523   -1.6913 H       1  UNL1        0.0618
     73 H          -5.2498    2.3412   -3.8957 H       1  UNL1        0.0618
     74 H          -3.6908    0.4206   -4.0171 H       1  UNL1        0.0618
     75 H          -3.0440   -0.7300   -1.8906 H       1  UNL1        0.0621
     76 H          -1.9069   -0.8882   -0.2074 H       1  UNL1        0.0477
     77 H          -2.3515   -1.6325    1.3604 H       1  UNL1        0.0477
@<TRIPOS>BOND
     1     1     2    1
     2     2     3   ar
     3     3     4   ar
     4     4     5   ar
     5     5     6   ar
     6     6     7   ar
     7     7     8    1
     8     8     9    1
     9     9    10    1
    10    10    11    1
    11    11    12    1
    12    12    13    1
    13    13    14   ar
    14    14    15   ar
    15    15    16   ar
    16    16    17    1
    17    16    18   ar
    18    18    19   ar
    19    10    20    1
    20    20    21    1
    21    21    22    1
    22    22    23    1
    23    23    24    2
    24    23    25   am
    25    25    26    1
    26    26    27    1
    27    27    28    1
    28    28    29   ar
    29    29    30   ar
    30    30    31   ar
    31    31    32   ar
    32    32    33   ar
    33    27    34    1
    34    34    35   ar
    35    35    36   ar
    36    36    37   ar
    37    37    38   ar
    38    38    39   ar
    39    27    40    1
    40     7     2   ar
    41    22     8    1
    42    40    25    1
    43    19    13   ar
    44    33    28   ar
    45    39    34   ar
    46     1    41    1
    47     1    42    1
    48     1    43    1
    49     3    44    1
    50     4    45    1
    51     5    46    1
    52     6    47    1
    53     8    48    1
    54     9    49    1
    55     9    50    1
    56    10    51    1
    57    11    52    1
    58    12    53    1
    59    12    54    1
    60    14    55    1
    61    15    56    1
    62    18    57    1
    63    19    58    1
    64    20    59    1
    65    20    60    1
    66    21    61    1
    67    21    62    1
    68    22    63    1
    69    26    64    1
    70    26    65    1
    71    29    66    1
    72    30    67    1
    73    31    68    1
    74    32    69    1
    75    33    70    1
    76    35    71    1
    77    36    72    1
    78    37    73    1
    79    38    74    1
    80    39    75    1
    81    40    76    1
    82    40    77    1
