@<TRIPOS>MOLECULE
*****
 54 58 0 0 0
SMALL
GASTEIGER

@<TRIPOS>ATOM
      1 C           8.4348    2.4664   -2.1230 C.3     1  UNL1        0.0788
      2 O           7.0601    2.2338   -2.3762 O.3     1  UNL1       -0.4951
      3 C           6.3683    1.4456   -1.4672 C.ar    1  UNL1        0.1208
      4 C           6.9625    0.8966   -0.3545 C.ar    1  UNL1       -0.0196
      5 C           6.2761    0.1173    0.5433 C.ar    1  UNL1       -0.0529
      6 C           4.9257   -0.1487    0.3522 C.ar    1  UNL1       -0.0173
      7 C           4.3102    0.3823   -0.7423 C.ar    1  UNL1        0.0454
      8 C           5.0231    1.1672   -1.6369 C.ar    1  UNL1       -0.0075
      9 C           2.9099   -0.0557   -0.6917 C.2     1  UNL1        0.2530
     10 O           2.0107    0.2178   -1.5154 O.2     1  UNL1       -0.2696
     11 N           2.7083   -0.8602    0.4596 N.am    1  UNL1       -0.2420
     12 C           1.4437   -1.4656    0.8263 C.ar    1  UNL1        0.1682
     13 N           0.3402   -1.5781    0.5077 N.ar    1  UNL1       -0.2198
     14 C          -0.6487   -2.2221    1.0547 C.ar    1  UNL1        0.1349
     15 C          -2.0495   -2.3109    0.5684 C.2     1  UNL1        0.2672
     16 O          -2.9021   -2.9727    1.1984 O.2     1  UNL1       -0.2682
     17 N          -2.4676   -1.6528   -0.6198 N.am    1  UNL1       -0.2775
     18 C          -3.7807   -1.6886   -1.1435 C.ar    1  UNL1        0.0733
     19 C          -4.1897   -2.7120   -1.9998 C.ar    1  UNL1        0.0506
     20 N          -5.4460   -2.6982   -2.4811 N.ar    1  UNL1       -0.2613
     21 C          -6.3451   -1.7437   -2.1827 C.ar    1  UNL1        0.0294
     22 C          -5.9468   -0.7316   -1.3385 C.ar    1  UNL1       -0.0207
     23 C          -4.6658   -0.7019   -0.8181 C.ar    1  UNL1        0.0542
     24 N          -4.2635    0.3408    0.0387 N.pl3   1  UNL1       -0.3260
     25 C          -3.8431    0.2324    1.4053 C.3     1  UNL1        0.0248
     26 C          -4.5432    1.3958    2.1332 C.3     1  UNL1        0.0117
     27 N          -3.9343    2.6132    1.6928 N.3     1  UNL1       -0.3130
     28 C          -3.3833    2.5313    0.3531 C.3     1  UNL1        0.0117
     29 C          -4.2733    1.7009   -0.5207 C.3     1  UNL1        0.0248
     30 C          -0.2796   -2.8934    2.2478 C.ar    1  UNL1        0.0094
     31 S           1.4495   -2.5019    2.4172 S.2     1  UNL1       -0.0595
     32 C           3.9783   -0.9323    1.1409 C.3     1  UNL1        0.0477
     33 H           8.7632    3.2857   -2.7956 H       1  UNL1        0.0660
     34 H           8.6321    2.7815   -1.0924 H       1  UNL1        0.0660
     35 H           9.0411    1.5564   -2.3389 H       1  UNL1        0.0660
     36 H           8.0105    1.0744   -0.1619 H       1  UNL1        0.0654
     37 H           6.8069   -0.2907    1.4101 H       1  UNL1        0.0622
     38 H           4.5107    1.5662   -2.4816 H       1  UNL1        0.0662
     39 H          -1.7026   -1.1061   -1.1170 H       1  UNL1        0.1553
     40 H          -3.4911   -3.4931   -2.2584 H       1  UNL1        0.0849
     41 H          -7.3654   -1.7717   -2.6004 H       1  UNL1        0.0830
     42 H          -6.6583    0.0406   -1.0908 H       1  UNL1        0.0652
     43 H          -2.7447    0.3027    1.5488 H       1  UNL1        0.0476
     44 H          -4.2151   -0.6796    1.8886 H       1  UNL1        0.0476
     45 H          -4.4457    1.2767    3.2228 H       1  UNL1        0.0439
     46 H          -5.6028    1.4000    1.8639 H       1  UNL1        0.0439
     47 H          -3.2030    2.9490    2.3633 H       1  UNL1        0.1220
     48 H          -2.3917    2.0234    0.3969 H       1  UNL1        0.0439
     49 H          -3.1991    3.5259   -0.0850 H       1  UNL1        0.0439
     50 H          -3.9482    1.7264   -1.5601 H       1  UNL1        0.0476
     51 H          -5.3188    2.0668   -0.3646 H       1  UNL1        0.0476
     52 H          -0.8918   -3.4942    2.8961 H       1  UNL1        0.0717
     53 H           4.3011   -2.0123    1.1217 H       1  UNL1        0.0519
     54 H           3.8739   -0.5988    2.1921 H       1  UNL1        0.0519
@<TRIPOS>BOND
     1     1     2    1
     2     2     3    1
     3     3     4   ar
     4     4     5   ar
     5     5     6   ar
     6     6     7   ar
     7     7     8   ar
     8     7     9    1
     9     9    10    2
    10     9    11   am
    11    11    12    1
    12    12    13   ar
    13    13    14   ar
    14    14    15    1
    15    15    16    2
    16    15    17   am
    17    17    18    1
    18    18    19   ar
    19    19    20   ar
    20    20    21   ar
    21    21    22   ar
    22    22    23   ar
    23    23    24    1
    24    24    25    1
    25    25    26    1
    26    26    27    1
    27    27    28    1
    28    28    29    1
    29    14    30   ar
    30    30    31   ar
    31    11    32    1
    32     8     3   ar
    33    31    12   ar
    34    32     6    1
    35    23    18   ar
    36    29    24    1
    37     1    33    1
    38     1    34    1
    39     1    35    1
    40     4    36    1
    41     5    37    1
    42     8    38    1
    43    17    39    1
    44    19    40    1
    45    21    41    1
    46    22    42    1
    47    25    43    1
    48    25    44    1
    49    26    45    1
    50    26    46    1
    51    27    47    1
    52    28    48    1
    53    28    49    1
    54    29    50    1
    55    29    51    1
    56    30    52    1
    57    32    53    1
    58    32    54    1
