@<TRIPOS>MOLECULE
*****
 59 62 0 0 0
SMALL
GASTEIGER

@<TRIPOS>ATOM
      1 C           1.2442    1.0466   -3.5493 C.3     1  UNL1       -0.0045
      2 C           1.5671    0.8842   -2.0962 C.ar    1  UNL1        0.1301
      3 N           0.5727    0.6893   -1.2143 N.ar    1  UNL1       -0.2174
      4 C           0.7820    0.5358    0.0967 C.ar    1  UNL1        0.1296
      5 N          -0.2335    0.3310    1.0447 N.pl3   1  UNL1       -0.2785
      6 C          -1.5843    0.2899    0.5244 C.ar    1  UNL1        0.1641
      7 N          -2.2194    0.3646   -0.4536 N.ar    1  UNL1       -0.2322
      8 C          -3.5150    0.2840   -0.6253 C.ar    1  UNL1        0.0491
      9 C          -4.2425    0.0773    0.5392 C.ar    1  UNL1        0.0953
     10 C          -5.6800   -0.0631    0.7495 C.2     1  UNL1        0.2565
     11 O          -6.1538   -0.2487    1.9097 O.2     1  UNL1       -0.2692
     12 N          -6.6059   -0.0007   -0.3131 N.am    1  UNL1       -0.2796
     13 C          -7.9942   -0.1356   -0.1146 C.ar    1  UNL1        0.0551
     14 C          -8.5793   -1.3780   -0.1660 C.ar    1  UNL1       -0.0278
     15 C          -7.7681   -2.5723   -0.4256 C.3     1  UNL1       -0.0379
     16 C          -9.9603   -1.5129    0.0304 C.ar    1  UNL1       -0.0570
     17 C         -10.7399   -0.3913    0.2773 C.ar    1  UNL1       -0.0600
     18 C         -10.1584    0.8391    0.3278 C.ar    1  UNL1       -0.0416
     19 C          -8.7906    0.9515    0.1309 C.ar    1  UNL1        0.0624
     20 CL         -8.0477    2.5261    0.1956 Cl      1  UNL1       -0.0816
     21 S          -2.9662    0.0173    1.7992 S.2     1  UNL1       -0.0475
     22 C           2.1206    0.5878    0.5291 C.ar    1  UNL1        0.0185
     23 C           3.1392    0.7854   -0.3586 C.ar    1  UNL1        0.1266
     24 N           4.4752    0.8328    0.0592 N.pl3   1  UNL1       -0.3126
     25 C           5.4958    1.2532   -0.9025 C.3     1  UNL1        0.0263
     26 C           6.8558    1.2582   -0.2318 C.3     1  UNL1        0.0148
     27 N           7.0946   -0.0314    0.3966 N.3     1  UNL1       -0.2972
     28 C           8.4620   -0.1708    0.7292 C.3     1  UNL1        0.0222
     29 C           8.8967   -1.4491    1.3424 C.3     1  UNL1        0.0569
     30 O           8.2929   -1.7755    2.5449 O.3     1  UNL1       -0.3937
     31 C           6.1224   -0.3750    1.3600 C.3     1  UNL1        0.0148
     32 C           4.8747    0.4887    1.3731 C.3     1  UNL1        0.0263
     33 N           2.8437    0.9306   -1.6591 N.ar    1  UNL1       -0.2175
     34 H           0.6734    0.1668   -3.9315 H       1  UNL1        0.0308
     35 H           0.6659    1.9765   -3.7398 H       1  UNL1        0.0308
     36 H           2.1679    1.0973   -4.1475 H       1  UNL1        0.0308
     37 H          -0.0222    0.2170    2.0533 H       1  UNL1        0.1555
     38 H          -4.0183    0.3674   -1.5892 H       1  UNL1        0.0843
     39 H          -6.2175    0.1522   -1.2711 H       1  UNL1        0.1552
     40 H          -7.7579   -3.2096    0.4776 H       1  UNL1        0.0278
     41 H          -8.1458   -3.1310   -1.3216 H       1  UNL1        0.0278
     42 H          -6.7385   -2.2786   -0.6671 H       1  UNL1        0.0278
     43 H         -10.4144   -2.4872   -0.0107 H       1  UNL1        0.0621
     44 H         -11.8184   -0.4741    0.4332 H       1  UNL1        0.0618
     45 H         -10.7245    1.7381    0.5167 H       1  UNL1        0.0633
     46 H           2.2905    0.4709    1.5722 H       1  UNL1        0.0686
     47 H           5.2458    2.2620   -1.2328 H       1  UNL1        0.0477
     48 H           5.5384    0.5721   -1.7734 H       1  UNL1        0.0477
     49 H           7.6095    1.3937   -1.0344 H       1  UNL1        0.0442
     50 H           6.9285    2.1038    0.4498 H       1  UNL1        0.0442
     51 H           8.8587    0.6616    1.3677 H       1  UNL1        0.0449
     52 H           9.0448   -0.0577   -0.2331 H       1  UNL1        0.0449
     53 H           8.8801   -2.3125    0.6213 H       1  UNL1        0.0570
     54 H           9.9969   -1.3431    1.5841 H       1  UNL1        0.0570
     55 H           8.8851   -2.2097    3.1887 H       1  UNL1        0.2095
     56 H           6.4788   -0.3689    2.4112 H       1  UNL1        0.0442
     57 H           5.7796   -1.4211    1.1572 H       1  UNL1        0.0442
     58 H           4.1273   -0.1184    1.9523 H       1  UNL1        0.0477
     59 H           5.0861    1.3636    2.0281 H       1  UNL1        0.0477
@<TRIPOS>BOND
     1     1     2    1
     2     2     3   ar
     3     3     4   ar
     4     4     5    1
     5     5     6    1
     6     6     7   ar
     7     7     8   ar
     8     8     9   ar
     9     9    10    1
    10    10    11    2
    11    10    12   am
    12    12    13    1
    13    13    14   ar
    14    14    15    1
    15    14    16   ar
    16    16    17   ar
    17    17    18   ar
    18    18    19   ar
    19    19    20    1
    20     9    21   ar
    21     4    22   ar
    22    22    23   ar
    23    23    24    1
    24    24    25    1
    25    25    26    1
    26    26    27    1
    27    27    28    1
    28    28    29    1
    29    29    30    1
    30    27    31    1
    31    31    32    1
    32    23    33   ar
    33    33     2   ar
    34    21     6   ar
    35    32    24    1
    36    19    13   ar
    37     1    34    1
    38     1    35    1
    39     1    36    1
    40     5    37    1
    41     8    38    1
    42    12    39    1
    43    15    40    1
    44    15    41    1
    45    15    42    1
    46    16    43    1
    47    17    44    1
    48    18    45    1
    49    22    46    1
    50    25    47    1
    51    25    48    1
    52    26    49    1
    53    26    50    1
    54    28    51    1
    55    28    52    1
    56    29    53    1
    57    29    54    1
    58    30    55    1
    59    31    56    1
    60    31    57    1
    61    32    58    1
    62    32    59    1
