@<TRIPOS>MOLECULE
*****
 50 53 0 0 0
SMALL
GASTEIGER

@<TRIPOS>ATOM
      1 C          -2.9970   -0.9975   -1.8534 C.3     1  UNL1       -0.0473
      2 C          -3.1757    0.1765   -0.8434 C.3     1  UNL1        0.0319
      3 C          -2.7104   -0.3660    0.4736 C.3     1  UNL1        0.0755
      4 C          -1.2870   -0.7762    0.3146 C.ar    1  UNL1       -0.0231
      5 C          -0.3570    0.0047   -0.2935 C.ar    1  UNL1       -0.0548
      6 C           0.9439   -0.4570   -0.4001 C.ar    1  UNL1       -0.0402
      7 C           1.3660   -1.6790    0.0796 C.ar    1  UNL1        0.0328
      8 N           2.6865   -2.1604    0.0051 N.pl3   1  UNL1       -0.2937
      9 C           3.8534   -1.3765   -0.0528 C.ar    1  UNL1        0.1634
     10 N           5.0757   -1.6181   -0.1669 N.ar    1  UNL1       -0.2246
     11 C           6.0306   -0.7592   -0.1803 C.ar    1  UNL1        0.0803
     12 C           7.4198   -1.0183   -0.3069 C.ar    1  UNL1       -0.0351
     13 C           8.2895    0.0377   -0.2977 C.ar    1  UNL1       -0.0597
     14 C           7.9396    1.3625   -0.1743 C.ar    1  UNL1       -0.0606
     15 C           6.5688    1.6366   -0.0482 C.ar    1  UNL1       -0.0458
     16 C           5.6959    0.5905   -0.0565 C.ar    1  UNL1        0.0408
     17 S           3.8880    0.4280    0.0745 S.2     1  UNL1       -0.0521
     18 C           0.3708   -2.4448    0.6967 C.ar    1  UNL1       -0.0402
     19 C          -0.9297   -2.0259    0.8233 C.ar    1  UNL1       -0.0548
     20 N          -2.9109    0.4792    1.6047 N.ar    1  UNL1       -0.3279
     21 C          -2.0659    1.4431    1.9885 C.ar    1  UNL1        0.0247
     22 C          -2.5801    2.0347    3.1149 C.ar    1  UNL1        0.0454
     23 N          -3.7282    1.3967    3.3686 N.ar    1  UNL1       -0.2440
     24 C          -3.9445    0.4413    2.4523 C.ar    1  UNL1        0.0965
     25 N          -4.5390    0.5694   -0.9227 N.3     1  UNL1       -0.3034
     26 C          -4.9474    1.7293   -0.2215 C.3     1  UNL1       -0.0127
     27 C          -5.0277    0.6165   -2.2856 C.3     1  UNL1       -0.0127
     28 H          -2.1339   -1.6176   -1.5312 H       1  UNL1        0.0245
     29 H          -3.8956   -1.6249   -1.7813 H       1  UNL1        0.0245
     30 H          -2.7780   -0.6257   -2.8584 H       1  UNL1        0.0245
     31 H          -2.5626    0.9938   -1.2548 H       1  UNL1        0.0483
     32 H          -3.2831   -1.3186    0.6923 H       1  UNL1        0.0593
     33 H          -0.6574    0.9692   -0.6776 H       1  UNL1        0.0622
     34 H           1.6275    0.2036   -0.9002 H       1  UNL1        0.0636
     35 H           2.8365   -3.1874   -0.0098 H       1  UNL1        0.1541
     36 H           7.7835   -2.0306   -0.4085 H       1  UNL1        0.0639
     37 H           9.3576   -0.2442   -0.4013 H       1  UNL1        0.0618
     38 H           8.6410    2.1668   -0.1700 H       1  UNL1        0.0618
     39 H           6.2020    2.6527    0.0547 H       1  UNL1        0.0629
     40 H           0.6640   -3.4285    1.0948 H       1  UNL1        0.0636
     41 H          -1.6368   -2.6814    1.3153 H       1  UNL1        0.0622
     42 H          -1.1146    1.7573    1.5312 H       1  UNL1        0.0825
     43 H          -2.1554    2.8623    3.7032 H       1  UNL1        0.0845
     44 H          -4.8205   -0.2270    2.4359 H       1  UNL1        0.1029
     45 H          -5.4787    2.4763   -0.9025 H       1  UNL1        0.0391
     46 H          -4.1756    2.3205    0.2739 H       1  UNL1        0.0391
     47 H          -5.7787    1.4349    0.4845 H       1  UNL1        0.0391
     48 H          -5.5046   -0.3425   -2.5880 H       1  UNL1        0.0391
     49 H          -4.2302    0.8378   -3.0254 H       1  UNL1        0.0391
     50 H          -5.8345    1.3856   -2.3628 H       1  UNL1        0.0391
@<TRIPOS>BOND
     1     1     2    1
     2     2     3    1
     3     3     4    1
     4     4     5   ar
     5     5     6   ar
     6     6     7   ar
     7     7     8    1
     8     8     9    1
     9     9    10   ar
    10    10    11   ar
    11    11    12   ar
    12    12    13   ar
    13    13    14   ar
    14    14    15   ar
    15    15    16   ar
    16    16    17   ar
    17     7    18   ar
    18    18    19   ar
    19     3    20    1
    20    20    21   ar
    21    21    22   ar
    22    22    23   ar
    23    23    24   ar
    24     2    25    1
    25    25    26    1
    26    25    27    1
    27    19     4   ar
    28    24    20   ar
    29    17     9   ar
    30    16    11   ar
    31     1    28    1
    32     1    29    1
    33     1    30    1
    34     2    31    1
    35     3    32    1
    36     5    33    1
    37     6    34    1
    38     8    35    1
    39    12    36    1
    40    13    37    1
    41    14    38    1
    42    15    39    1
    43    18    40    1
    44    19    41    1
    45    21    42    1
    46    22    43    1
    47    24    44    1
    48    26    45    1
    49    26    46    1
    50    26    47    1
    51    27    48    1
    52    27    49    1
    53    27    50    1
