@<TRIPOS>MOLECULE
*****
 53 54 0 0 0
SMALL
GASTEIGER

@<TRIPOS>ATOM
      1 C           6.4890   -0.9718    0.1285 C.3     1  UNL1       -0.0653
      2 C           6.2852   -2.4481    0.2419 C.3     1  UNL1       -0.0552
      3 C           5.2567   -2.9417   -0.7163 C.3     1  UNL1       -0.0439
      4 C           3.8883   -2.3424   -0.5251 C.3     1  UNL1       -0.0017
      5 S           3.8468   -0.5597   -0.7148 S.3     1  UNL1       -0.1252
      6 C           2.1981    0.0460   -0.4638 C.ar    1  UNL1        0.0079
      7 C           1.2776    0.2019   -1.4710 C.ar    1  UNL1       -0.0480
      8 C          -0.0029    0.6790   -1.2472 C.ar    1  UNL1       -0.0562
      9 C          -0.3515    1.0093    0.0657 C.ar    1  UNL1       -0.0301
     10 C           0.5609    0.8587    1.0933 C.ar    1  UNL1       -0.0562
     11 C           1.8441    0.3768    0.8443 C.ar    1  UNL1       -0.0480
     12 C          -1.7075    1.5579    0.4076 C.3     1  UNL1        0.0551
     13 S          -2.8954    1.3927   -0.9117 S.3     1  UNL1       -0.1467
     14 C          -3.3782   -0.2818   -1.3087 C.3     1  UNL1        0.0073
     15 C          -4.1539   -0.9164   -0.1938 C.3     1  UNL1        0.0074
     16 N          -4.5948   -2.2382   -0.3985 N.3     1  UNL1       -0.3076
     17 C          -3.6421   -3.2775   -0.4568 C.3     1  UNL1       -0.0130
     18 C          -5.8452   -2.5820    0.1922 C.3     1  UNL1       -0.0130
     19 C          -1.4723    3.0330    0.5948 C.ar    1  UNL1       -0.0301
     20 C          -1.1953    3.4427    1.8698 C.ar    1  UNL1       -0.0572
     21 C          -0.9731    4.8081    2.0546 C.ar    1  UNL1       -0.0615
     22 C          -1.0303    5.6968    1.0042 C.ar    1  UNL1       -0.0617
     23 C          -1.3116    5.2510   -0.2668 C.ar    1  UNL1       -0.0615
     24 C          -1.5361    3.8973   -0.4735 C.ar    1  UNL1       -0.0572
     25 H           7.5519   -0.7617    0.4521 H       1  UNL1        0.0230
     26 H           5.8287   -0.4065    0.8391 H       1  UNL1        0.0230
     27 H           6.3728   -0.5835   -0.8951 H       1  UNL1        0.0230
     28 H           7.2243   -3.0273    0.1001 H       1  UNL1        0.0263
     29 H           5.9420   -2.7445    1.2756 H       1  UNL1        0.0263
     30 H           5.5819   -2.7276   -1.7658 H       1  UNL1        0.0273
     31 H           5.1159   -4.0506   -0.5743 H       1  UNL1        0.0273
     32 H           3.5245   -2.6119    0.5043 H       1  UNL1        0.0380
     33 H           3.2343   -2.8145   -1.2888 H       1  UNL1        0.0380
     34 H           1.5528   -0.0569   -2.4892 H       1  UNL1        0.0629
     35 H          -0.7379    0.8067   -2.0191 H       1  UNL1        0.0621
     36 H           0.3657    1.0902    2.1317 H       1  UNL1        0.0621
     37 H           2.5687    0.2568    1.6577 H       1  UNL1        0.0629
     38 H          -2.0418    1.0651    1.3206 H       1  UNL1        0.0510
     39 H          -4.0319   -0.2311   -2.2054 H       1  UNL1        0.0389
     40 H          -2.4593   -0.8882   -1.4510 H       1  UNL1        0.0389
     41 H          -3.4918   -0.9118    0.7006 H       1  UNL1        0.0434
     42 H          -5.0198   -0.2704    0.0947 H       1  UNL1        0.0434
     43 H          -2.6794   -3.0367   -0.8910 H       1  UNL1        0.0391
     44 H          -3.4280   -3.5912    0.6089 H       1  UNL1        0.0391
     45 H          -4.0961   -4.1825   -0.9147 H       1  UNL1        0.0391
     46 H          -5.7595   -2.6599    1.3075 H       1  UNL1        0.0391
     47 H          -6.1326   -3.5981   -0.1533 H       1  UNL1        0.0391
     48 H          -6.6800   -1.9151   -0.1125 H       1  UNL1        0.0391
     49 H          -1.1286    2.8461    2.7525 H       1  UNL1        0.0621
     50 H          -0.7466    5.1899    3.0532 H       1  UNL1        0.0618
     51 H          -0.8515    6.7542    1.1806 H       1  UNL1        0.0618
     52 H          -1.3698    5.9097   -1.1271 H       1  UNL1        0.0618
     53 H          -1.7657    3.4597   -1.4407 H       1  UNL1        0.0621
@<TRIPOS>BOND
     1     1     2    1
     2     2     3    1
     3     3     4    1
     4     4     5    1
     5     5     6    1
     6     6     7   ar
     7     7     8   ar
     8     8     9   ar
     9     9    10   ar
    10    10    11   ar
    11     9    12    1
    12    12    13    1
    13    13    14    1
    14    14    15    1
    15    15    16    1
    16    16    17    1
    17    16    18    1
    18    12    19    1
    19    19    20   ar
    20    20    21   ar
    21    21    22   ar
    22    22    23   ar
    23    23    24   ar
    24    11     6   ar
    25    24    19   ar
    26     1    25    1
    27     1    26    1
    28     1    27    1
    29     2    28    1
    30     2    29    1
    31     3    30    1
    32     3    31    1
    33     4    32    1
    34     4    33    1
    35     7    34    1
    36     8    35    1
    37    10    36    1
    38    11    37    1
    39    12    38    1
    40    14    39    1
    41    14    40    1
    42    15    41    1
    43    15    42    1
    44    17    43    1
    45    17    44    1
    46    17    45    1
    47    18    46    1
    48    18    47    1
    49    18    48    1
    50    20    49    1
    51    21    50    1
    52    22    51    1
    53    23    52    1
    54    24    53    1
