
     RDKit          3D

 53 54  0  0  0  0  0  0  0  0999 V2000
    6.4890   -0.9718    0.1285 C   0  0  0  0  0  0  0  0  0  0  0  0
    6.2852   -2.4481    0.2419 C   0  0  0  0  0  0  0  0  0  0  0  0
    5.2567   -2.9417   -0.7163 C   0  0  0  0  0  0  0  0  0  0  0  0
    3.8883   -2.3424   -0.5251 C   0  0  0  0  0  0  0  0  0  0  0  0
    3.8468   -0.5597   -0.7148 S   0  0  0  0  0  0  0  0  0  0  0  0
    2.1981    0.0460   -0.4638 C   0  0  0  0  0  0  0  0  0  0  0  0
    1.2776    0.2019   -1.4710 C   0  0  0  0  0  0  0  0  0  0  0  0
   -0.0029    0.6790   -1.2472 C   0  0  0  0  0  0  0  0  0  0  0  0
   -0.3515    1.0093    0.0657 C   0  0  0  0  0  0  0  0  0  0  0  0
    0.5609    0.8587    1.0933 C   0  0  0  0  0  0  0  0  0  0  0  0
    1.8441    0.3768    0.8443 C   0  0  0  0  0  0  0  0  0  0  0  0
   -1.7075    1.5579    0.4076 C   0  0  0  0  0  0  0  0  0  0  0  0
   -2.8954    1.3927   -0.9117 S   0  0  0  0  0  0  0  0  0  0  0  0
   -3.3782   -0.2818   -1.3087 C   0  0  0  0  0  0  0  0  0  0  0  0
   -4.1539   -0.9164   -0.1938 C   0  0  0  0  0  0  0  0  0  0  0  0
   -4.5948   -2.2382   -0.3985 N   0  0  0  0  0  0  0  0  0  0  0  0
   -3.6421   -3.2775   -0.4568 C   0  0  0  0  0  0  0  0  0  0  0  0
   -5.8452   -2.5820    0.1922 C   0  0  0  0  0  0  0  0  0  0  0  0
   -1.4723    3.0330    0.5948 C   0  0  0  0  0  0  0  0  0  0  0  0
   -1.1953    3.4427    1.8698 C   0  0  0  0  0  0  0  0  0  0  0  0
   -0.9731    4.8081    2.0546 C   0  0  0  0  0  0  0  0  0  0  0  0
   -1.0303    5.6968    1.0042 C   0  0  0  0  0  0  0  0  0  0  0  0
   -1.3116    5.2510   -0.2668 C   0  0  0  0  0  0  0  0  0  0  0  0
   -1.5361    3.8973   -0.4735 C   0  0  0  0  0  0  0  0  0  0  0  0
    7.5519   -0.7617    0.4521 H   0  0  0  0  0  0  0  0  0  0  0  0
    5.8287   -0.4065    0.8391 H   0  0  0  0  0  0  0  0  0  0  0  0
    6.3728   -0.5835   -0.8951 H   0  0  0  0  0  0  0  0  0  0  0  0
    7.2243   -3.0273    0.1001 H   0  0  0  0  0  0  0  0  0  0  0  0
    5.9420   -2.7445    1.2756 H   0  0  0  0  0  0  0  0  0  0  0  0
    5.5819   -2.7276   -1.7658 H   0  0  0  0  0  0  0  0  0  0  0  0
    5.1159   -4.0506   -0.5743 H   0  0  0  0  0  0  0  0  0  0  0  0
    3.5245   -2.6119    0.5043 H   0  0  0  0  0  0  0  0  0  0  0  0
    3.2343   -2.8145   -1.2888 H   0  0  0  0  0  0  0  0  0  0  0  0
    1.5528   -0.0569   -2.4892 H   0  0  0  0  0  0  0  0  0  0  0  0
   -0.7379    0.8067   -2.0191 H   0  0  0  0  0  0  0  0  0  0  0  0
    0.3657    1.0902    2.1317 H   0  0  0  0  0  0  0  0  0  0  0  0
    2.5687    0.2568    1.6577 H   0  0  0  0  0  0  0  0  0  0  0  0
   -2.0418    1.0651    1.3206 H   0  0  0  0  0  0  0  0  0  0  0  0
   -4.0319   -0.2311   -2.2054 H   0  0  0  0  0  0  0  0  0  0  0  0
   -2.4593   -0.8882   -1.4510 H   0  0  0  0  0  0  0  0  0  0  0  0
   -3.4918   -0.9118    0.7006 H   0  0  0  0  0  0  0  0  0  0  0  0
   -5.0198   -0.2704    0.0947 H   0  0  0  0  0  0  0  0  0  0  0  0
   -2.6794   -3.0367   -0.8910 H   0  0  0  0  0  0  0  0  0  0  0  0
   -3.4280   -3.5912    0.6089 H   0  0  0  0  0  0  0  0  0  0  0  0
   -4.0961   -4.1825   -0.9147 H   0  0  0  0  0  0  0  0  0  0  0  0
   -5.7595   -2.6599    1.3075 H   0  0  0  0  0  0  0  0  0  0  0  0
   -6.1326   -3.5981   -0.1533 H   0  0  0  0  0  0  0  0  0  0  0  0
   -6.6800   -1.9151   -0.1125 H   0  0  0  0  0  0  0  0  0  0  0  0
   -1.1286    2.8461    2.7525 H   0  0  0  0  0  0  0  0  0  0  0  0
   -0.7466    5.1899    3.0532 H   0  0  0  0  0  0  0  0  0  0  0  0
   -0.8515    6.7542    1.1806 H   0  0  0  0  0  0  0  0  0  0  0  0
   -1.3698    5.9097   -1.1271 H   0  0  0  0  0  0  0  0  0  0  0  0
   -1.7657    3.4597   -1.4407 H   0  0  0  0  0  0  0  0  0  0  0  0
  1  2  1  0
  2  3  1  0
  3  4  1  0
  4  5  1  0
  5  6  1  0
  6  7  2  0
  7  8  1  0
  8  9  2  0
  9 10  1  0
 10 11  2  0
  9 12  1  0
 12 13  1  0
 13 14  1  0
 14 15  1  0
 15 16  1  0
 16 17  1  0
 16 18  1  0
 12 19  1  0
 19 20  2  0
 20 21  1  0
 21 22  2  0
 22 23  1  0
 23 24  2  0
 11  6  1  0
 24 19  1  0
  1 25  1  0
  1 26  1  0
  1 27  1  0
  2 28  1  0
  2 29  1  0
  3 30  1  0
  3 31  1  0
  4 32  1  0
  4 33  1  0
  7 34  1  0
  8 35  1  0
 10 36  1  0
 11 37  1  0
 12 38  1  0
 14 39  1  0
 14 40  1  0
 15 41  1  0
 15 42  1  0
 17 43  1  0
 17 44  1  0
 17 45  1  0
 18 46  1  0
 18 47  1  0
 18 48  1  0
 20 49  1  0
 21 50  1  0
 22 51  1  0
 23 52  1  0
 24 53  1  0
M  END
$$$$
