@<TRIPOS>MOLECULE
*****
 53 56 0 0 0
SMALL
GASTEIGER

@<TRIPOS>ATOM
      1 C          -6.3648   -1.6906   -0.4406 C.3     1  UNL1       -0.0125
      2 N          -5.2391   -0.9845   -1.0282 N.3     1  UNL1       -0.3021
      3 C          -5.7483    0.1748   -1.7090 C.3     1  UNL1       -0.0011
      4 C          -5.7080    1.3172   -0.7497 C.3     1  UNL1       -0.0388
      5 C          -4.8983    0.8606    0.4393 C.3     1  UNL1       -0.0359
      6 C          -4.4036   -0.5198    0.0588 C.3     1  UNL1        0.0142
      7 C          -2.9596   -0.4255   -0.3166 C.3     1  UNL1       -0.0100
      8 C          -2.1784    0.0497    0.8516 C.ar    1  UNL1       -0.0209
      9 C          -2.5461    0.3251    2.1557 C.ar    1  UNL1        0.0060
     10 N          -1.5244    0.7287    2.8924 N.ar    1  UNL1       -0.3604
     11 C          -0.4619    0.7241    2.0752 C.ar    1  UNL1        0.0467
     12 C          -0.8253    0.3122    0.8126 C.ar    1  UNL1        0.0031
     13 C           0.1517    0.2488   -0.1580 C.ar    1  UNL1       -0.0491
     14 C           1.4946    0.5686    0.0248 C.ar    1  UNL1       -0.0451
     15 C           2.3553    0.4355   -1.1580 C.3     1  UNL1       -0.0078
     16 C           2.9311   -0.9129   -1.3872 C.3     1  UNL1        0.0748
     17 S           3.9871   -1.5552   -0.1603 S.O2    1  UNL1       -0.0028
     18 O           4.3661   -2.9805   -0.5306 O.2     1  UNL1       -0.1693
     19 O           3.2307   -1.6732    1.1373 O.2     1  UNL1       -0.1693
     20 C           5.4206   -0.6471    0.1415 C.ar    1  UNL1        0.0882
     21 C           5.7639    0.2663    1.1070 C.ar    1  UNL1       -0.0369
     22 C           6.9812    0.8882    1.1452 C.ar    1  UNL1       -0.0600
     23 C           7.9526    0.6297    0.2002 C.ar    1  UNL1       -0.0616
     24 C           7.6548   -0.2834   -0.7929 C.ar    1  UNL1       -0.0600
     25 C           6.4120   -0.8972   -0.8051 C.ar    1  UNL1       -0.0369
     26 C           1.7847    0.9717    1.3079 C.ar    1  UNL1       -0.0565
     27 C           0.8541    1.0551    2.3190 C.ar    1  UNL1       -0.0375
     28 H          -6.7925   -1.1238    0.4300 H       1  UNL1        0.0391
     29 H          -5.9711   -2.6393   -0.0227 H       1  UNL1        0.0391
     30 H          -7.1849   -1.8860   -1.1670 H       1  UNL1        0.0391
     31 H          -5.2469    0.3694   -2.6682 H       1  UNL1        0.0426
     32 H          -6.8277    0.0165   -1.9737 H       1  UNL1        0.0426
     33 H          -6.7315    1.6514   -0.4098 H       1  UNL1        0.0278
     34 H          -5.2350    2.2295   -1.1841 H       1  UNL1        0.0278
     35 H          -5.5320    0.8628    1.3533 H       1  UNL1        0.0281
     36 H          -4.0283    1.5353    0.5941 H       1  UNL1        0.0281
     37 H          -4.4999   -1.1859    0.9241 H       1  UNL1        0.0466
     38 H          -2.6140   -1.4345   -0.6433 H       1  UNL1        0.0329
     39 H          -2.8514    0.2796   -1.1686 H       1  UNL1        0.0329
     40 H          -3.5468    0.2214    2.5297 H       1  UNL1        0.0810
     41 H          -1.5198    1.0028    3.9117 H       1  UNL1        0.1653
     42 H          -0.2118   -0.0832   -1.1226 H       1  UNL1        0.0627
     43 H           1.7343    0.6711   -2.0725 H       1  UNL1        0.0329
     44 H           3.1436    1.2323   -1.1831 H       1  UNL1        0.0329
     45 H           2.0918   -1.6381   -1.5904 H       1  UNL1        0.0507
     46 H           3.5449   -0.8305   -2.3363 H       1  UNL1        0.0507
     47 H           4.9791    0.4176    1.8123 H       1  UNL1        0.0636
     48 H           7.0976    1.5781    1.9640 H       1  UNL1        0.0618
     49 H           8.8664    1.1851    0.3433 H       1  UNL1        0.0618
     50 H           8.4381   -0.4484   -1.4986 H       1  UNL1        0.0618
     51 H           6.3395   -1.5890   -1.6536 H       1  UNL1        0.0636
     52 H           2.8209    1.2288    1.4551 H       1  UNL1        0.0621
     53 H           1.2547    1.3908    3.2699 H       1  UNL1        0.0638
@<TRIPOS>BOND
     1     1     2    1
     2     2     3    1
     3     3     4    1
     4     4     5    1
     5     5     6    1
     6     6     7    1
     7     7     8    1
     8     8     9   ar
     9     9    10   ar
    10    10    11   ar
    11    11    12   ar
    12    12    13   ar
    13    13    14   ar
    14    14    15    1
    15    15    16    1
    16    16    17    1
    17    17    18    2
    18    17    19    2
    19    17    20    1
    20    20    21   ar
    21    21    22   ar
    22    22    23   ar
    23    23    24   ar
    24    24    25   ar
    25    14    26   ar
    26    26    27   ar
    27     6     2    1
    28    12     8   ar
    29    25    20   ar
    30    27    11   ar
    31     1    28    1
    32     1    29    1
    33     1    30    1
    34     3    31    1
    35     3    32    1
    36     4    33    1
    37     4    34    1
    38     5    35    1
    39     5    36    1
    40     6    37    1
    41     7    38    1
    42     7    39    1
    43     9    40    1
    44    10    41    1
    45    13    42    1
    46    15    43    1
    47    15    44    1
    48    16    45    1
    49    16    46    1
    50    21    47    1
    51    22    48    1
    52    23    49    1
    53    24    50    1
    54    25    51    1
    55    26    52    1
    56    27    53    1
