
     RDKit          3D

 53 56  0  0  0  0  0  0  0  0999 V2000
   -6.3648   -1.6906   -0.4406 C   0  0  0  0  0  0  0  0  0  0  0  0
   -5.2391   -0.9845   -1.0282 N   0  0  0  0  0  0  0  0  0  0  0  0
   -5.7483    0.1748   -1.7090 C   0  0  0  0  0  0  0  0  0  0  0  0
   -5.7080    1.3172   -0.7497 C   0  0  0  0  0  0  0  0  0  0  0  0
   -4.8983    0.8606    0.4393 C   0  0  0  0  0  0  0  0  0  0  0  0
   -4.4036   -0.5198    0.0588 C   0  0  2  0  0  0  0  0  0  0  0  0
   -2.9596   -0.4255   -0.3166 C   0  0  0  0  0  0  0  0  0  0  0  0
   -2.1784    0.0497    0.8516 C   0  0  0  0  0  0  0  0  0  0  0  0
   -2.5461    0.3251    2.1557 C   0  0  0  0  0  0  0  0  0  0  0  0
   -1.5244    0.7287    2.8924 N   0  0  0  0  0  0  0  0  0  0  0  0
   -0.4619    0.7241    2.0752 C   0  0  0  0  0  0  0  0  0  0  0  0
   -0.8253    0.3122    0.8126 C   0  0  0  0  0  0  0  0  0  0  0  0
    0.1517    0.2488   -0.1580 C   0  0  0  0  0  0  0  0  0  0  0  0
    1.4946    0.5686    0.0248 C   0  0  0  0  0  0  0  0  0  0  0  0
    2.3553    0.4355   -1.1580 C   0  0  0  0  0  0  0  0  0  0  0  0
    2.9311   -0.9129   -1.3872 C   0  0  0  0  0  0  0  0  0  0  0  0
    3.9871   -1.5552   -0.1603 S   0  0  0  0  0  0  0  0  0  0  0  0
    4.3661   -2.9805   -0.5306 O   0  0  0  0  0  0  0  0  0  0  0  0
    3.2307   -1.6732    1.1373 O   0  0  0  0  0  0  0  0  0  0  0  0
    5.4206   -0.6471    0.1415 C   0  0  0  0  0  0  0  0  0  0  0  0
    5.7639    0.2663    1.1070 C   0  0  0  0  0  0  0  0  0  0  0  0
    6.9812    0.8882    1.1452 C   0  0  0  0  0  0  0  0  0  0  0  0
    7.9526    0.6297    0.2002 C   0  0  0  0  0  0  0  0  0  0  0  0
    7.6548   -0.2834   -0.7929 C   0  0  0  0  0  0  0  0  0  0  0  0
    6.4120   -0.8972   -0.8051 C   0  0  0  0  0  0  0  0  0  0  0  0
    1.7847    0.9717    1.3079 C   0  0  0  0  0  0  0  0  0  0  0  0
    0.8541    1.0551    2.3190 C   0  0  0  0  0  0  0  0  0  0  0  0
   -6.7925   -1.1238    0.4300 H   0  0  0  0  0  0  0  0  0  0  0  0
   -5.9711   -2.6393   -0.0227 H   0  0  0  0  0  0  0  0  0  0  0  0
   -7.1849   -1.8860   -1.1670 H   0  0  0  0  0  0  0  0  0  0  0  0
   -5.2469    0.3694   -2.6682 H   0  0  0  0  0  0  0  0  0  0  0  0
   -6.8277    0.0165   -1.9737 H   0  0  0  0  0  0  0  0  0  0  0  0
   -6.7315    1.6514   -0.4098 H   0  0  0  0  0  0  0  0  0  0  0  0
   -5.2350    2.2295   -1.1841 H   0  0  0  0  0  0  0  0  0  0  0  0
   -5.5320    0.8628    1.3533 H   0  0  0  0  0  0  0  0  0  0  0  0
   -4.0283    1.5353    0.5941 H   0  0  0  0  0  0  0  0  0  0  0  0
   -4.4999   -1.1859    0.9241 H   0  0  0  0  0  0  0  0  0  0  0  0
   -2.6140   -1.4345   -0.6433 H   0  0  0  0  0  0  0  0  0  0  0  0
   -2.8514    0.2796   -1.1686 H   0  0  0  0  0  0  0  0  0  0  0  0
   -3.5468    0.2214    2.5297 H   0  0  0  0  0  0  0  0  0  0  0  0
   -1.5198    1.0028    3.9117 H   0  0  0  0  0  0  0  0  0  0  0  0
   -0.2118   -0.0832   -1.1226 H   0  0  0  0  0  0  0  0  0  0  0  0
    1.7343    0.6711   -2.0725 H   0  0  0  0  0  0  0  0  0  0  0  0
    3.1436    1.2323   -1.1831 H   0  0  0  0  0  0  0  0  0  0  0  0
    2.0918   -1.6381   -1.5904 H   0  0  0  0  0  0  0  0  0  0  0  0
    3.5449   -0.8305   -2.3363 H   0  0  0  0  0  0  0  0  0  0  0  0
    4.9791    0.4176    1.8123 H   0  0  0  0  0  0  0  0  0  0  0  0
    7.0976    1.5781    1.9640 H   0  0  0  0  0  0  0  0  0  0  0  0
    8.8664    1.1851    0.3433 H   0  0  0  0  0  0  0  0  0  0  0  0
    8.4381   -0.4484   -1.4986 H   0  0  0  0  0  0  0  0  0  0  0  0
    6.3395   -1.5890   -1.6536 H   0  0  0  0  0  0  0  0  0  0  0  0
    2.8209    1.2288    1.4551 H   0  0  0  0  0  0  0  0  0  0  0  0
    1.2547    1.3908    3.2699 H   0  0  0  0  0  0  0  0  0  0  0  0
  1  2  1  0
  2  3  1  0
  3  4  1  0
  4  5  1  0
  5  6  1  0
  6  7  1  0
  7  8  1  0
  8  9  2  0
  9 10  1  0
 10 11  1  0
 11 12  2  0
 12 13  1  0
 13 14  2  0
 14 15  1  0
 15 16  1  0
 16 17  1  0
 17 18  2  0
 17 19  2  0
 17 20  1  0
 20 21  2  0
 21 22  1  0
 22 23  2  0
 23 24  1  0
 24 25  2  0
 14 26  1  0
 26 27  2  0
  6  2  1  0
 12  8  1  0
 25 20  1  0
 27 11  1  0
  1 28  1  0
  1 29  1  0
  1 30  1  0
  3 31  1  0
  3 32  1  0
  4 33  1  0
  4 34  1  0
  5 35  1  0
  5 36  1  0
  6 37  1  1
  7 38  1  0
  7 39  1  0
  9 40  1  0
 10 41  1  0
 13 42  1  0
 15 43  1  0
 15 44  1  0
 16 45  1  0
 16 46  1  0
 21 47  1  0
 22 48  1  0
 23 49  1  0
 24 50  1  0
 25 51  1  0
 26 52  1  0
 27 53  1  0
M  END
$$$$
