
     RDKit          3D

 48 51  0  0  0  0  0  0  0  0999 V2000
   -3.6139   -1.2077    0.8031 N   0  0  0  0  0  0  0  0  0  0  0  0
   -2.2871   -1.8170    0.7277 C   0  0  2  0  0  0  0  0  0  0  0  0
   -1.7205   -1.9021    2.1118 C   0  0  0  0  0  0  0  0  0  0  0  0
   -0.2303   -1.6612    2.1571 C   0  0  0  0  0  0  0  0  0  0  0  0
    0.0382   -0.2664    1.5501 C   0  0  0  0  0  0  0  0  0  0  0  0
   -0.3433   -0.3711    0.1854 N   0  0  0  0  0  0  0  0  0  0  0  0
    0.3605    0.3728   -0.8149 C   0  0  0  0  0  0  0  0  0  0  0  0
    1.5293   -0.1601   -1.3731 C   0  0  0  0  0  0  0  0  0  0  0  0
    1.9995   -1.4457   -0.8362 C   0  0  0  0  0  0  0  0  0  0  0  0
    3.1844   -1.7083   -0.3951 C   0  0  0  0  0  0  0  0  0  0  0  0
    3.7269   -3.2872    0.2452 S   0  0  0  0  0  0  0  0  0  0  0  0
    5.3896   -2.7373    0.6306 C   0  0  0  0  0  0  0  0  0  0  0  0
    6.3692   -3.5712    1.1876 O   0  0  0  0  0  0  0  0  0  0  0  0
    5.4460   -1.5305    0.3048 N   0  0  0  0  0  0  0  0  0  0  0  0
    4.3449   -0.8920   -0.2403 C   0  0  0  0  0  0  0  0  0  0  0  0
    4.4020    0.3541   -0.5697 O   0  0  0  0  0  0  0  0  0  0  0  0
    2.2085    0.4679   -2.3885 C   0  0  0  0  0  0  0  0  0  0  0  0
    1.7248    1.6608   -2.8709 C   0  0  0  0  0  0  0  0  0  0  0  0
    0.5910    2.2202   -2.3591 C   0  0  0  0  0  0  0  0  0  0  0  0
   -0.0924    1.5616   -1.3186 C   0  0  0  0  0  0  0  0  0  0  0  0
   -1.2832    2.2057   -0.7962 C   0  0  0  0  0  0  0  0  0  0  0  0
   -2.3565    2.4063   -1.6297 C   0  0  0  0  0  0  0  0  0  0  0  0
   -3.4868    3.0487   -1.1553 C   0  0  0  0  0  0  0  0  0  0  0  0
   -3.5601    3.4935    0.1398 C   0  0  0  0  0  0  0  0  0  0  0  0
   -2.4743    3.2886    0.9751 C   0  0  0  0  0  0  0  0  0  0  0  0
   -1.3271    2.6374    0.4930 C   0  0  0  0  0  0  0  0  0  0  0  0
   -1.4396   -1.1824   -0.2987 C   0  0  0  0  0  0  0  0  0  0  0  0
   -4.3723   -1.8398    0.5251 H   0  0  0  0  0  0  0  0  0  0  0  0
   -3.7273   -0.7103    1.6990 H   0  0  0  0  0  0  0  0  0  0  0  0
   -2.4766   -2.8853    0.4062 H   0  0  0  0  0  0  0  0  0  0  0  0
   -2.1990   -1.1198    2.7711 H   0  0  0  0  0  0  0  0  0  0  0  0
   -1.9167   -2.8716    2.6096 H   0  0  0  0  0  0  0  0  0  0  0  0
    0.3628   -2.4375    1.6845 H   0  0  0  0  0  0  0  0  0  0  0  0
    0.0665   -1.5777    3.2203 H   0  0  0  0  0  0  0  0  0  0  0  0
    1.1409   -0.1222    1.6949 H   0  0  0  0  0  0  0  0  0  0  0  0
   -0.4883    0.4544    2.1699 H   0  0  0  0  0  0  0  0  0  0  0  0
    1.1991   -2.2171   -0.8454 H   0  0  0  0  0  0  0  0  0  0  0  0
    7.1918   -3.1381    1.5370 H   0  0  0  0  0  0  0  0  0  0  0  0
    3.1100    0.0052   -2.8197 H   0  0  0  0  0  0  0  0  0  0  0  0
    2.2307    2.1912   -3.6736 H   0  0  0  0  0  0  0  0  0  0  0  0
    0.1785    3.1724   -2.7248 H   0  0  0  0  0  0  0  0  0  0  0  0
   -2.3391    2.0692   -2.6562 H   0  0  0  0  0  0  0  0  0  0  0  0
   -4.3292    3.1986   -1.8230 H   0  0  0  0  0  0  0  0  0  0  0  0
   -4.4487    3.9959    0.5022 H   0  0  0  0  0  0  0  0  0  0  0  0
   -2.5560    3.6474    1.9857 H   0  0  0  0  0  0  0  0  0  0  0  0
   -0.5288    2.5446    1.2110 H   0  0  0  0  0  0  0  0  0  0  0  0
   -2.0932   -0.4485   -0.8633 H   0  0  0  0  0  0  0  0  0  0  0  0
   -1.1049   -1.8882   -1.0753 H   0  0  0  0  0  0  0  0  0  0  0  0
  1  2  1  0
  2  3  1  0
  3  4  1  0
  4  5  1  0
  5  6  1  0
  6  7  1  0
  7  8  1  0
  8  9  1  0
  9 10  2  3
 10 11  1  0
 11 12  1  0
 12 13  1  0
 12 14  2  0
 14 15  1  0
 15 16  2  0
  8 17  2  0
 17 18  1  0
 18 19  2  0
 19 20  1  0
 20 21  1  0
 21 22  2  0
 22 23  1  0
 23 24  2  0
 24 25  1  0
 25 26  2  0
  6 27  1  0
 27  2  1  0
 20  7  2  0
 26 21  1  0
 15 10  1  0
  1 28  1  0
  1 29  1  0
  2 30  1  6
  3 31  1  0
  3 32  1  0
  4 33  1  0
  4 34  1  0
  5 35  1  0
  5 36  1  0
  9 37  1  0
 13 38  1  0
 17 39  1  0
 18 40  1  0
 19 41  1  0
 22 42  1  0
 23 43  1  0
 24 44  1  0
 25 45  1  0
 26 46  1  0
 27 47  1  0
 27 48  1  0
M  END
$$$$
