@<TRIPOS>MOLECULE
*****
 48 51 0 0 0
SMALL
GASTEIGER

@<TRIPOS>ATOM
      1 N          -3.6139   -1.2077    0.8031 N.3     1  UNL1       -0.3259
      2 C          -2.2871   -1.8170    0.7277 C.3     1  UNL1        0.0207
      3 C          -1.7205   -1.9021    2.1118 C.3     1  UNL1       -0.0349
      4 C          -0.2303   -1.6612    2.1571 C.3     1  UNL1       -0.0358
      5 C           0.0382   -0.2664    1.5501 C.3     1  UNL1        0.0123
      6 N          -0.3433   -0.3711    0.1854 N.pl3   1  UNL1       -0.3275
      7 C           0.3605    0.3728   -0.8149 C.ar    1  UNL1        0.0448
      8 C           1.5293   -0.1601   -1.3731 C.ar    1  UNL1       -0.0022
      9 C           1.9995   -1.4457   -0.8362 C.2     1  UNL1       -0.0338
     10 C           3.1844   -1.7083   -0.3951 C.2     1  UNL1        0.0812
     11 S           3.7269   -3.2872    0.2452 S.3     1  UNL1       -0.0290
     12 C           5.3896   -2.7373    0.6306 C.2     1  UNL1        0.2466
     13 O           6.3692   -3.5712    1.1876 O.2     1  UNL1       -0.4890
     14 N           5.4460   -1.5305    0.3048 N.am    1  UNL1       -0.1348
     15 C           4.3449   -0.8920   -0.2403 C.2     1  UNL1        0.2774
     16 O           4.4020    0.3541   -0.5697 O.2     1  UNL1       -0.2674
     17 C           2.2085    0.4679   -2.3885 C.ar    1  UNL1       -0.0528
     18 C           1.7248    1.6608   -2.8709 C.ar    1  UNL1       -0.0605
     19 C           0.5910    2.2202   -2.3591 C.ar    1  UNL1       -0.0522
     20 C          -0.0924    1.5616   -1.3186 C.ar    1  UNL1        0.0037
     21 C          -1.2832    2.2057   -0.7962 C.ar    1  UNL1       -0.0161
     22 C          -2.3565    2.4063   -1.6297 C.ar    1  UNL1       -0.0540
     23 C          -3.4868    3.0487   -1.1553 C.ar    1  UNL1       -0.0612
     24 C          -3.5601    3.4935    0.1398 C.ar    1  UNL1       -0.0617
     25 C          -2.4743    3.2886    0.9751 C.ar    1  UNL1       -0.0612
     26 C          -1.3271    2.6374    0.4930 C.ar    1  UNL1       -0.0540
     27 C          -1.4396   -1.1824   -0.2987 C.3     1  UNL1        0.0274
     28 H          -4.3723   -1.8398    0.5251 H       1  UNL1        0.1185
     29 H          -3.7273   -0.7103    1.6990 H       1  UNL1        0.1185
     30 H          -2.4766   -2.8853    0.4062 H       1  UNL1        0.0474
     31 H          -2.1990   -1.1198    2.7711 H       1  UNL1        0.0281
     32 H          -1.9167   -2.8716    2.6096 H       1  UNL1        0.0281
     33 H           0.3628   -2.4375    1.6845 H       1  UNL1        0.0281
     34 H           0.0665   -1.5777    3.2203 H       1  UNL1        0.0281
     35 H           1.1409   -0.1222    1.6949 H       1  UNL1        0.0464
     36 H          -0.4883    0.4544    2.1699 H       1  UNL1        0.0464
     37 H           1.1991   -2.2171   -0.8454 H       1  UNL1        0.0637
     38 H           7.1918   -3.1381    1.5370 H       1  UNL1        0.2941
     39 H           3.1100    0.0052   -2.8197 H       1  UNL1        0.0624
     40 H           2.2307    2.1912   -3.6736 H       1  UNL1        0.0618
     41 H           0.1785    3.1724   -2.7248 H       1  UNL1        0.0624
     42 H          -2.3391    2.0692   -2.6562 H       1  UNL1        0.0624
     43 H          -4.3292    3.1986   -1.8230 H       1  UNL1        0.0618
     44 H          -4.4487    3.9959    0.5022 H       1  UNL1        0.0618
     45 H          -2.5560    3.6474    1.9857 H       1  UNL1        0.0618
     46 H          -0.5288    2.5446    1.2110 H       1  UNL1        0.0624
     47 H          -2.0932   -0.4485   -0.8633 H       1  UNL1        0.0479
     48 H          -1.1049   -1.8882   -1.0753 H       1  UNL1        0.0479
@<TRIPOS>BOND
     1     1     2    1
     2     2     3    1
     3     3     4    1
     4     4     5    1
     5     5     6    1
     6     6     7    1
     7     7     8   ar
     8     8     9    1
     9     9    10    2
    10    10    11    1
    11    11    12    1
    12    12    13    1
    13    12    14    2
    14    14    15    1
    15    15    16    2
    16     8    17   ar
    17    17    18   ar
    18    18    19   ar
    19    19    20   ar
    20    20    21    1
    21    21    22   ar
    22    22    23   ar
    23    23    24   ar
    24    24    25   ar
    25    25    26   ar
    26     6    27    1
    27    27     2    1
    28    20     7   ar
    29    26    21   ar
    30    15    10    1
    31     1    28    1
    32     1    29    1
    33     2    30    1
    34     3    31    1
    35     3    32    1
    36     4    33    1
    37     4    34    1
    38     5    35    1
    39     5    36    1
    40     9    37    1
    41    13    38    1
    42    17    39    1
    43    18    40    1
    44    19    41    1
    45    22    42    1
    46    23    43    1
    47    24    44    1
    48    25    45    1
    49    26    46    1
    50    27    47    1
    51    27    48    1
