
     RDKit          3D

 61 64  0  0  0  0  0  0  0  0999 V2000
    7.8542    2.7442    0.8708 C   0  0  0  0  0  0  0  0  0  0  0  0
    6.5857    2.3316    0.4062 O   0  0  0  0  0  0  0  0  0  0  0  0
    5.6066    1.8888    1.2829 C   0  0  0  0  0  0  0  0  0  0  0  0
    5.8736    1.8504    2.6154 C   0  0  0  0  0  0  0  0  0  0  0  0
    4.9169    1.4157    3.4901 C   0  0  0  0  0  0  0  0  0  0  0  0
    3.6650    1.0103    3.0227 C   0  0  0  0  0  0  0  0  0  0  0  0
    3.3797    1.0425    1.6851 C   0  0  0  0  0  0  0  0  0  0  0  0
    4.3580    1.4834    0.8240 C   0  0  0  0  0  0  0  0  0  0  0  0
    2.0472    0.6091    1.2174 C   0  0  0  0  0  0  0  0  0  0  0  0
    1.4602   -0.3150    2.2594 C   0  0  2  0  0  0  0  0  0  0  0  0
    0.1464   -0.8595    1.8380 C   0  0  0  0  0  0  0  0  0  0  0  0
   -0.8431   -0.6264    2.5780 O   0  0  0  0  0  0  0  0  0  0  0  0
   -0.0610   -1.6113    0.6756 N   0  0  0  0  0  0  0  0  0  0  0  0
   -1.3534   -2.0966    0.3401 C   0  0  0  0  0  0  0  0  0  0  0  0
   -1.7990   -3.3165    0.7610 C   0  0  0  0  0  0  0  0  0  0  0  0
   -3.0282   -3.8283    0.4673 C   0  0  0  0  0  0  0  0  0  0  0  0
   -3.8863   -3.0834   -0.2997 C   0  0  0  0  0  0  0  0  0  0  0  0
   -5.2158   -3.6124   -0.6305 C   0  0  0  0  0  0  0  0  0  0  0  0
   -5.9666   -4.4453    0.1720 C   0  0  0  0  0  0  0  0  0  0  0  0
   -7.1481   -4.7430   -0.4418 N   0  0  0  0  0  0  0  0  0  0  0  0
   -7.1213   -4.1025   -1.6025 N   0  0  0  0  0  0  0  0  0  0  0  0
   -5.9782   -3.4121   -1.7535 C   0  0  0  0  0  0  0  0  0  0  0  0
   -3.5125   -1.8554   -0.7572 C   0  0  0  0  0  0  0  0  0  0  0  0
   -2.2367   -1.3241   -0.4522 C   0  0  0  0  0  0  0  0  0  0  0  0
   -1.9045   -0.1628   -0.8941 O   0  0  0  0  0  0  0  0  0  0  0  0
   -1.6348    1.0095   -1.3698 C   0  0  0  0  0  0  0  0  0  0  0  0
   -1.7153    0.9883   -2.9176 C   0  0  0  0  0  0  0  0  0  0  0  0
   -1.4186    2.2782   -3.4556 N   0  0  0  0  0  0  0  0  0  0  0  0
   -2.4155    3.2695   -3.1638 C   0  0  0  0  0  0  0  0  0  0  0  0
   -1.0822    2.1887   -4.8535 C   0  0  0  0  0  0  0  0  0  0  0  0
    1.3592    0.4194    3.4985 N   0  0  0  0  0  0  0  0  0  0  0  0
    2.6920    0.5542    4.0498 C   0  0  0  0  0  0  0  0  0  0  0  0
    8.5367    2.8322   -0.0102 H   0  0  0  0  0  0  0  0  0  0  0  0
    8.2979    2.0350    1.6065 H   0  0  0  0  0  0  0  0  0  0  0  0
    7.7469    3.7284    1.3903 H   0  0  0  0  0  0  0  0  0  0  0  0
    6.8386    2.1582    3.0206 H   0  0  0  0  0  0  0  0  0  0  0  0
    5.1477    1.3925    4.5443 H   0  0  0  0  0  0  0  0  0  0  0  0
    4.1688    1.5214   -0.2238 H   0  0  0  0  0  0  0  0  0  0  0  0
    2.0645    0.1664    0.2059 H   0  0  0  0  0  0  0  0  0  0  0  0
    1.4082    1.5366    1.1594 H   0  0  0  0  0  0  0  0  0  0  0  0
    2.1569   -1.1672    2.3850 H   0  0  0  0  0  0  0  0  0  0  0  0
    0.7577   -1.8082    0.0548 H   0  0  0  0  0  0  0  0  0  0  0  0
   -1.1397   -3.9406    1.3777 H   0  0  0  0  0  0  0  0  0  0  0  0
   -3.3864   -4.7899    0.7970 H   0  0  0  0  0  0  0  0  0  0  0  0
   -5.6870   -4.8157    1.1334 H   0  0  0  0  0  0  0  0  0  0  0  0
   -7.9196   -4.1503   -2.3027 H   0  0  0  0  0  0  0  0  0  0  0  0
   -5.6697   -2.7956   -2.5909 H   0  0  0  0  0  0  0  0  0  0  0  0
   -4.1766   -1.2473   -1.3660 H   0  0  0  0  0  0  0  0  0  0  0  0
   -2.3227    1.8597   -1.0215 H   0  0  0  0  0  0  0  0  0  0  0  0
   -0.6149    1.4646   -1.1045 H   0  0  0  0  0  0  0  0  0  0  0  0
   -0.9964    0.2452   -3.3045 H   0  0  0  0  0  0  0  0  0  0  0  0
   -2.7250    0.6623   -3.2303 H   0  0  0  0  0  0  0  0  0  0  0  0
   -2.3184    4.0950   -3.9040 H   0  0  0  0  0  0  0  0  0  0  0  0
   -3.4535    2.8602   -3.2548 H   0  0  0  0  0  0  0  0  0  0  0  0
   -2.2519    3.7311   -2.1705 H   0  0  0  0  0  0  0  0  0  0  0  0
   -1.5448    3.0134   -5.4427 H   0  0  0  0  0  0  0  0  0  0  0  0
   -1.2793    1.1947   -5.2687 H   0  0  0  0  0  0  0  0  0  0  0  0
    0.0293    2.3540   -4.9467 H   0  0  0  0  0  0  0  0  0  0  0  0
    1.0273    1.3921    3.2373 H   0  0  0  0  0  0  0  0  0  0  0  0
    2.9942   -0.4469    4.4190 H   0  0  0  0  0  0  0  0  0  0  0  0
    2.6875    1.2296    4.9346 H   0  0  0  0  0  0  0  0  0  0  0  0
  1  2  1  0
  2  3  1  0
  3  4  2  0
  4  5  1  0
  5  6  2  0
  6  7  1  0
  7  8  2  0
  7  9  1  0
  9 10  1  0
 10 11  1  0
 11 12  2  0
 11 13  1  0
 13 14  1  0
 14 15  2  0
 15 16  1  0
 16 17  2  0
 17 18  1  0
 18 19  1  0
 19 20  2  0
 20 21  1  0
 21 22  1  0
 17 23  1  0
 23 24  2  0
 24 25  1  0
 25 26  1  0
 26 27  1  0
 27 28  1  0
 28 29  1  0
 28 30  1  0
 10 31  1  0
 31 32  1  0
  8  3  1  0
 24 14  1  0
 32  6  1  0
 22 18  2  0
  1 33  1  0
  1 34  1  0
  1 35  1  0
  4 36  1  0
  5 37  1  0
  8 38  1  0
  9 39  1  0
  9 40  1  0
 10 41  1  1
 13 42  1  0
 15 43  1  0
 16 44  1  0
 19 45  1  0
 21 46  1  0
 22 47  1  0
 23 48  1  0
 26 49  1  0
 26 50  1  0
 27 51  1  0
 27 52  1  0
 29 53  1  0
 29 54  1  0
 29 55  1  0
 30 56  1  0
 30 57  1  0
 30 58  1  0
 31 59  1  0
 32 60  1  0
 32 61  1  0
M  END
$$$$
