@<TRIPOS>MOLECULE
*****
 61 64 0 0 0
SMALL
GASTEIGER

@<TRIPOS>ATOM
      1 C           7.8542    2.7442    0.8708 C.3     1  UNL1        0.0788
      2 O           6.5857    2.3316    0.4062 O.3     1  UNL1       -0.4951
      3 C           5.6066    1.8888    1.2829 C.ar    1  UNL1        0.1204
      4 C           5.8736    1.8504    2.6154 C.ar    1  UNL1       -0.0196
      5 C           4.9169    1.4157    3.4901 C.ar    1  UNL1       -0.0536
      6 C           3.6650    1.0103    3.0227 C.ar    1  UNL1       -0.0301
      7 C           3.3797    1.0425    1.6851 C.ar    1  UNL1       -0.0376
      8 C           4.3580    1.4834    0.8240 C.ar    1  UNL1       -0.0164
      9 C           2.0472    0.6091    1.2174 C.3     1  UNL1       -0.0033
     10 C           1.4602   -0.3150    2.2594 C.3     1  UNL1        0.0893
     11 C           0.1464   -0.8595    1.8380 C.2     1  UNL1        0.2346
     12 O          -0.8431   -0.6264    2.5780 O.2     1  UNL1       -0.2737
     13 N          -0.0610   -1.6113    0.6756 N.am    1  UNL1       -0.2813
     14 C          -1.3534   -2.0966    0.3401 C.ar    1  UNL1        0.0757
     15 C          -1.7990   -3.3165    0.7610 C.ar    1  UNL1       -0.0363
     16 C          -3.0282   -3.8283    0.4673 C.ar    1  UNL1       -0.0520
     17 C          -3.8863   -3.0834   -0.2997 C.ar    1  UNL1       -0.0114
     18 C          -5.2158   -3.6124   -0.6305 C.ar    1  UNL1        0.0194
     19 C          -5.9666   -4.4453    0.1720 C.ar    1  UNL1        0.0568
     20 N          -7.1481   -4.7430   -0.4418 N.ar    1  UNL1       -0.1817
     21 N          -7.1213   -4.1025   -1.6025 N.ar    1  UNL1       -0.2841
     22 C          -5.9782   -3.4121   -1.7535 C.ar    1  UNL1        0.0300
     23 C          -3.5125   -1.8554   -0.7572 C.ar    1  UNL1       -0.0103
     24 C          -2.2367   -1.3241   -0.4522 C.ar    1  UNL1        0.1422
     25 O          -1.9045   -0.1628   -0.8941 O.3     1  UNL1       -0.4888
     26 C          -1.6348    1.0095   -1.3698 C.3     1  UNL1        0.1023
     27 C          -1.7153    0.9883   -2.9176 C.3     1  UNL1        0.0325
     28 N          -1.4186    2.2782   -3.4556 N.3     1  UNL1       -0.3051
     29 C          -2.4155    3.2695   -3.1638 C.3     1  UNL1       -0.0129
     30 C          -1.0822    2.1887   -4.8535 C.3     1  UNL1       -0.0129
     31 N           1.3592    0.4194    3.4985 N.3     1  UNL1       -0.3014
     32 C           2.6920    0.5542    4.0498 C.3     1  UNL1        0.0222
     33 H           8.5367    2.8322   -0.0102 H       1  UNL1        0.0660
     34 H           8.2979    2.0350    1.6065 H       1  UNL1        0.0660
     35 H           7.7469    3.7284    1.3903 H       1  UNL1        0.0660
     36 H           6.8386    2.1582    3.0206 H       1  UNL1        0.0654
     37 H           5.1477    1.3925    4.5443 H       1  UNL1        0.0622
     38 H           4.1688    1.5214   -0.2238 H       1  UNL1        0.0657
     39 H           2.0645    0.1664    0.2059 H       1  UNL1        0.0333
     40 H           1.4082    1.5366    1.1594 H       1  UNL1        0.0333
     41 H           2.1569   -1.1672    2.3850 H       1  UNL1        0.0560
     42 H           0.7577   -1.8082    0.0548 H       1  UNL1        0.1550
     43 H          -1.1397   -3.9406    1.3777 H       1  UNL1        0.0637
     44 H          -3.3864   -4.7899    0.7970 H       1  UNL1        0.0624
     45 H          -5.6870   -4.8157    1.1334 H       1  UNL1        0.0854
     46 H          -7.9196   -4.1503   -2.3027 H       1  UNL1        0.1882
     47 H          -5.6697   -2.7956   -2.5909 H       1  UNL1        0.0830
     48 H          -4.1766   -1.2473   -1.3660 H       1  UNL1        0.0661
     49 H          -2.3227    1.8597   -1.0215 H       1  UNL1        0.0709
     50 H          -0.6149    1.4646   -1.1045 H       1  UNL1        0.0709
     51 H          -0.9964    0.2452   -3.3045 H       1  UNL1        0.0460
     52 H          -2.7250    0.6623   -3.2303 H       1  UNL1        0.0460
     53 H          -2.3184    4.0950   -3.9040 H       1  UNL1        0.0391
     54 H          -3.4535    2.8602   -3.2548 H       1  UNL1        0.0391
     55 H          -2.2519    3.7311   -2.1705 H       1  UNL1        0.0391
     56 H          -1.5448    3.0134   -5.4427 H       1  UNL1        0.0391
     57 H          -1.2793    1.1947   -5.2687 H       1  UNL1        0.0391
     58 H           0.0293    2.3540   -4.9467 H       1  UNL1        0.0391
     59 H           1.0273    1.3921    3.2373 H       1  UNL1        0.1230
     60 H           2.9942   -0.4469    4.4190 H       1  UNL1        0.0474
     61 H           2.6875    1.2296    4.9346 H       1  UNL1        0.0474
@<TRIPOS>BOND
     1     1     2    1
     2     2     3    1
     3     3     4   ar
     4     4     5   ar
     5     5     6   ar
     6     6     7   ar
     7     7     8   ar
     8     7     9    1
     9     9    10    1
    10    10    11    1
    11    11    12    2
    12    11    13   am
    13    13    14    1
    14    14    15   ar
    15    15    16   ar
    16    16    17   ar
    17    17    18    1
    18    18    19   ar
    19    19    20   ar
    20    20    21   ar
    21    21    22   ar
    22    17    23   ar
    23    23    24   ar
    24    24    25    1
    25    25    26    1
    26    26    27    1
    27    27    28    1
    28    28    29    1
    29    28    30    1
    30    10    31    1
    31    31    32    1
    32     8     3   ar
    33    24    14   ar
    34    32     6    1
    35    22    18   ar
    36     1    33    1
    37     1    34    1
    38     1    35    1
    39     4    36    1
    40     5    37    1
    41     8    38    1
    42     9    39    1
    43     9    40    1
    44    10    41    1
    45    13    42    1
    46    15    43    1
    47    16    44    1
    48    19    45    1
    49    21    46    1
    50    22    47    1
    51    23    48    1
    52    26    49    1
    53    26    50    1
    54    27    51    1
    55    27    52    1
    56    29    53    1
    57    29    54    1
    58    29    55    1
    59    30    56    1
    60    30    57    1
    61    30    58    1
    62    31    59    1
    63    32    60    1
    64    32    61    1
