
     RDKit          3D

 45 47  0  0  0  0  0  0  0  0999 V2000
    7.2351    1.8462    0.9896 C   0  0  0  0  0  0  0  0  0  0  0  0
    7.0746    0.5744    0.4146 O   0  0  0  0  0  0  0  0  0  0  0  0
    5.7747    0.1152    0.1635 C   0  0  0  0  0  0  0  0  0  0  0  0
    4.6376    0.8133    0.4382 C   0  0  0  0  0  0  0  0  0  0  0  0
    3.3791    0.2728    0.1517 C   0  0  0  0  0  0  0  0  0  0  0  0
    3.2398   -0.9771   -0.4148 C   0  0  0  0  0  0  0  0  0  0  0  0
    1.8888   -1.4538   -0.6823 C   0  0  0  0  0  0  0  0  0  0  0  0
    1.3141   -1.1363   -2.0159 C   0  0  0  0  0  0  0  0  0  0  0  0
   -0.3243   -1.7780   -2.1636 S   0  0  0  0  0  0  0  0  0  0  0  0
   -1.6339   -1.0245   -1.3004 C   0  0  0  0  0  0  0  0  0  0  0  0
   -2.8925   -1.5973   -1.2905 N   0  0  0  0  0  0  0  0  0  0  0  0
   -3.7075   -0.8244   -0.6099 C   0  0  0  0  0  0  0  0  0  0  0  0
   -2.9721    0.2560   -0.1761 C   0  0  0  0  0  0  0  0  0  0  0  0
   -3.6290    1.2014    0.5650 C   0  0  0  0  0  0  0  0  0  0  0  0
   -3.0167    2.1995    0.9845 O   0  0  0  0  0  0  0  0  0  0  0  0
   -4.9568    1.0297    0.8321 N   0  0  0  0  0  0  0  0  0  0  0  0
   -5.6236    2.0674    1.6283 C   0  0  0  0  0  0  0  0  0  0  0  0
   -5.6311   -0.0457    0.3840 C   0  0  0  0  0  0  0  0  0  0  0  0
   -6.8538   -0.1961    0.6333 O   0  0  0  0  0  0  0  0  0  0  0  0
   -5.0318   -0.9996   -0.3455 N   0  0  0  0  0  0  0  0  0  0  0  0
   -5.7824   -2.1466   -0.8146 C   0  0  0  0  0  0  0  0  0  0  0  0
   -1.6852    0.1214   -0.6127 N   0  0  0  0  0  0  0  0  0  0  0  0
   -0.6820    1.1046   -0.3677 C   0  0  0  0  0  0  0  0  0  0  0  0
    4.3845   -1.6822   -0.6919 C   0  0  0  0  0  0  0  0  0  0  0  0
    5.6182   -1.1567   -0.4128 C   0  0  0  0  0  0  0  0  0  0  0  0
    7.0466    1.7670    2.0962 H   0  0  0  0  0  0  0  0  0  0  0  0
    6.5286    2.6036    0.5963 H   0  0  0  0  0  0  0  0  0  0  0  0
    8.2845    2.2145    0.8978 H   0  0  0  0  0  0  0  0  0  0  0  0
    4.7226    1.8008    0.8868 H   0  0  0  0  0  0  0  0  0  0  0  0
    2.5110    0.8824    0.3962 H   0  0  0  0  0  0  0  0  0  0  0  0
    1.2123   -1.1617    0.1123 H   0  0  0  0  0  0  0  0  0  0  0  0
    1.9555   -2.5907   -0.5869 H   0  0  0  0  0  0  0  0  0  0  0  0
    1.3426   -0.0519   -2.2151 H   0  0  0  0  0  0  0  0  0  0  0  0
    1.9151   -1.5891   -2.8562 H   0  0  0  0  0  0  0  0  0  0  0  0
   -6.6945    2.0539    1.3974 H   0  0  0  0  0  0  0  0  0  0  0  0
   -5.3649    1.8822    2.6729 H   0  0  0  0  0  0  0  0  0  0  0  0
   -5.1435    3.0349    1.3103 H   0  0  0  0  0  0  0  0  0  0  0  0
   -6.6642   -1.8160   -1.3996 H   0  0  0  0  0  0  0  0  0  0  0  0
   -5.1482   -2.8748   -1.3177 H   0  0  0  0  0  0  0  0  0  0  0  0
   -6.2062   -2.6204    0.1132 H   0  0  0  0  0  0  0  0  0  0  0  0
   -1.0621    2.0870   -0.0041 H   0  0  0  0  0  0  0  0  0  0  0  0
    0.1265    0.8209    0.3161 H   0  0  0  0  0  0  0  0  0  0  0  0
   -0.2232    1.3384   -1.3606 H   0  0  0  0  0  0  0  0  0  0  0  0
    4.2366   -2.6591   -1.1365 H   0  0  0  0  0  0  0  0  0  0  0  0
    6.5010   -1.7057   -0.6302 H   0  0  0  0  0  0  0  0  0  0  0  0
  1  2  1  0
  2  3  1  0
  3  4  2  0
  4  5  1  0
  5  6  2  0
  6  7  1  0
  7  8  1  0
  8  9  1  0
  9 10  1  0
 10 11  2  0
 11 12  1  0
 12 13  2  0
 13 14  1  0
 14 15  2  0
 14 16  1  0
 16 17  1  0
 16 18  1  0
 18 19  2  0
 18 20  1  0
 20 21  1  0
 13 22  1  0
 22 23  1  0
  6 24  1  0
 24 25  2  0
 25  3  1  0
 22 10  1  0
 20 12  1  0
  1 26  1  0
  1 27  1  0
  1 28  1  0
  4 29  1  0
  5 30  1  0
  7 31  1  0
  7 32  1  0
  8 33  1  0
  8 34  1  0
 17 35  1  0
 17 36  1  0
 17 37  1  0
 21 38  1  0
 21 39  1  0
 21 40  1  0
 23 41  1  0
 23 42  1  0
 23 43  1  0
 24 44  1  0
 25 45  1  0
M  END
$$$$
