@<TRIPOS>MOLECULE
*****
 45 47 0 0 0
SMALL
GASTEIGER

@<TRIPOS>ATOM
      1 C           7.2351    1.8462    0.9896 C.3     1  UNL1        0.0788
      2 O           7.0746    0.5744    0.4146 O.3     1  UNL1       -0.4951
      3 C           5.7747    0.1152    0.1635 C.ar    1  UNL1        0.1201
      4 C           4.6376    0.8133    0.4382 C.ar    1  UNL1       -0.0197
      5 C           3.3791    0.2728    0.1517 C.ar    1  UNL1       -0.0551
      6 C           3.2398   -0.9771   -0.4148 C.ar    1  UNL1       -0.0464
      7 C           1.8888   -1.4538   -0.6823 C.3     1  UNL1       -0.0182
      8 C           1.3141   -1.1363   -2.0159 C.3     1  UNL1        0.0051
      9 S          -0.3243   -1.7780   -2.1636 S.3     1  UNL1       -0.0873
     10 C          -1.6339   -1.0245   -1.3004 C.ar    1  UNL1        0.1714
     11 N          -2.8925   -1.5973   -1.2905 N.ar    1  UNL1       -0.2036
     12 C          -3.7075   -0.8244   -0.6099 C.ar    1  UNL1        0.1690
     13 C          -2.9721    0.2560   -0.1761 C.ar    1  UNL1        0.1520
     14 C          -3.6290    1.2014    0.5650 C.ar    1  UNL1        0.2822
     15 O          -3.0167    2.1995    0.9845 O.2     1  UNL1       -0.2652
     16 N          -4.9568    1.0297    0.8321 N.ar    1  UNL1       -0.2622
     17 C          -5.6236    2.0674    1.6283 C.3     1  UNL1        0.0196
     18 C          -5.6311   -0.0457    0.3840 C.ar    1  UNL1        0.3331
     19 O          -6.8538   -0.1961    0.6333 O.2     1  UNL1       -0.2462
     20 N          -5.0318   -0.9996   -0.3455 N.ar    1  UNL1       -0.2795
     21 C          -5.7824   -2.1466   -0.8146 C.3     1  UNL1        0.0181
     22 N          -1.6852    0.1214   -0.6127 N.ar    1  UNL1       -0.3163
     23 C          -0.6820    1.1046   -0.3677 C.3     1  UNL1        0.0145
     24 C           4.3845   -1.6822   -0.6919 C.ar    1  UNL1       -0.0551
     25 C           5.6182   -1.1567   -0.4128 C.ar    1  UNL1       -0.0197
     26 H           7.0466    1.7670    2.0962 H       1  UNL1        0.0660
     27 H           6.5286    2.6036    0.5963 H       1  UNL1        0.0660
     28 H           8.2845    2.2145    0.8978 H       1  UNL1        0.0660
     29 H           4.7226    1.8008    0.8868 H       1  UNL1        0.0654
     30 H           2.5110    0.8824    0.3962 H       1  UNL1        0.0621
     31 H           1.2123   -1.1617    0.1123 H       1  UNL1        0.0321
     32 H           1.9555   -2.5907   -0.5869 H       1  UNL1        0.0321
     33 H           1.3426   -0.0519   -2.2151 H       1  UNL1        0.0384
     34 H           1.9151   -1.5891   -2.8562 H       1  UNL1        0.0384
     35 H          -6.6945    2.0539    1.3974 H       1  UNL1        0.0458
     36 H          -5.3649    1.8822    2.6729 H       1  UNL1        0.0458
     37 H          -5.1435    3.0349    1.3103 H       1  UNL1        0.0458
     38 H          -6.6642   -1.8160   -1.3996 H       1  UNL1        0.0458
     39 H          -5.1482   -2.8748   -1.3177 H       1  UNL1        0.0458
     40 H          -6.2062   -2.6204    0.1132 H       1  UNL1        0.0458
     41 H          -1.0621    2.0870   -0.0041 H       1  UNL1        0.0456
     42 H           0.1265    0.8209    0.3161 H       1  UNL1        0.0456
     43 H          -0.2232    1.3384   -1.3606 H       1  UNL1        0.0456
     44 H           4.2366   -2.6591   -1.1365 H       1  UNL1        0.0621
     45 H           6.5010   -1.7057   -0.6302 H       1  UNL1        0.0654
@<TRIPOS>BOND
     1     1     2    1
     2     2     3    1
     3     3     4   ar
     4     4     5   ar
     5     5     6   ar
     6     6     7    1
     7     7     8    1
     8     8     9    1
     9     9    10    1
    10    10    11   ar
    11    11    12   ar
    12    12    13   ar
    13    13    14   ar
    14    14    15    2
    15    14    16   ar
    16    16    17    1
    17    16    18   ar
    18    18    19    2
    19    18    20   ar
    20    20    21    1
    21    13    22   ar
    22    22    23    1
    23     6    24   ar
    24    24    25   ar
    25    25     3   ar
    26    22    10   ar
    27    20    12   ar
    28     1    26    1
    29     1    27    1
    30     1    28    1
    31     4    29    1
    32     5    30    1
    33     7    31    1
    34     7    32    1
    35     8    33    1
    36     8    34    1
    37    17    35    1
    38    17    36    1
    39    17    37    1
    40    21    38    1
    41    21    39    1
    42    21    40    1
    43    23    41    1
    44    23    42    1
    45    23    43    1
    46    24    44    1
    47    25    45    1
