@<TRIPOS>MOLECULE
*****
 58 62 0 0 0
SMALL
GASTEIGER

@<TRIPOS>ATOM
      1 C           5.7627   -0.7647    4.0808 C.3     1  UNL1       -0.0306
      2 C           5.9161    0.4859    3.2775 C.3     1  UNL1        0.0901
      3 O           5.1550    0.4718    2.0756 O.3     1  UNL1       -0.4600
      4 C           3.8012    0.3455    2.0540 C.2     1  UNL1        0.3664
      5 O           3.1571    0.2341    3.1137 O.2     1  UNL1       -0.2426
      6 C           3.1688    0.3508    0.7003 C.ar    1  UNL1        0.2089
      7 N           3.3391    0.4208   -0.4278 N.ar    1  UNL1       -0.1500
      8 N           2.5209    0.3917   -1.4261 N.ar    1  UNL1       -0.2072
      9 C           3.0035    0.5026   -2.7947 C.ar    1  UNL1        0.0682
     10 C           3.5544    1.7011   -3.1971 C.ar    1  UNL1       -0.0362
     11 C           4.0362    1.8757   -4.4946 C.ar    1  UNL1       -0.0598
     12 C           3.9590    0.8313   -5.3869 C.ar    1  UNL1       -0.0616
     13 C           3.4054   -0.3656   -4.9746 C.ar    1  UNL1       -0.0598
     14 C           2.9285   -0.5270   -3.6781 C.ar    1  UNL1       -0.0362
     15 C           1.2601    0.2576   -1.1046 C.ar    1  UNL1        0.1983
     16 N           0.1194    0.1860   -1.8494 N.2     1  UNL1       -0.2011
     17 C          -1.0510    0.0378   -1.0564 C.ar    1  UNL1        0.1740
     18 N          -1.3985   -1.2282   -0.7306 N.ar    1  UNL1       -0.2266
     19 C          -2.4979   -1.4968    0.0239 C.ar    1  UNL1        0.0740
     20 C          -2.8244   -2.8818    0.3444 C.ar    1  UNL1        0.0004
     21 C          -3.9104   -3.2578    1.0979 C.ar    1  UNL1       -0.0526
     22 C          -4.1784   -4.6049    1.3765 C.ar    1  UNL1       -0.0611
     23 C          -3.3600   -5.6073    0.9037 C.ar    1  UNL1       -0.0617
     24 C          -2.2686   -5.2407    0.1473 C.ar    1  UNL1       -0.0611
     25 C          -2.0089   -3.9173   -0.1240 C.ar    1  UNL1       -0.0526
     26 C          -3.2419   -0.4243    0.4418 C.ar    1  UNL1       -0.0266
     27 C          -2.9264    0.8834    0.1343 C.ar    1  UNL1        0.0051
     28 C          -3.7226    2.0107    0.5860 C.ar    1  UNL1       -0.0165
     29 C          -3.1234    3.1267    1.1285 C.ar    1  UNL1       -0.0540
     30 C          -3.8605    4.2105    1.5628 C.ar    1  UNL1       -0.0612
     31 C          -5.2220    4.1784    1.4529 C.ar    1  UNL1       -0.0617
     32 C          -5.8250    3.0505    0.9048 C.ar    1  UNL1       -0.0612
     33 C          -5.0801    1.9784    0.4763 C.ar    1  UNL1       -0.0540
     34 C          -1.8076    1.1234   -0.6311 C.ar    1  UNL1        0.1036
     35 C          -1.3711    2.4327   -1.0227 C.1     1  UNL1        0.1035
     36 N          -1.0221    3.4669   -1.3526 N.1     1  UNL1       -0.1907
     37 S           1.2807    0.1722    0.7192 S.2     1  UNL1       -0.0214
     38 H           5.8606   -0.4926    5.1696 H       1  UNL1        0.0262
     39 H           6.6164   -1.4721    3.8937 H       1  UNL1        0.0262
     40 H           4.8032   -1.2875    3.9350 H       1  UNL1        0.0262
     41 H           5.5928    1.3710    3.8491 H       1  UNL1        0.0695
     42 H           6.9984    0.6019    3.0023 H       1  UNL1        0.0695
     43 H           3.6207    2.5375   -2.4962 H       1  UNL1        0.0639
     44 H           4.4683    2.8337   -4.7906 H       1  UNL1        0.0618
     45 H           4.3388    0.9797   -6.3980 H       1  UNL1        0.0618
     46 H           3.3409   -1.1949   -5.6733 H       1  UNL1        0.0618
     47 H           2.4951   -1.4594   -3.3503 H       1  UNL1        0.0639
     48 H          -4.5753   -2.4828    1.4849 H       1  UNL1        0.0624
     49 H          -5.0474   -4.8398    1.9745 H       1  UNL1        0.0618
     50 H          -3.5314   -6.6530    1.0955 H       1  UNL1        0.0618
     51 H          -1.6196   -6.0414   -0.2272 H       1  UNL1        0.0618
     52 H          -1.1498   -3.6237   -0.7197 H       1  UNL1        0.0624
     53 H          -4.1164   -0.5799    1.0376 H       1  UNL1        0.0645
     54 H          -2.0305    3.1947    1.2374 H       1  UNL1        0.0624
     55 H          -3.3673    5.0879    1.9909 H       1  UNL1        0.0618
     56 H          -5.8568    5.0009    1.7772 H       1  UNL1        0.0618
     57 H          -6.9072    2.9883    0.8010 H       1  UNL1        0.0618
     58 H          -5.6010    1.1214    0.0554 H       1  UNL1        0.0624
@<TRIPOS>BOND
     1     1     2    1
     2     2     3    1
     3     3     4    1
     4     4     5    2
     5     4     6    1
     6     6     7   ar
     7     7     8   ar
     8     8     9    1
     9     9    10   ar
    10    10    11   ar
    11    11    12   ar
    12    12    13   ar
    13    13    14   ar
    14     8    15   ar
    15    15    16    2
    16    16    17    1
    17    17    18   ar
    18    18    19   ar
    19    19    20    1
    20    20    21   ar
    21    21    22   ar
    22    22    23   ar
    23    23    24   ar
    24    24    25   ar
    25    19    26   ar
    26    26    27   ar
    27    27    28    1
    28    28    29   ar
    29    29    30   ar
    30    30    31   ar
    31    31    32   ar
    32    32    33   ar
    33    27    34   ar
    34    34    35    1
    35    35    36    3
    36    15    37   ar
    37    37     6   ar
    38    14     9   ar
    39    34    17   ar
    40    25    20   ar
    41    33    28   ar
    42     1    38    1
    43     1    39    1
    44     1    40    1
    45     2    41    1
    46     2    42    1
    47    10    43    1
    48    11    44    1
    49    12    45    1
    50    13    46    1
    51    14    47    1
    52    21    48    1
    53    22    49    1
    54    23    50    1
    55    24    51    1
    56    25    52    1
    57    26    53    1
    58    29    54    1
    59    30    55    1
    60    31    56    1
    61    32    57    1
    62    33    58    1
