
     RDKit          3D

 58 62  0  0  0  0  0  0  0  0999 V2000
    5.7627   -0.7647    4.0808 C   0  0  0  0  0  0  0  0  0  0  0  0
    5.9161    0.4859    3.2775 C   0  0  0  0  0  0  0  0  0  0  0  0
    5.1550    0.4718    2.0756 O   0  0  0  0  0  0  0  0  0  0  0  0
    3.8012    0.3455    2.0540 C   0  0  0  0  0  0  0  0  0  0  0  0
    3.1571    0.2341    3.1137 O   0  0  0  0  0  0  0  0  0  0  0  0
    3.1688    0.3508    0.7003 C   0  0  0  0  0  0  0  0  0  0  0  0
    3.3391    0.4208   -0.4278 N   0  0  0  0  0  0  0  0  0  0  0  0
    2.5209    0.3917   -1.4261 N   0  0  0  0  0  0  0  0  0  0  0  0
    3.0035    0.5026   -2.7947 C   0  0  0  0  0  0  0  0  0  0  0  0
    3.5544    1.7011   -3.1971 C   0  0  0  0  0  0  0  0  0  0  0  0
    4.0362    1.8757   -4.4946 C   0  0  0  0  0  0  0  0  0  0  0  0
    3.9590    0.8313   -5.3869 C   0  0  0  0  0  0  0  0  0  0  0  0
    3.4054   -0.3656   -4.9746 C   0  0  0  0  0  0  0  0  0  0  0  0
    2.9285   -0.5270   -3.6781 C   0  0  0  0  0  0  0  0  0  0  0  0
    1.2601    0.2576   -1.1046 C   0  0  0  0  0  0  0  0  0  0  0  0
    0.1194    0.1860   -1.8494 N   0  0  0  0  0  0  0  0  0  0  0  0
   -1.0510    0.0378   -1.0564 C   0  0  0  0  0  0  0  0  0  0  0  0
   -1.3985   -1.2282   -0.7306 N   0  0  0  0  0  0  0  0  0  0  0  0
   -2.4979   -1.4968    0.0239 C   0  0  0  0  0  0  0  0  0  0  0  0
   -2.8244   -2.8818    0.3444 C   0  0  0  0  0  0  0  0  0  0  0  0
   -3.9104   -3.2578    1.0979 C   0  0  0  0  0  0  0  0  0  0  0  0
   -4.1784   -4.6049    1.3765 C   0  0  0  0  0  0  0  0  0  0  0  0
   -3.3600   -5.6073    0.9037 C   0  0  0  0  0  0  0  0  0  0  0  0
   -2.2686   -5.2407    0.1473 C   0  0  0  0  0  0  0  0  0  0  0  0
   -2.0089   -3.9173   -0.1240 C   0  0  0  0  0  0  0  0  0  0  0  0
   -3.2419   -0.4243    0.4418 C   0  0  0  0  0  0  0  0  0  0  0  0
   -2.9264    0.8834    0.1343 C   0  0  0  0  0  0  0  0  0  0  0  0
   -3.7226    2.0107    0.5860 C   0  0  0  0  0  0  0  0  0  0  0  0
   -3.1234    3.1267    1.1285 C   0  0  0  0  0  0  0  0  0  0  0  0
   -3.8605    4.2105    1.5628 C   0  0  0  0  0  0  0  0  0  0  0  0
   -5.2220    4.1784    1.4529 C   0  0  0  0  0  0  0  0  0  0  0  0
   -5.8250    3.0505    0.9048 C   0  0  0  0  0  0  0  0  0  0  0  0
   -5.0801    1.9784    0.4763 C   0  0  0  0  0  0  0  0  0  0  0  0
   -1.8076    1.1234   -0.6311 C   0  0  0  0  0  0  0  0  0  0  0  0
   -1.3711    2.4327   -1.0227 C   0  0  0  0  0  0  0  0  0  0  0  0
   -1.0221    3.4669   -1.3526 N   0  0  0  0  0  0  0  0  0  0  0  0
    1.2807    0.1722    0.7192 S   0  0  0  0  0  0  0  0  0  0  0  0
    5.8606   -0.4926    5.1696 H   0  0  0  0  0  0  0  0  0  0  0  0
    6.6164   -1.4721    3.8937 H   0  0  0  0  0  0  0  0  0  0  0  0
    4.8032   -1.2875    3.9350 H   0  0  0  0  0  0  0  0  0  0  0  0
    5.5928    1.3710    3.8491 H   0  0  0  0  0  0  0  0  0  0  0  0
    6.9984    0.6019    3.0023 H   0  0  0  0  0  0  0  0  0  0  0  0
    3.6207    2.5375   -2.4962 H   0  0  0  0  0  0  0  0  0  0  0  0
    4.4683    2.8337   -4.7906 H   0  0  0  0  0  0  0  0  0  0  0  0
    4.3388    0.9797   -6.3980 H   0  0  0  0  0  0  0  0  0  0  0  0
    3.3409   -1.1949   -5.6733 H   0  0  0  0  0  0  0  0  0  0  0  0
    2.4951   -1.4594   -3.3503 H   0  0  0  0  0  0  0  0  0  0  0  0
   -4.5753   -2.4828    1.4849 H   0  0  0  0  0  0  0  0  0  0  0  0
   -5.0474   -4.8398    1.9745 H   0  0  0  0  0  0  0  0  0  0  0  0
   -3.5314   -6.6530    1.0955 H   0  0  0  0  0  0  0  0  0  0  0  0
   -1.6196   -6.0414   -0.2272 H   0  0  0  0  0  0  0  0  0  0  0  0
   -1.1498   -3.6237   -0.7197 H   0  0  0  0  0  0  0  0  0  0  0  0
   -4.1164   -0.5799    1.0376 H   0  0  0  0  0  0  0  0  0  0  0  0
   -2.0305    3.1947    1.2374 H   0  0  0  0  0  0  0  0  0  0  0  0
   -3.3673    5.0879    1.9909 H   0  0  0  0  0  0  0  0  0  0  0  0
   -5.8568    5.0009    1.7772 H   0  0  0  0  0  0  0  0  0  0  0  0
   -6.9072    2.9883    0.8010 H   0  0  0  0  0  0  0  0  0  0  0  0
   -5.6010    1.1214    0.0554 H   0  0  0  0  0  0  0  0  0  0  0  0
  1  2  1  0
  2  3  1  0
  3  4  1  0
  4  5  2  0
  4  6  1  0
  6  7  2  0
  7  8  1  0
  8  9  1  0
  9 10  2  0
 10 11  1  0
 11 12  2  0
 12 13  1  0
 13 14  2  0
  8 15  1  0
 15 16  2  0
 16 17  1  0
 17 18  2  0
 18 19  1  0
 19 20  1  0
 20 21  2  0
 21 22  1  0
 22 23  2  0
 23 24  1  0
 24 25  2  0
 19 26  2  0
 26 27  1  0
 27 28  1  0
 28 29  2  0
 29 30  1  0
 30 31  2  0
 31 32  1  0
 32 33  2  0
 27 34  2  0
 34 35  1  0
 35 36  3  0
 15 37  1  0
 37  6  1  0
 14  9  1  0
 34 17  1  0
 25 20  1  0
 33 28  1  0
  1 38  1  0
  1 39  1  0
  1 40  1  0
  2 41  1  0
  2 42  1  0
 10 43  1  0
 11 44  1  0
 12 45  1  0
 13 46  1  0
 14 47  1  0
 21 48  1  0
 22 49  1  0
 23 50  1  0
 24 51  1  0
 25 52  1  0
 26 53  1  0
 29 54  1  0
 30 55  1  0
 31 56  1  0
 32 57  1  0
 33 58  1  0
M  END
$$$$
