
     RDKit          3D

 46 48  0  0  0  0  0  0  0  0999 V2000
   -1.3507   -1.8436    1.2559 C   0  0  0  0  0  0  0  0  0  0  0  0
   -2.4702   -1.3449    0.3848 C   0  0  0  0  0  0  0  0  0  0  0  0
   -2.1923   -0.1215   -0.2004 N   0  0  0  0  0  0  0  0  0  0  0  0
   -3.4592    0.4343   -0.7822 C   0  0  0  0  0  0  0  0  0  0  0  0
   -4.3866    0.8292    0.3515 C   0  0  0  0  0  0  0  0  0  0  0  0
   -1.1656    0.1416   -1.1256 C   0  0  0  0  0  0  0  0  0  0  0  0
   -1.6737   -0.7976   -2.2930 C   0  0  0  0  0  0  0  0  0  0  0  0
    0.2056   -0.1104   -1.0810 C   0  0  0  0  0  0  0  0  0  0  0  0
    1.3001    0.2290   -0.2480 N   0  0  0  0  0  0  0  0  0  0  0  0
    1.6892    1.5621    0.0504 C   0  0  0  0  0  0  0  0  0  0  0  0
    0.9873    2.6206   -0.5519 C   0  0  0  0  0  0  0  0  0  0  0  0
    1.2702    3.9357   -0.3822 C   0  0  0  0  0  0  0  0  0  0  0  0
    2.3271    4.3178    0.4405 C   0  0  0  0  0  0  0  0  0  0  0  0
    3.0282    3.2988    1.0387 C   0  0  0  0  0  0  0  0  0  0  0  0
    2.6958    2.0069    0.8301 C   0  0  0  0  0  0  0  0  0  0  0  0
    3.6833    0.8326    1.6703 S   0  0  0  0  0  0  0  0  0  0  0  0
    3.1100   -0.7647    1.1509 C   0  0  0  0  0  0  0  0  0  0  0  0
    3.8406   -1.7870    1.6773 C   0  0  0  0  0  0  0  0  0  0  0  0
    3.4834   -3.0935    1.3549 C   0  0  0  0  0  0  0  0  0  0  0  0
    2.3976   -3.2929    0.5108 C   0  0  0  0  0  0  0  0  0  0  0  0
    1.7657   -2.1687    0.0646 C   0  0  0  0  0  0  0  0  0  0  0  0
    2.0482   -0.8438    0.3293 C   0  0  0  0  0  0  0  0  0  0  0  0
   -0.8835   -2.7721    0.8998 H   0  0  0  0  0  0  0  0  0  0  0  0
   -1.7151   -2.0253    2.3179 H   0  0  0  0  0  0  0  0  0  0  0  0
   -0.5574   -1.0839    1.3925 H   0  0  0  0  0  0  0  0  0  0  0  0
   -2.8620   -2.1466   -0.2862 H   0  0  0  0  0  0  0  0  0  0  0  0
   -3.3504   -1.1733    1.0859 H   0  0  0  0  0  0  0  0  0  0  0  0
   -3.2095    1.2805   -1.4172 H   0  0  0  0  0  0  0  0  0  0  0  0
   -3.9738   -0.4152   -1.2880 H   0  0  0  0  0  0  0  0  0  0  0  0
   -4.9936   -0.0167    0.7051 H   0  0  0  0  0  0  0  0  0  0  0  0
   -5.0844    1.5999   -0.0386 H   0  0  0  0  0  0  0  0  0  0  0  0
   -3.8495    1.2264    1.2357 H   0  0  0  0  0  0  0  0  0  0  0  0
   -1.5028    1.1159   -1.6674 H   0  0  0  0  0  0  0  0  0  0  0  0
   -0.9063   -0.7027   -3.1025 H   0  0  0  0  0  0  0  0  0  0  0  0
   -2.6120   -0.4637   -2.6962 H   0  0  0  0  0  0  0  0  0  0  0  0
   -1.7431   -1.8119   -1.9193 H   0  0  0  0  0  0  0  0  0  0  0  0
    0.5574    0.5768   -1.9876 H   0  0  0  0  0  0  0  0  0  0  0  0
    0.4269   -1.0552   -1.6756 H   0  0  0  0  0  0  0  0  0  0  0  0
    0.1610    2.4784   -1.2184 H   0  0  0  0  0  0  0  0  0  0  0  0
    0.7304    4.7633   -0.8433 H   0  0  0  0  0  0  0  0  0  0  0  0
    2.5644    5.3562    0.5852 H   0  0  0  0  0  0  0  0  0  0  0  0
    3.8521    3.6263    1.6753 H   0  0  0  0  0  0  0  0  0  0  0  0
    4.6921   -1.6913    2.3392 H   0  0  0  0  0  0  0  0  0  0  0  0
    4.0382   -3.9294    1.7530 H   0  0  0  0  0  0  0  0  0  0  0  0
    2.1581   -4.3059    0.2905 H   0  0  0  0  0  0  0  0  0  0  0  0
    0.9291   -2.4703   -0.5855 H   0  0  0  0  0  0  0  0  0  0  0  0
  1  2  1  0
  2  3  1  0
  3  4  1  0
  4  5  1  0
  3  6  1  0
  6  7  1  0
  6  8  1  0
  8  9  1  0
  9 10  1  0
 10 11  2  0
 11 12  1  0
 12 13  2  0
 13 14  1  0
 14 15  2  0
 15 16  1  0
 16 17  1  0
 17 18  2  0
 18 19  1  0
 19 20  2  0
 20 21  1  0
 21 22  2  0
 22  9  1  0
 15 10  1  0
 22 17  1  0
  1 23  1  0
  1 24  1  0
  1 25  1  0
  2 26  1  0
  2 27  1  0
  4 28  1  0
  4 29  1  0
  5 30  1  0
  5 31  1  0
  5 32  1  0
  6 33  1  0
  7 34  1  0
  7 35  1  0
  7 36  1  0
  8 37  1  0
  8 38  1  0
 11 39  1  0
 12 40  1  0
 13 41  1  0
 14 42  1  0
 18 43  1  0
 19 44  1  0
 20 45  1  0
 21 46  1  0
M  END
$$$$
