@<TRIPOS>MOLECULE
*****
 75 80 0 0 0
SMALL
GASTEIGER

@<TRIPOS>ATOM
      1 C           2.3070    8.2881   -0.5459 C.3     1  UNL1        0.0804
      2 O           1.7315    7.0602   -0.1780 O.3     1  UNL1       -0.4795
      3 C           1.9698    5.8749   -0.8558 C.ar    1  UNL1        0.2191
      4 C           1.3963    4.6920   -0.4765 C.ar    1  UNL1        0.0404
      5 C           1.6329    3.4973   -1.1550 C.ar    1  UNL1        0.1364
      6 N           1.0074    2.2992   -0.7141 N.am    1  UNL1       -0.2240
      7 C          -0.2773    1.7809   -1.1365 C.2     1  UNL1        0.3219
      8 O          -0.7841    2.0775   -2.2637 O.2     1  UNL1       -0.2512
      9 N          -0.7958    0.9480   -0.1115 N.am    1  UNL1       -0.1905
     10 C          -2.0076    0.2366   -0.0800 C.ar    1  UNL1        0.0636
     11 C          -2.3605   -0.5343    0.9801 C.ar    1  UNL1       -0.0363
     12 C          -3.5772   -1.2224    0.9645 C.ar    1  UNL1       -0.0339
     13 C          -4.4618   -1.1738   -0.0659 C.ar    1  UNL1        0.0713
     14 C          -5.7048   -1.9025   -0.1772 C.ar    1  UNL1        0.0033
     15 C          -6.1600   -2.1533   -1.4982 C.ar    1  UNL1       -0.0515
     16 C          -7.3241   -2.7938   -1.7810 C.ar    1  UNL1       -0.0471
     17 C          -8.1123   -3.2268   -0.7181 C.ar    1  UNL1        0.0591
     18 C          -9.3562   -3.9138   -0.9816 C.2     1  UNL1        0.3368
     19 O          -9.7004   -4.1084   -2.1718 O.2     1  UNL1       -0.2451
     20 O         -10.1334   -4.3378    0.0919 O.3     1  UNL1       -0.4771
     21 C          -7.6892   -2.9922    0.5591 C.ar    1  UNL1       -0.0442
     22 C          -6.4775   -2.3244    0.8430 C.ar    1  UNL1       -0.0405
     23 C          -6.1379   -2.0593    2.2584 C.3     1  UNL1       -0.0391
     24 N          -4.0582   -0.3787   -1.1192 N.ar    1  UNL1       -0.2531
     25 C          -2.9067    0.2875   -1.1341 C.ar    1  UNL1        0.0501
     26 C           0.1983    0.9772    0.9283 C.2     1  UNL1        0.2516
     27 O           0.0622    0.7735    2.1563 O.2     1  UNL1       -0.2724
     28 C           1.4878    1.3105    0.2530 C.3     1  UNL1        0.1240
     29 C           1.9839    0.1353   -0.5398 C.3     1  UNL1       -0.0095
     30 C           2.9117   -0.6616    0.3830 C.3     1  UNL1        0.0017
     31 N           4.0860    0.0568    0.6028 N.3     1  UNL1       -0.2965
     32 C           5.1090   -0.5304    1.3572 C.3     1  UNL1        0.0415
     33 C           5.5870   -1.7992    0.7702 C.ar    1  UNL1        0.0581
     34 N           6.6550   -1.7524   -0.0978 N.ar    1  UNL1       -0.2583
     35 C           7.1233   -2.8370   -0.7041 C.ar    1  UNL1        0.0279
     36 C           6.5931   -4.0870   -0.5235 C.ar    1  UNL1       -0.0433
     37 C           5.5253   -4.1852    0.3352 C.ar    1  UNL1       -0.0557
     38 C           5.0371   -3.0326    0.9728 C.ar    1  UNL1       -0.0279
     39 C           3.9151   -3.2093    1.9295 C.3     1  UNL1       -0.0380
     40 C           3.9202    1.4787    0.8150 C.3     1  UNL1        0.0017
     41 C           2.5109    1.8651    1.1887 C.3     1  UNL1       -0.0095
     42 N           2.4587    3.5559   -2.2116 N.ar    1  UNL1       -0.2200
     43 C           3.0234    4.7062   -2.5896 C.ar    1  UNL1        0.1219
     44 N           2.7887    5.8732   -1.9222 N.ar    1  UNL1       -0.2013
     45 H           2.5240    8.2037   -1.6516 H       1  UNL1        0.0660
     46 H           1.6098    9.1481   -0.4523 H       1  UNL1        0.0660
     47 H           3.2617    8.4953   -0.0228 H       1  UNL1        0.0660
     48 H           0.7282    4.6396    0.3767 H       1  UNL1        0.0705
     49 H          -1.7285   -0.6346    1.8381 H       1  UNL1        0.0637
     50 H          -3.7521   -1.8360    1.8263 H       1  UNL1        0.0639
     51 H          -5.5457   -1.8162   -2.3122 H       1  UNL1        0.0624
     52 H          -7.6767   -2.9890   -2.7928 H       1  UNL1        0.0626
     53 H         -11.1035   -4.5468   -0.1053 H       1  UNL1        0.2954
     54 H          -8.2870   -3.3205    1.3976 H       1  UNL1        0.0628
     55 H          -7.1561   -2.0246    2.8194 H       1  UNL1        0.0278
     56 H          -5.7427   -1.0463    2.4480 H       1  UNL1        0.0278
     57 H          -5.5366   -2.8328    2.7452 H       1  UNL1        0.0278
     58 H          -2.6993    0.8805   -2.0200 H       1  UNL1        0.0849
     59 H           1.1585   -0.5110   -0.8440 H       1  UNL1        0.0303
     60 H           2.5583    0.4376   -1.4317 H       1  UNL1        0.0303
     61 H           2.3258   -0.9766    1.2509 H       1  UNL1        0.0427
     62 H           3.1420   -1.5842   -0.2263 H       1  UNL1        0.0427
     63 H           4.7371   -0.7382    2.3866 H       1  UNL1        0.0491
     64 H           5.9772    0.1938    1.4138 H       1  UNL1        0.0491
     65 H           7.9663   -2.7532   -1.3795 H       1  UNL1        0.0829
     66 H           6.9992   -4.9531   -1.0352 H       1  UNL1        0.0633
     67 H           5.0473   -5.1371    0.5341 H       1  UNL1        0.0621
     68 H           2.9521   -3.3618    1.3760 H       1  UNL1        0.0278
     69 H           4.0717   -4.2153    2.4314 H       1  UNL1        0.0278
     70 H           3.8703   -2.4839    2.7312 H       1  UNL1        0.0278
     71 H           4.2594    2.0697   -0.0441 H       1  UNL1        0.0427
     72 H           4.5625    1.7560    1.6825 H       1  UNL1        0.0427
     73 H           2.4602    2.9785    1.1139 H       1  UNL1        0.0303
     74 H           2.3181    1.6168    2.2520 H       1  UNL1        0.0303
     75 H           3.7020    4.7832   -3.4484 H       1  UNL1        0.1049
@<TRIPOS>BOND
     1     1     2    1
     2     2     3    1
     3     3     4   ar
     4     4     5   ar
     5     5     6    1
     6     6     7   am
     7     7     8    2
     8     7     9   am
     9     9    10    1
    10    10    11   ar
    11    11    12   ar
    12    12    13   ar
    13    13    14    1
    14    14    15   ar
    15    15    16   ar
    16    16    17   ar
    17    17    18    1
    18    18    19    2
    19    18    20    1
    20    17    21   ar
    21    21    22   ar
    22    22    23    1
    23    13    24   ar
    24    24    25   ar
    25     9    26   am
    26    26    27    2
    27    26    28    1
    28    28    29    1
    29    29    30    1
    30    30    31    1
    31    31    32    1
    32    32    33    1
    33    33    34   ar
    34    34    35   ar
    35    35    36   ar
    36    36    37   ar
    37    37    38   ar
    38    38    39    1
    39    31    40    1
    40    40    41    1
    41     5    42   ar
    42    42    43   ar
    43    43    44   ar
    44    44     3   ar
    45    28     6    1
    46    38    33   ar
    47    25    10   ar
    48    41    28    1
    49    22    14   ar
    50     1    45    1
    51     1    46    1
    52     1    47    1
    53     4    48    1
    54    11    49    1
    55    12    50    1
    56    15    51    1
    57    16    52    1
    58    20    53    1
    59    21    54    1
    60    23    55    1
    61    23    56    1
    62    23    57    1
    63    25    58    1
    64    29    59    1
    65    29    60    1
    66    30    61    1
    67    30    62    1
    68    32    63    1
    69    32    64    1
    70    35    65    1
    71    36    66    1
    72    37    67    1
    73    39    68    1
    74    39    69    1
    75    39    70    1
    76    40    71    1
    77    40    72    1
    78    41    73    1
    79    41    74    1
    80    43    75    1
