
     RDKit          3D

 75 80  0  0  0  0  0  0  0  0999 V2000
    2.3070    8.2881   -0.5459 C   0  0  0  0  0  0  0  0  0  0  0  0
    1.7315    7.0602   -0.1780 O   0  0  0  0  0  0  0  0  0  0  0  0
    1.9698    5.8749   -0.8558 C   0  0  0  0  0  0  0  0  0  0  0  0
    1.3963    4.6920   -0.4765 C   0  0  0  0  0  0  0  0  0  0  0  0
    1.6329    3.4973   -1.1550 C   0  0  0  0  0  0  0  0  0  0  0  0
    1.0074    2.2992   -0.7141 N   0  0  0  0  0  0  0  0  0  0  0  0
   -0.2773    1.7809   -1.1365 C   0  0  0  0  0  0  0  0  0  0  0  0
   -0.7841    2.0775   -2.2637 O   0  0  0  0  0  0  0  0  0  0  0  0
   -0.7958    0.9480   -0.1115 N   0  0  0  0  0  0  0  0  0  0  0  0
   -2.0076    0.2366   -0.0800 C   0  0  0  0  0  0  0  0  0  0  0  0
   -2.3605   -0.5343    0.9801 C   0  0  0  0  0  0  0  0  0  0  0  0
   -3.5772   -1.2224    0.9645 C   0  0  0  0  0  0  0  0  0  0  0  0
   -4.4618   -1.1738   -0.0659 C   0  0  0  0  0  0  0  0  0  0  0  0
   -5.7048   -1.9025   -0.1772 C   0  0  0  0  0  0  0  0  0  0  0  0
   -6.1600   -2.1533   -1.4982 C   0  0  0  0  0  0  0  0  0  0  0  0
   -7.3241   -2.7938   -1.7810 C   0  0  0  0  0  0  0  0  0  0  0  0
   -8.1123   -3.2268   -0.7181 C   0  0  0  0  0  0  0  0  0  0  0  0
   -9.3562   -3.9138   -0.9816 C   0  0  0  0  0  0  0  0  0  0  0  0
   -9.7004   -4.1084   -2.1718 O   0  0  0  0  0  0  0  0  0  0  0  0
  -10.1334   -4.3378    0.0919 O   0  0  0  0  0  0  0  0  0  0  0  0
   -7.6892   -2.9922    0.5591 C   0  0  0  0  0  0  0  0  0  0  0  0
   -6.4775   -2.3244    0.8430 C   0  0  0  0  0  0  0  0  0  0  0  0
   -6.1379   -2.0593    2.2584 C   0  0  0  0  0  0  0  0  0  0  0  0
   -4.0582   -0.3787   -1.1192 N   0  0  0  0  0  0  0  0  0  0  0  0
   -2.9067    0.2875   -1.1341 C   0  0  0  0  0  0  0  0  0  0  0  0
    0.1983    0.9772    0.9283 C   0  0  0  0  0  0  0  0  0  0  0  0
    0.0622    0.7735    2.1563 O   0  0  0  0  0  0  0  0  0  0  0  0
    1.4878    1.3105    0.2530 C   0  0  0  0  0  0  0  0  0  0  0  0
    1.9839    0.1353   -0.5398 C   0  0  0  0  0  0  0  0  0  0  0  0
    2.9117   -0.6616    0.3830 C   0  0  0  0  0  0  0  0  0  0  0  0
    4.0860    0.0568    0.6028 N   0  0  0  0  0  0  0  0  0  0  0  0
    5.1090   -0.5304    1.3572 C   0  0  0  0  0  0  0  0  0  0  0  0
    5.5870   -1.7992    0.7702 C   0  0  0  0  0  0  0  0  0  0  0  0
    6.6550   -1.7524   -0.0978 N   0  0  0  0  0  0  0  0  0  0  0  0
    7.1233   -2.8370   -0.7041 C   0  0  0  0  0  0  0  0  0  0  0  0
    6.5931   -4.0870   -0.5235 C   0  0  0  0  0  0  0  0  0  0  0  0
    5.5253   -4.1852    0.3352 C   0  0  0  0  0  0  0  0  0  0  0  0
    5.0371   -3.0326    0.9728 C   0  0  0  0  0  0  0  0  0  0  0  0
    3.9151   -3.2093    1.9295 C   0  0  0  0  0  0  0  0  0  0  0  0
    3.9202    1.4787    0.8150 C   0  0  0  0  0  0  0  0  0  0  0  0
    2.5109    1.8651    1.1887 C   0  0  0  0  0  0  0  0  0  0  0  0
    2.4587    3.5559   -2.2116 N   0  0  0  0  0  0  0  0  0  0  0  0
    3.0234    4.7062   -2.5896 C   0  0  0  0  0  0  0  0  0  0  0  0
    2.7887    5.8732   -1.9222 N   0  0  0  0  0  0  0  0  0  0  0  0
    2.5240    8.2037   -1.6516 H   0  0  0  0  0  0  0  0  0  0  0  0
    1.6098    9.1481   -0.4523 H   0  0  0  0  0  0  0  0  0  0  0  0
    3.2617    8.4953   -0.0228 H   0  0  0  0  0  0  0  0  0  0  0  0
    0.7282    4.6396    0.3767 H   0  0  0  0  0  0  0  0  0  0  0  0
   -1.7285   -0.6346    1.8381 H   0  0  0  0  0  0  0  0  0  0  0  0
   -3.7521   -1.8360    1.8263 H   0  0  0  0  0  0  0  0  0  0  0  0
   -5.5457   -1.8162   -2.3122 H   0  0  0  0  0  0  0  0  0  0  0  0
   -7.6767   -2.9890   -2.7928 H   0  0  0  0  0  0  0  0  0  0  0  0
  -11.1035   -4.5468   -0.1053 H   0  0  0  0  0  0  0  0  0  0  0  0
   -8.2870   -3.3205    1.3976 H   0  0  0  0  0  0  0  0  0  0  0  0
   -7.1561   -2.0246    2.8194 H   0  0  0  0  0  0  0  0  0  0  0  0
   -5.7427   -1.0463    2.4480 H   0  0  0  0  0  0  0  0  0  0  0  0
   -5.5366   -2.8328    2.7452 H   0  0  0  0  0  0  0  0  0  0  0  0
   -2.6993    0.8805   -2.0200 H   0  0  0  0  0  0  0  0  0  0  0  0
    1.1585   -0.5110   -0.8440 H   0  0  0  0  0  0  0  0  0  0  0  0
    2.5583    0.4376   -1.4317 H   0  0  0  0  0  0  0  0  0  0  0  0
    2.3258   -0.9766    1.2509 H   0  0  0  0  0  0  0  0  0  0  0  0
    3.1420   -1.5842   -0.2263 H   0  0  0  0  0  0  0  0  0  0  0  0
    4.7371   -0.7382    2.3866 H   0  0  0  0  0  0  0  0  0  0  0  0
    5.9772    0.1938    1.4138 H   0  0  0  0  0  0  0  0  0  0  0  0
    7.9663   -2.7532   -1.3795 H   0  0  0  0  0  0  0  0  0  0  0  0
    6.9992   -4.9531   -1.0352 H   0  0  0  0  0  0  0  0  0  0  0  0
    5.0473   -5.1371    0.5341 H   0  0  0  0  0  0  0  0  0  0  0  0
    2.9521   -3.3618    1.3760 H   0  0  0  0  0  0  0  0  0  0  0  0
    4.0717   -4.2153    2.4314 H   0  0  0  0  0  0  0  0  0  0  0  0
    3.8703   -2.4839    2.7312 H   0  0  0  0  0  0  0  0  0  0  0  0
    4.2594    2.0697   -0.0441 H   0  0  0  0  0  0  0  0  0  0  0  0
    4.5625    1.7560    1.6825 H   0  0  0  0  0  0  0  0  0  0  0  0
    2.4602    2.9785    1.1139 H   0  0  0  0  0  0  0  0  0  0  0  0
    2.3181    1.6168    2.2520 H   0  0  0  0  0  0  0  0  0  0  0  0
    3.7020    4.7832   -3.4484 H   0  0  0  0  0  0  0  0  0  0  0  0
  1  2  1  0
  2  3  1  0
  3  4  2  0
  4  5  1  0
  5  6  1  0
  6  7  1  0
  7  8  2  0
  7  9  1  0
  9 10  1  0
 10 11  2  0
 11 12  1  0
 12 13  2  0
 13 14  1  0
 14 15  2  0
 15 16  1  0
 16 17  2  0
 17 18  1  0
 18 19  2  0
 18 20  1  0
 17 21  1  0
 21 22  2  0
 22 23  1  0
 13 24  1  0
 24 25  2  0
  9 26  1  0
 26 27  2  0
 26 28  1  0
 28 29  1  0
 29 30  1  0
 30 31  1  0
 31 32  1  0
 32 33  1  0
 33 34  2  0
 34 35  1  0
 35 36  2  0
 36 37  1  0
 37 38  2  0
 38 39  1  0
 31 40  1  0
 40 41  1  0
  5 42  2  0
 42 43  1  0
 43 44  2  0
 44  3  1  0
 28  6  1  0
 38 33  1  0
 25 10  1  0
 41 28  1  0
 22 14  1  0
  1 45  1  0
  1 46  1  0
  1 47  1  0
  4 48  1  0
 11 49  1  0
 12 50  1  0
 15 51  1  0
 16 52  1  0
 20 53  1  0
 21 54  1  0
 23 55  1  0
 23 56  1  0
 23 57  1  0
 25 58  1  0
 29 59  1  0
 29 60  1  0
 30 61  1  0
 30 62  1  0
 32 63  1  0
 32 64  1  0
 35 65  1  0
 36 66  1  0
 37 67  1  0
 39 68  1  0
 39 69  1  0
 39 70  1  0
 40 71  1  0
 40 72  1  0
 41 73  1  0
 41 74  1  0
 43 75  1  0
M  END
$$$$
