@<TRIPOS>MOLECULE
*****
 70 73 0 0 0
SMALL
GASTEIGER

@<TRIPOS>ATOM
      1 C           5.8385   -0.2036   -4.3480 C.3     1  UNL1       -0.0624
      2 C           4.3082   -0.1425   -4.3501 C.3     1  UNL1       -0.0437
      3 C           3.8171   -1.5366   -4.1512 C.3     1  UNL1       -0.0624
      4 C           3.9097    0.8195   -3.2722 C.3     1  UNL1       -0.0335
      5 C           4.3573    0.4428   -1.9032 C.3     1  UNL1       -0.0279
      6 C           3.1455    0.1904   -1.0578 C.3     1  UNL1        0.0606
      7 N           3.3347    0.6987    0.2960 N.am    1  UNL1       -0.3050
      8 C           3.0935   -0.0930    1.4490 C.2     1  UNL1        0.2444
      9 O           2.6998   -1.2760    1.2112 O.2     1  UNL1       -0.2702
     10 C           3.2741    0.3846    2.8140 C.ar    1  UNL1        0.0369
     11 C           3.7159    1.6520    3.0927 C.ar    1  UNL1       -0.0462
     12 C           3.8860    2.1058    4.3834 C.ar    1  UNL1       -0.0195
     13 C           3.6129    1.2865    5.4613 C.ar    1  UNL1        0.1169
     14 O           3.7792    1.7286    6.7762 O.3     1  UNL1       -0.5068
     15 C           3.1657    0.0039    5.1837 C.ar    1  UNL1       -0.0195
     16 C           3.0013   -0.4334    3.8866 C.ar    1  UNL1       -0.0462
     17 C           2.1050    1.0734   -1.7164 C.3     1  UNL1        0.1219
     18 O           0.7975    0.7609   -1.3827 O.3     1  UNL1       -0.4560
     19 C          -0.0675    1.6477   -0.7349 C.2     1  UNL1        0.3397
     20 O           0.4409    2.7716   -0.4737 O.2     1  UNL1       -0.2449
     21 C          -1.4298    1.2953   -0.3974 C.ar    1  UNL1        0.0659
     22 C          -2.2967    2.1515    0.2400 C.ar    1  UNL1       -0.0053
     23 C          -3.5896    1.7876    0.5510 C.ar    1  UNL1        0.1320
     24 O          -4.4621    2.6580    1.1959 O.3     1  UNL1       -0.5059
     25 C          -4.0771    0.5149    0.2259 C.ar    1  UNL1        0.1050
     26 C          -5.4706    0.2019    0.4672 C.2     1  UNL1        0.2044
     27 O          -6.2793    1.2186    0.5396 O.2     1  UNL1       -0.2863
     28 C          -6.0767   -1.0777    0.6252 C.ar    1  UNL1        0.0778
     29 C          -7.3295   -1.2428   -0.0051 C.ar    1  UNL1        0.1285
     30 O          -7.8614   -0.1936   -0.7326 O.3     1  UNL1       -0.5060
     31 C          -8.0395   -2.3943    0.0723 C.ar    1  UNL1       -0.0194
     32 C          -7.5033   -3.4293    0.7963 C.ar    1  UNL1       -0.0575
     33 C          -6.3049   -3.2881    1.4106 C.ar    1  UNL1       -0.0468
     34 C          -5.5549   -2.1034    1.3467 C.ar    1  UNL1        0.0731
     35 C          -4.3929   -1.9848    2.2110 C.2     1  UNL1        0.3376
     36 O          -3.9352   -3.0470    2.7425 O.2     1  UNL1       -0.2451
     37 O          -3.7530   -0.8073    2.5073 O.3     1  UNL1       -0.4771
     38 C          -3.2187   -0.3404   -0.4100 C.ar    1  UNL1        0.1320
     39 O          -3.6481   -1.6158   -0.7652 O.3     1  UNL1       -0.5059
     40 C          -1.9088    0.0542   -0.7142 C.ar    1  UNL1       -0.0053
     41 C           2.4040    1.0294   -3.1973 C.3     1  UNL1       -0.0108
     42 H           6.1696   -0.5306   -5.3491 H       1  UNL1        0.0232
     43 H           6.2475    0.7915   -4.0789 H       1  UNL1        0.0232
     44 H           6.1156   -0.9955   -3.6134 H       1  UNL1        0.0232
     45 H           3.9719    0.2437   -5.3136 H       1  UNL1        0.0298
     46 H           4.0149   -2.0915   -5.1046 H       1  UNL1        0.0232
     47 H           4.3607   -2.1003   -3.3668 H       1  UNL1        0.0232
     48 H           2.7194   -1.5423   -4.0262 H       1  UNL1        0.0232
     49 H           4.4114    1.7963   -3.5411 H       1  UNL1        0.0305
     50 H           4.9191    1.2836   -1.4200 H       1  UNL1        0.0287
     51 H           5.0663   -0.4062   -1.9182 H       1  UNL1        0.0287
     52 H           2.8247   -0.8667   -1.0127 H       1  UNL1        0.0535
     53 H           3.6597    1.6817    0.3987 H       1  UNL1        0.1494
     54 H           3.9438    2.3334    2.2907 H       1  UNL1        0.0626
     55 H           4.2408    3.1233    4.5936 H       1  UNL1        0.0654
     56 H           2.9702    1.9670    7.3615 H       1  UNL1        0.2921
     57 H           2.9526   -0.6344    6.0285 H       1  UNL1        0.0654
     58 H           2.6527   -1.4343    3.6737 H       1  UNL1        0.0626
     59 H           2.3151    2.1145   -1.3800 H       1  UNL1        0.0753
     60 H          -1.9902    3.1582    0.5244 H       1  UNL1        0.0662
     61 H          -4.7433    3.5069    0.7633 H       1  UNL1        0.2922
     62 H          -7.9612   -0.1892   -1.7357 H       1  UNL1        0.2922
     63 H          -9.0085   -2.5168   -0.4173 H       1  UNL1        0.0654
     64 H          -8.0678   -4.3572    0.8594 H       1  UNL1        0.0619
     65 H          -5.8718   -4.0958    1.9824 H       1  UNL1        0.0626
     66 H          -3.0922   -0.6824    3.2635 H       1  UNL1        0.2954
     67 H          -3.0075   -2.4062   -0.6992 H       1  UNL1        0.2922
     68 H          -1.3047   -0.6954   -1.2180 H       1  UNL1        0.0662
     69 H           1.8332    0.2695   -3.7321 H       1  UNL1        0.0304
     70 H           2.1707    2.0069   -3.6865 H       1  UNL1        0.0304
@<TRIPOS>BOND
     1     1     2    1
     2     2     3    1
     3     2     4    1
     4     4     5    1
     5     5     6    1
     6     6     7    1
     7     7     8   am
     8     8     9    2
     9     8    10    1
    10    10    11   ar
    11    11    12   ar
    12    12    13   ar
    13    13    14    1
    14    13    15   ar
    15    15    16   ar
    16     6    17    1
    17    17    18    1
    18    18    19    1
    19    19    20    2
    20    19    21    1
    21    21    22   ar
    22    22    23   ar
    23    23    24    1
    24    23    25   ar
    25    25    26    1
    26    26    27    2
    27    26    28    1
    28    28    29   ar
    29    29    30    1
    30    29    31   ar
    31    31    32   ar
    32    32    33   ar
    33    33    34   ar
    34    34    35    1
    35    35    36    2
    36    35    37    1
    37    25    38   ar
    38    38    39    1
    39    38    40   ar
    40    17    41    1
    41    41     4    1
    42    16    10   ar
    43    40    21   ar
    44    34    28   ar
    45     1    42    1
    46     1    43    1
    47     1    44    1
    48     2    45    1
    49     3    46    1
    50     3    47    1
    51     3    48    1
    52     4    49    1
    53     5    50    1
    54     5    51    1
    55     6    52    1
    56     7    53    1
    57    11    54    1
    58    12    55    1
    59    14    56    1
    60    15    57    1
    61    16    58    1
    62    17    59    1
    63    22    60    1
    64    24    61    1
    65    30    62    1
    66    31    63    1
    67    32    64    1
    68    33    65    1
    69    37    66    1
    70    39    67    1
    71    40    68    1
    72    41    69    1
    73    41    70    1
