@<TRIPOS>MOLECULE
*****
 46 48 0 0 0
SMALL
GASTEIGER

@<TRIPOS>ATOM
      1 C          -2.3277   -0.6990    1.7303 C.3     1  UNL1       -0.0220
      2 C          -2.0459   -1.1004    0.3264 C.ar    1  UNL1        0.0450
      3 C          -1.0474   -1.9877   -0.0949 C.ar    1  UNL1       -0.0061
      4 C          -0.0842   -2.7121    0.7669 C.3     1  UNL1       -0.0162
      5 C           1.0117   -1.8657    1.3095 C.3     1  UNL1        0.0284
      6 C           1.8681   -1.2290    0.2569 C.2     1  UNL1        0.2175
      7 O           1.5557   -1.4893   -0.9128 O.2     1  UNL1       -0.2755
      8 N           2.9455   -0.3989    0.5816 N.am    1  UNL1       -0.2848
      9 C           3.7944    0.2435   -0.3334 C.ar    1  UNL1        0.0474
     10 C           3.4543    0.3393   -1.6850 C.ar    1  UNL1       -0.0397
     11 C           4.2749    0.9432   -2.6236 C.ar    1  UNL1       -0.0600
     12 C           5.4647    1.4612   -2.1827 C.ar    1  UNL1       -0.0609
     13 C           5.8080    1.3722   -0.8557 C.ar    1  UNL1       -0.0460
     14 C           4.9933    0.7647    0.1120 C.ar    1  UNL1        0.0800
     15 C           5.4873    0.7157    1.4788 C.2     1  UNL1        0.3386
     16 O           4.9302    0.1940    2.4581 O.2     1  UNL1       -0.2451
     17 O           6.7404    1.3142    1.7896 O.3     1  UNL1       -0.4771
     18 C          -1.1921   -2.0247   -1.4656 C.ar    1  UNL1        0.0532
     19 N          -2.2086   -1.2100   -1.8029 N.ar    1  UNL1       -0.1743
     20 N          -2.7325   -0.6464   -0.7349 N.ar    1  UNL1       -0.2367
     21 C          -3.8195    0.2709   -0.6763 C.ar    1  UNL1        0.0659
     22 C          -3.6907    1.5758   -0.2547 C.ar    1  UNL1       -0.0328
     23 C          -4.7311    2.4653   -0.1950 C.ar    1  UNL1       -0.0182
     24 C          -5.9843    2.0248   -0.5814 C.ar    1  UNL1        0.1170
     25 O          -7.0469    2.9440   -0.5174 O.3     1  UNL1       -0.5068
     26 C          -6.1776    0.7270   -1.0137 C.ar    1  UNL1       -0.0182
     27 C          -5.1022   -0.1348   -1.0580 C.ar    1  UNL1       -0.0328
     28 H          -1.7422   -1.2826    2.4499 H       1  UNL1        0.0293
     29 H          -3.4188   -0.9335    1.8945 H       1  UNL1        0.0293
     30 H          -2.2420    0.4044    1.8639 H       1  UNL1        0.0293
     31 H          -0.6901   -3.0927    1.6356 H       1  UNL1        0.0319
     32 H           0.2715   -3.6260    0.2531 H       1  UNL1        0.0319
     33 H           1.6948   -2.4803    1.9293 H       1  UNL1        0.0362
     34 H           0.6056   -1.0872    1.9965 H       1  UNL1        0.0362
     35 H           3.0984   -0.2419    1.6099 H       1  UNL1        0.1548
     36 H           2.5211   -0.0375   -2.0890 H       1  UNL1        0.0636
     37 H           3.9843    1.0031   -3.6704 H       1  UNL1        0.0618
     38 H           6.1148    1.9360   -2.9046 H       1  UNL1        0.0618
     39 H           6.7538    1.7846   -0.5069 H       1  UNL1        0.0626
     40 H           7.2453    1.0493    2.6260 H       1  UNL1        0.2954
     41 H          -0.5862   -2.6193   -2.1620 H       1  UNL1        0.0851
     42 H          -2.7141    1.9212    0.0470 H       1  UNL1        0.0640
     43 H          -4.6230    3.4954    0.1390 H       1  UNL1        0.0655
     44 H          -7.9817    2.7256   -0.7652 H       1  UNL1        0.2921
     45 H          -7.1762    0.3803   -1.3203 H       1  UNL1        0.0655
     46 H          -5.2531   -1.1565   -1.3983 H       1  UNL1        0.0640
@<TRIPOS>BOND
     1     1     2    1
     2     2     3   ar
     3     3     4    1
     4     4     5    1
     5     5     6    1
     6     6     7    2
     7     6     8   am
     8     8     9    1
     9     9    10   ar
    10    10    11   ar
    11    11    12   ar
    12    12    13   ar
    13    13    14   ar
    14    14    15    1
    15    15    16    2
    16    15    17    1
    17     3    18   ar
    18    18    19   ar
    19    19    20   ar
    20    20    21    1
    21    21    22   ar
    22    22    23   ar
    23    23    24   ar
    24    24    25    1
    25    24    26   ar
    26    26    27   ar
    27    20     2   ar
    28    27    21   ar
    29    14     9   ar
    30     1    28    1
    31     1    29    1
    32     1    30    1
    33     4    31    1
    34     4    32    1
    35     5    33    1
    36     5    34    1
    37     8    35    1
    38    10    36    1
    39    11    37    1
    40    12    38    1
    41    13    39    1
    42    17    40    1
    43    18    41    1
    44    22    42    1
    45    23    43    1
    46    25    44    1
    47    26    45    1
    48    27    46    1
