
     RDKit          3D

 46 48  0  0  0  0  0  0  0  0999 V2000
   -2.3277   -0.6990    1.7303 C   0  0  0  0  0  0  0  0  0  0  0  0
   -2.0459   -1.1004    0.3264 C   0  0  0  0  0  0  0  0  0  0  0  0
   -1.0474   -1.9877   -0.0949 C   0  0  0  0  0  0  0  0  0  0  0  0
   -0.0842   -2.7121    0.7669 C   0  0  0  0  0  0  0  0  0  0  0  0
    1.0117   -1.8657    1.3095 C   0  0  0  0  0  0  0  0  0  0  0  0
    1.8681   -1.2290    0.2569 C   0  0  0  0  0  0  0  0  0  0  0  0
    1.5557   -1.4893   -0.9128 O   0  0  0  0  0  0  0  0  0  0  0  0
    2.9455   -0.3989    0.5816 N   0  0  0  0  0  0  0  0  0  0  0  0
    3.7944    0.2435   -0.3334 C   0  0  0  0  0  0  0  0  0  0  0  0
    3.4543    0.3393   -1.6850 C   0  0  0  0  0  0  0  0  0  0  0  0
    4.2749    0.9432   -2.6236 C   0  0  0  0  0  0  0  0  0  0  0  0
    5.4647    1.4612   -2.1827 C   0  0  0  0  0  0  0  0  0  0  0  0
    5.8080    1.3722   -0.8557 C   0  0  0  0  0  0  0  0  0  0  0  0
    4.9933    0.7647    0.1120 C   0  0  0  0  0  0  0  0  0  0  0  0
    5.4873    0.7157    1.4788 C   0  0  0  0  0  0  0  0  0  0  0  0
    4.9302    0.1940    2.4581 O   0  0  0  0  0  0  0  0  0  0  0  0
    6.7404    1.3142    1.7896 O   0  0  0  0  0  0  0  0  0  0  0  0
   -1.1921   -2.0247   -1.4656 C   0  0  0  0  0  0  0  0  0  0  0  0
   -2.2086   -1.2100   -1.8029 N   0  0  0  0  0  0  0  0  0  0  0  0
   -2.7325   -0.6464   -0.7349 N   0  0  0  0  0  0  0  0  0  0  0  0
   -3.8195    0.2709   -0.6763 C   0  0  0  0  0  0  0  0  0  0  0  0
   -3.6907    1.5758   -0.2547 C   0  0  0  0  0  0  0  0  0  0  0  0
   -4.7311    2.4653   -0.1950 C   0  0  0  0  0  0  0  0  0  0  0  0
   -5.9843    2.0248   -0.5814 C   0  0  0  0  0  0  0  0  0  0  0  0
   -7.0469    2.9440   -0.5174 O   0  0  0  0  0  0  0  0  0  0  0  0
   -6.1776    0.7270   -1.0137 C   0  0  0  0  0  0  0  0  0  0  0  0
   -5.1022   -0.1348   -1.0580 C   0  0  0  0  0  0  0  0  0  0  0  0
   -1.7422   -1.2826    2.4499 H   0  0  0  0  0  0  0  0  0  0  0  0
   -3.4188   -0.9335    1.8945 H   0  0  0  0  0  0  0  0  0  0  0  0
   -2.2420    0.4044    1.8639 H   0  0  0  0  0  0  0  0  0  0  0  0
   -0.6901   -3.0927    1.6356 H   0  0  0  0  0  0  0  0  0  0  0  0
    0.2715   -3.6260    0.2531 H   0  0  0  0  0  0  0  0  0  0  0  0
    1.6948   -2.4803    1.9293 H   0  0  0  0  0  0  0  0  0  0  0  0
    0.6056   -1.0872    1.9965 H   0  0  0  0  0  0  0  0  0  0  0  0
    3.0984   -0.2419    1.6099 H   0  0  0  0  0  0  0  0  0  0  0  0
    2.5211   -0.0375   -2.0890 H   0  0  0  0  0  0  0  0  0  0  0  0
    3.9843    1.0031   -3.6704 H   0  0  0  0  0  0  0  0  0  0  0  0
    6.1148    1.9360   -2.9046 H   0  0  0  0  0  0  0  0  0  0  0  0
    6.7538    1.7846   -0.5069 H   0  0  0  0  0  0  0  0  0  0  0  0
    7.2453    1.0493    2.6260 H   0  0  0  0  0  0  0  0  0  0  0  0
   -0.5862   -2.6193   -2.1620 H   0  0  0  0  0  0  0  0  0  0  0  0
   -2.7141    1.9212    0.0470 H   0  0  0  0  0  0  0  0  0  0  0  0
   -4.6230    3.4954    0.1390 H   0  0  0  0  0  0  0  0  0  0  0  0
   -7.9817    2.7256   -0.7652 H   0  0  0  0  0  0  0  0  0  0  0  0
   -7.1762    0.3803   -1.3203 H   0  0  0  0  0  0  0  0  0  0  0  0
   -5.2531   -1.1565   -1.3983 H   0  0  0  0  0  0  0  0  0  0  0  0
  1  2  1  0
  2  3  2  0
  3  4  1  0
  4  5  1  0
  5  6  1  0
  6  7  2  0
  6  8  1  0
  8  9  1  0
  9 10  2  0
 10 11  1  0
 11 12  2  0
 12 13  1  0
 13 14  2  0
 14 15  1  0
 15 16  2  0
 15 17  1  0
  3 18  1  0
 18 19  2  0
 19 20  1  0
 20 21  1  0
 21 22  2  0
 22 23  1  0
 23 24  2  0
 24 25  1  0
 24 26  1  0
 26 27  2  0
 20  2  1  0
 27 21  1  0
 14  9  1  0
  1 28  1  0
  1 29  1  0
  1 30  1  0
  4 31  1  0
  4 32  1  0
  5 33  1  0
  5 34  1  0
  8 35  1  0
 10 36  1  0
 11 37  1  0
 12 38  1  0
 13 39  1  0
 17 40  1  0
 18 41  1  0
 22 42  1  0
 23 43  1  0
 25 44  1  0
 26 45  1  0
 27 46  1  0
M  END
$$$$
