
     RDKit          3D

 50 54  0  0  0  0  0  0  0  0999 V2000
    8.5914    2.0532    0.9746 C   0  0  0  0  0  0  0  0  0  0  0  0
    7.5437    2.3599   -0.0368 C   0  0  0  0  0  0  0  0  0  0  0  0
    6.3506    1.4914    0.1488 C   0  0  0  0  0  0  0  0  0  0  0  0
    6.1343    0.5255    1.0700 N   0  0  0  0  0  0  0  0  0  0  0  0
    4.9569    0.0099    0.8785 O   0  0  0  0  0  0  0  0  0  0  0  0
    4.3467    0.5854   -0.1458 C   0  0  0  0  0  0  0  0  0  0  0  0
    3.0152    0.2826   -0.6703 C   0  0  0  0  0  0  0  0  0  0  0  0
    2.4919    0.7421   -1.8203 N   0  0  0  0  0  0  0  0  0  0  0  0
    1.2615    0.2622   -1.9792 N   0  0  0  0  0  0  0  0  0  0  0  0
    0.9770   -0.5302   -0.9044 C   0  0  0  0  0  0  0  0  0  0  0  0
    2.0750   -0.4960   -0.1198 N   0  0  0  0  0  0  0  0  0  0  0  0
    2.1743   -1.2234    1.1427 C   0  0  0  0  0  0  0  0  0  0  0  0
    0.9877   -2.1016    1.3914 C   0  0  0  0  0  0  0  0  0  0  0  0
   -0.2377   -1.5547    0.8437 N   0  0  0  0  0  0  0  0  0  0  0  0
   -1.3506   -1.2866    1.6738 C   0  0  0  0  0  0  0  0  0  0  0  0
   -1.2645   -1.5287    2.8977 O   0  0  0  0  0  0  0  0  0  0  0  0
   -2.6070   -0.7334    1.1537 C   0  0  0  0  0  0  0  0  0  0  0  0
   -3.3382   -1.3916    0.1925 C   0  0  0  0  0  0  0  0  0  0  0  0
   -4.5144   -0.8566   -0.2819 C   0  0  0  0  0  0  0  0  0  0  0  0
   -4.9918    0.3426    0.1862 C   0  0  0  0  0  0  0  0  0  0  0  0
   -6.2315    0.8610   -0.3437 C   0  0  0  0  0  0  0  0  0  0  0  0
   -7.0958    0.3791   -1.2805 C   0  0  0  0  0  0  0  0  0  0  0  0
   -8.1908    1.0817   -1.5835 C   0  0  0  0  0  0  0  0  0  0  0  0
   -8.4344    2.2520   -0.9686 C   0  0  0  0  0  0  0  0  0  0  0  0
   -7.0052    2.3977    0.1422 S   0  0  0  0  0  0  0  0  0  0  0  0
   -4.2685    1.0042    1.1442 C   0  0  0  0  0  0  0  0  0  0  0  0
   -3.0924    0.4755    1.6227 C   0  0  0  0  0  0  0  0  0  0  0  0
   -0.2496   -1.3056   -0.5802 C   0  0  2  0  0  0  0  0  0  0  0  0
   -0.2500   -2.5597   -1.3961 C   0  0  0  0  0  0  0  0  0  0  0  0
    5.2249    1.5034   -0.5886 N   0  0  0  0  0  0  0  0  0  0  0  0
    8.1485    1.8108    1.9611 H   0  0  0  0  0  0  0  0  0  0  0  0
    9.2160    2.9772    1.1029 H   0  0  0  0  0  0  0  0  0  0  0  0
    9.2521    1.2610    0.5995 H   0  0  0  0  0  0  0  0  0  0  0  0
    7.8913    2.2055   -1.0762 H   0  0  0  0  0  0  0  0  0  0  0  0
    7.2514    3.4466    0.0225 H   0  0  0  0  0  0  0  0  0  0  0  0
    3.1125   -1.8029    1.2220 H   0  0  0  0  0  0  0  0  0  0  0  0
    2.1842   -0.4353    1.9329 H   0  0  0  0  0  0  0  0  0  0  0  0
    0.8586   -2.3482    2.4657 H   0  0  0  0  0  0  0  0  0  0  0  0
    1.1966   -3.0814    0.8796 H   0  0  0  0  0  0  0  0  0  0  0  0
   -3.0033   -2.3347   -0.2043 H   0  0  0  0  0  0  0  0  0  0  0  0
   -5.1054   -1.3761   -1.0505 H   0  0  0  0  0  0  0  0  0  0  0  0
   -6.8446   -0.6049   -1.7646 H   0  0  0  0  0  0  0  0  0  0  0  0
   -8.9341    0.7115   -2.3595 H   0  0  0  0  0  0  0  0  0  0  0  0
   -9.2130    2.9789   -1.0310 H   0  0  0  0  0  0  0  0  0  0  0  0
   -4.6401    1.9481    1.5156 H   0  0  0  0  0  0  0  0  0  0  0  0
   -2.5022    0.9967    2.3917 H   0  0  0  0  0  0  0  0  0  0  0  0
   -1.1759   -0.7323   -0.8350 H   0  0  0  0  0  0  0  0  0  0  0  0
   -0.8101   -2.4536   -2.3286 H   0  0  0  0  0  0  0  0  0  0  0  0
   -0.6949   -3.3886   -0.8033 H   0  0  0  0  0  0  0  0  0  0  0  0
    0.8038   -2.8194   -1.6335 H   0  0  0  0  0  0  0  0  0  0  0  0
  1  2  1  0
  2  3  1  0
  3  4  2  0
  4  5  1  0
  5  6  1  0
  6  7  1  0
  7  8  2  0
  8  9  1  0
  9 10  2  0
 10 11  1  0
 11 12  1  0
 12 13  1  0
 13 14  1  0
 14 15  1  0
 15 16  2  0
 15 17  1  0
 17 18  2  0
 18 19  1  0
 19 20  2  0
 20 21  1  0
 21 22  2  0
 22 23  1  0
 23 24  2  0
 24 25  1  0
 20 26  1  0
 26 27  2  0
 14 28  1  0
 28 29  1  0
  6 30  2  0
 30  3  1  0
 11  7  1  0
 27 17  1  0
 28 10  1  0
 25 21  1  0
  1 31  1  0
  1 32  1  0
  1 33  1  0
  2 34  1  0
  2 35  1  0
 12 36  1  0
 12 37  1  0
 13 38  1  0
 13 39  1  0
 18 40  1  0
 19 41  1  0
 22 42  1  0
 23 43  1  0
 24 44  1  0
 26 45  1  0
 27 46  1  0
 28 47  1  1
 29 48  1  0
 29 49  1  0
 29 50  1  0
M  END
$$$$
