@<TRIPOS>MOLECULE
*****
 50 54 0 0 0
SMALL
GASTEIGER

@<TRIPOS>ATOM
      1 C           8.5914    2.0532    0.9746 C.3     1  UNL1       -0.0583
      2 C           7.5437    2.3599   -0.0368 C.3     1  UNL1        0.0078
      3 C           6.3506    1.4914    0.1488 C.ar    1  UNL1        0.1720
      4 N           6.1343    0.5255    1.0700 N.ar    1  UNL1       -0.0608
      5 O           4.9569    0.0099    0.8785 O.2     1  UNL1       -0.3295
      6 C           4.3467    0.5854   -0.1458 C.ar    1  UNL1        0.2958
      7 C           3.0152    0.2826   -0.6703 C.ar    1  UNL1        0.2221
      8 N           2.4919    0.7421   -1.8203 N.ar    1  UNL1       -0.1241
      9 N           1.2615    0.2622   -1.9792 N.ar    1  UNL1       -0.1319
     10 C           0.9770   -0.5302   -0.9044 C.ar    1  UNL1        0.1542
     11 N           2.0750   -0.4960   -0.1198 N.ar    1  UNL1       -0.3040
     12 C           2.1743   -1.2234    1.1427 C.3     1  UNL1        0.0424
     13 C           0.9877   -2.1016    1.3914 C.3     1  UNL1        0.0338
     14 N          -0.2377   -1.5547    0.8437 N.am    1  UNL1       -0.2860
     15 C          -1.3506   -1.2866    1.6738 C.2     1  UNL1        0.2472
     16 O          -1.2645   -1.5287    2.8977 O.2     1  UNL1       -0.2700
     17 C          -2.6070   -0.7334    1.1537 C.ar    1  UNL1        0.0370
     18 C          -3.3382   -1.3916    0.1925 C.ar    1  UNL1       -0.0490
     19 C          -4.5144   -0.8566   -0.2819 C.ar    1  UNL1       -0.0528
     20 C          -4.9918    0.3426    0.1862 C.ar    1  UNL1       -0.0113
     21 C          -6.2315    0.8610   -0.3437 C.ar    1  UNL1        0.0193
     22 C          -7.0958    0.3791   -1.2805 C.ar    1  UNL1       -0.0469
     23 C          -8.1908    1.0817   -1.5835 C.ar    1  UNL1       -0.0541
     24 C          -8.4344    2.2520   -0.9686 C.ar    1  UNL1       -0.0237
     25 S          -7.0052    2.3977    0.1422 S.2     1  UNL1       -0.0967
     26 C          -4.2685    1.0042    1.1442 C.ar    1  UNL1       -0.0528
     27 C          -3.0924    0.4755    1.6227 C.ar    1  UNL1       -0.0490
     28 C          -0.2496   -1.3056   -0.5802 C.3     1  UNL1        0.0834
     29 C          -0.2500   -2.5597   -1.3961 C.3     1  UNL1       -0.0393
     30 N           5.2249    1.5034   -0.5886 N.ar    1  UNL1       -0.1892
     31 H           8.1485    1.8108    1.9611 H       1  UNL1        0.0234
     32 H           9.2160    2.9772    1.1029 H       1  UNL1        0.0234
     33 H           9.2521    1.2610    0.5995 H       1  UNL1        0.0234
     34 H           7.8913    2.2055   -1.0762 H       1  UNL1        0.0342
     35 H           7.2514    3.4466    0.0225 H       1  UNL1        0.0342
     36 H           3.1125   -1.8029    1.2220 H       1  UNL1        0.0508
     37 H           2.1842   -0.4353    1.9329 H       1  UNL1        0.0508
     38 H           0.8586   -2.3482    2.4657 H       1  UNL1        0.0482
     39 H           1.1966   -3.0814    0.8796 H       1  UNL1        0.0482
     40 H          -3.0033   -2.3347   -0.2043 H       1  UNL1        0.0625
     41 H          -5.1054   -1.3761   -1.0505 H       1  UNL1        0.0624
     42 H          -6.8446   -0.6049   -1.7646 H       1  UNL1        0.0629
     43 H          -8.9341    0.7115   -2.3595 H       1  UNL1        0.0623
     44 H          -9.2130    2.9789   -1.0310 H       1  UNL1        0.0693
     45 H          -4.6401    1.9481    1.5156 H       1  UNL1        0.0624
     46 H          -2.5022    0.9967    2.3917 H       1  UNL1        0.0625
     47 H          -1.1759   -0.7323   -0.8350 H       1  UNL1        0.0579
     48 H          -0.8101   -2.4536   -2.3286 H       1  UNL1        0.0252
     49 H          -0.6949   -3.3886   -0.8033 H       1  UNL1        0.0252
     50 H           0.8038   -2.8194   -1.6335 H       1  UNL1        0.0252
@<TRIPOS>BOND
     1     1     2    1
     2     2     3    1
     3     3     4   ar
     4     4     5   ar
     5     5     6   ar
     6     6     7    1
     7     7     8   ar
     8     8     9   ar
     9     9    10   ar
    10    10    11   ar
    11    11    12    1
    12    12    13    1
    13    13    14    1
    14    14    15   am
    15    15    16    2
    16    15    17    1
    17    17    18   ar
    18    18    19   ar
    19    19    20   ar
    20    20    21    1
    21    21    22   ar
    22    22    23   ar
    23    23    24   ar
    24    24    25   ar
    25    20    26   ar
    26    26    27   ar
    27    14    28    1
    28    28    29    1
    29     6    30   ar
    30    30     3   ar
    31    11     7   ar
    32    27    17   ar
    33    28    10    1
    34    25    21   ar
    35     1    31    1
    36     1    32    1
    37     1    33    1
    38     2    34    1
    39     2    35    1
    40    12    36    1
    41    12    37    1
    42    13    38    1
    43    13    39    1
    44    18    40    1
    45    19    41    1
    46    22    42    1
    47    23    43    1
    48    24    44    1
    49    26    45    1
    50    27    46    1
    51    28    47    1
    52    29    48    1
    53    29    49    1
    54    29    50    1
