
     RDKit          3D

 78 83  0  0  0  0  0  0  0  0999 V2000
    0.8077   -3.8295   -3.9937 C   0  0  0  0  0  0  0  0  0  0  0  0
   -0.6082   -4.2588   -3.7977 C   0  0  0  0  0  0  0  0  0  0  0  0
   -1.1179   -3.7539   -2.4643 C   0  0  0  0  0  0  0  0  0  0  0  0
   -1.0331   -2.2362   -2.4960 C   0  0  0  0  0  0  0  0  0  0  0  0
   -1.5448   -1.7031   -1.1958 C   0  0  0  0  0  0  0  0  0  0  0  0
   -2.8171   -1.2062   -1.0251 N   0  0  0  0  0  0  0  0  0  0  0  0
   -3.0050   -0.8363    0.2177 N   0  0  0  0  0  0  0  0  0  0  0  0
   -4.2104   -0.2885    0.7219 C   0  0  0  0  0  0  0  0  0  0  0  0
   -5.3180   -1.1203    0.9537 C   0  0  0  0  0  0  0  0  0  0  0  0
   -6.5058   -0.6344    1.4576 C   0  0  0  0  0  0  0  0  0  0  0  0
   -6.6099    0.7095    1.7433 C   0  0  0  0  0  0  0  0  0  0  0  0
   -5.5310    1.5214    1.5176 C   0  0  0  0  0  0  0  0  0  0  0  0
   -4.3146    1.0428    1.0045 C   0  0  0  0  0  0  0  0  0  0  0  0
   -3.2154    1.9582    0.7755 C   0  0  0  0  0  0  0  0  0  0  0  0
   -2.8355    2.7743    1.8480 C   0  0  0  0  0  0  0  0  0  0  0  0
   -1.8127    3.6904    1.7367 C   0  0  0  0  0  0  0  0  0  0  0  0
   -1.1362    3.8107    0.5263 C   0  0  0  0  0  0  0  0  0  0  0  0
   -1.4892    3.0209   -0.5449 C   0  0  0  0  0  0  0  0  0  0  0  0
   -2.5213    2.1132   -0.3946 C   0  0  0  0  0  0  0  0  0  0  0  0
   -1.8655   -1.0699    0.9352 C   0  0  0  0  0  0  0  0  0  0  0  0
   -1.7728   -0.7820    2.3534 C   0  0  0  0  0  0  0  0  0  0  0  0
   -0.7249   -1.0040    2.9958 O   0  0  0  0  0  0  0  0  0  0  0  0
   -2.8274   -0.2492    3.0816 O   0  0  0  0  0  0  0  0  0  0  0  0
   -2.6903    0.0189    4.4854 C   0  0  0  0  0  0  0  0  0  0  0  0
   -3.9475    0.5879    5.0535 C   0  0  0  0  0  0  0  0  0  0  0  0
   -0.9610   -1.6096    0.0406 C   0  0  0  0  0  0  0  0  0  0  0  0
    0.4125   -1.9932    0.3792 C   0  0  0  0  0  0  0  0  0  0  0  0
    1.4680   -1.0715   -0.0241 C   0  0  0  0  0  0  0  0  0  0  0  0
    2.2605   -1.2960   -1.1211 C   0  0  0  0  0  0  0  0  0  0  0  0
    3.2600   -0.4148   -1.5012 C   0  0  0  0  0  0  0  0  0  0  0  0
    3.4876    0.7468   -0.7592 C   0  0  0  0  0  0  0  0  0  0  0  0
    4.5224    1.7076   -1.1112 C   0  0  0  0  0  0  0  0  0  0  0  0
    4.1830    2.9798   -1.5972 C   0  0  0  0  0  0  0  0  0  0  0  0
    5.1389    3.9072   -1.9498 C   0  0  0  0  0  0  0  0  0  0  0  0
    6.4800    3.6011   -1.8311 C   0  0  0  0  0  0  0  0  0  0  0  0
    6.8061    2.3344   -1.3469 C   0  0  0  0  0  0  0  0  0  0  0  0
    5.8547    1.4028   -0.9925 C   0  0  0  0  0  0  0  0  0  0  0  0
    6.3001    0.1181   -0.4872 C   0  0  0  0  0  0  0  0  0  0  0  0
    5.5544   -0.9266   -0.0531 N   0  0  0  0  0  0  0  0  0  0  0  0
    6.3576   -1.8848    0.3204 N   0  0  0  0  0  0  0  0  0  0  0  0
    7.6173   -1.5305    0.1563 N   0  0  0  0  0  0  0  0  0  0  0  0
    7.5791   -0.3032   -0.3385 N   0  0  0  0  0  0  0  0  0  0  0  0
    2.6968    0.9804    0.3439 C   0  0  0  0  0  0  0  0  0  0  0  0
    1.7058    0.0756    0.6937 C   0  0  0  0  0  0  0  0  0  0  0  0
    1.4352   -3.9882   -3.0974 H   0  0  0  0  0  0  0  0  0  0  0  0
    0.8809   -2.7847   -4.3245 H   0  0  0  0  0  0  0  0  0  0  0  0
    1.2289   -4.4550   -4.8294 H   0  0  0  0  0  0  0  0  0  0  0  0
   -1.2683   -3.7701   -4.5728 H   0  0  0  0  0  0  0  0  0  0  0  0
   -0.7479   -5.3605   -3.9061 H   0  0  0  0  0  0  0  0  0  0  0  0
   -2.2104   -4.0583   -2.4107 H   0  0  0  0  0  0  0  0  0  0  0  0
   -0.6070   -4.2006   -1.6154 H   0  0  0  0  0  0  0  0  0  0  0  0
   -1.6793   -1.8335   -3.3205 H   0  0  0  0  0  0  0  0  0  0  0  0
    0.0001   -1.9354   -2.7155 H   0  0  0  0  0  0  0  0  0  0  0  0
   -5.1690   -2.1674    0.7072 H   0  0  0  0  0  0  0  0  0  0  0  0
   -7.3274   -1.3098    1.6186 H   0  0  0  0  0  0  0  0  0  0  0  0
   -7.5467    1.0896    2.1406 H   0  0  0  0  0  0  0  0  0  0  0  0
   -5.6194    2.5822    1.7448 H   0  0  0  0  0  0  0  0  0  0  0  0
   -3.3698    2.6779    2.8017 H   0  0  0  0  0  0  0  0  0  0  0  0
   -1.4980    4.3357    2.5535 H   0  0  0  0  0  0  0  0  0  0  0  0
   -0.3320    4.5320    0.4415 H   0  0  0  0  0  0  0  0  0  0  0  0
   -0.9466    3.1337   -1.4769 H   0  0  0  0  0  0  0  0  0  0  0  0
   -2.7937    1.5134   -1.2353 H   0  0  0  0  0  0  0  0  0  0  0  0
   -2.5246   -0.9745    4.9748 H   0  0  0  0  0  0  0  0  0  0  0  0
   -1.8058    0.6240    4.6951 H   0  0  0  0  0  0  0  0  0  0  0  0
   -4.8383    0.1611    4.5385 H   0  0  0  0  0  0  0  0  0  0  0  0
   -4.0466    0.2909    6.1200 H   0  0  0  0  0  0  0  0  0  0  0  0
   -3.9730    1.7101    4.9894 H   0  0  0  0  0  0  0  0  0  0  0  0
    0.6617   -2.9889   -0.0652 H   0  0  0  0  0  0  0  0  0  0  0  0
    0.4824   -2.1871    1.4882 H   0  0  0  0  0  0  0  0  0  0  0  0
    2.1550   -2.1668   -1.7437 H   0  0  0  0  0  0  0  0  0  0  0  0
    3.8681   -0.6052   -2.3589 H   0  0  0  0  0  0  0  0  0  0  0  0
    3.1346    3.2214   -1.6907 H   0  0  0  0  0  0  0  0  0  0  0  0
    4.8755    4.8906   -2.3254 H   0  0  0  0  0  0  0  0  0  0  0  0
    7.2397    4.3092   -2.1002 H   0  0  0  0  0  0  0  0  0  0  0  0
    7.8725    2.1147   -1.2614 H   0  0  0  0  0  0  0  0  0  0  0  0
    8.4081    0.2881   -0.5910 H   0  0  0  0  0  0  0  0  0  0  0  0
    2.8544    1.8707    0.9319 H   0  0  0  0  0  0  0  0  0  0  0  0
    1.1298    0.3416    1.5782 H   0  0  0  0  0  0  0  0  0  0  0  0
  1  2  1  0
  2  3  1  0
  3  4  1  0
  4  5  1  0
  5  6  2  0
  6  7  1  0
  7  8  1  0
  8  9  2  0
  9 10  1  0
 10 11  2  0
 11 12  1  0
 12 13  2  0
 13 14  1  0
 14 15  2  0
 15 16  1  0
 16 17  2  0
 17 18  1  0
 18 19  2  0
  7 20  1  0
 20 21  1  0
 21 22  2  0
 21 23  1  0
 23 24  1  0
 24 25  1  0
 20 26  2  0
 26 27  1  0
 27 28  1  0
 28 29  2  0
 29 30  1  0
 30 31  2  0
 31 32  1  0
 32 33  2  0
 33 34  1  0
 34 35  2  0
 35 36  1  0
 36 37  2  0
 37 38  1  0
 38 39  2  0
 39 40  1  0
 40 41  2  0
 41 42  1  0
 31 43  1  0
 43 44  2  0
 26  5  1  0
 44 28  1  0
 13  8  1  0
 19 14  1  0
 37 32  1  0
 42 38  1  0
  1 45  1  0
  1 46  1  0
  1 47  1  0
  2 48  1  0
  2 49  1  0
  3 50  1  0
  3 51  1  0
  4 52  1  0
  4 53  1  0
  9 54  1  0
 10 55  1  0
 11 56  1  0
 12 57  1  0
 15 58  1  0
 16 59  1  0
 17 60  1  0
 18 61  1  0
 19 62  1  0
 24 63  1  0
 24 64  1  0
 25 65  1  0
 25 66  1  0
 25 67  1  0
 27 68  1  0
 27 69  1  0
 29 70  1  0
 30 71  1  0
 33 72  1  0
 34 73  1  0
 35 74  1  0
 36 75  1  0
 42 76  1  0
 43 77  1  0
 44 78  1  0
M  END
$$$$
