@<TRIPOS>MOLECULE
*****
 78 83 0 0 0
SMALL
GASTEIGER

@<TRIPOS>ATOM
      1 C           0.8077   -3.8295   -3.9937 C.3     1  UNL1       -0.0653
      2 C          -0.6082   -4.2588   -3.7977 C.3     1  UNL1       -0.0556
      3 C          -1.1179   -3.7539   -2.4643 C.3     1  UNL1       -0.0478
      4 C          -1.0331   -2.2362   -2.4960 C.3     1  UNL1       -0.0084
      5 C          -1.5448   -1.7031   -1.1958 C.ar    1  UNL1        0.0677
      6 N          -2.8171   -1.2062   -1.0251 N.ar    1  UNL1       -0.1703
      7 N          -3.0050   -0.8363    0.2177 N.ar    1  UNL1       -0.2246
      8 C          -4.2104   -0.2885    0.7219 C.ar    1  UNL1        0.0740
      9 C          -5.3180   -1.1203    0.9537 C.ar    1  UNL1       -0.0356
     10 C          -6.5058   -0.6344    1.4576 C.ar    1  UNL1       -0.0597
     11 C          -6.6099    0.7095    1.7433 C.ar    1  UNL1       -0.0611
     12 C          -5.5310    1.5214    1.5176 C.ar    1  UNL1       -0.0520
     13 C          -4.3146    1.0428    1.0045 C.ar    1  UNL1        0.0076
     14 C          -3.2154    1.9582    0.7755 C.ar    1  UNL1       -0.0159
     15 C          -2.8355    2.7743    1.8480 C.ar    1  UNL1       -0.0540
     16 C          -1.8127    3.6904    1.7367 C.ar    1  UNL1       -0.0612
     17 C          -1.1362    3.8107    0.5263 C.ar    1  UNL1       -0.0617
     18 C          -1.4892    3.0209   -0.5449 C.ar    1  UNL1       -0.0612
     19 C          -2.5213    2.1132   -0.3946 C.ar    1  UNL1       -0.0540
     20 C          -1.8655   -1.0699    0.9352 C.ar    1  UNL1        0.1549
     21 C          -1.7728   -0.7820    2.3534 C.2     1  UNL1        0.3581
     22 O          -0.7249   -1.0040    2.9958 O.2     1  UNL1       -0.2432
     23 O          -2.8274   -0.2492    3.0816 O.3     1  UNL1       -0.4604
     24 C          -2.6903    0.0189    4.4854 C.3     1  UNL1        0.0900
     25 C          -3.9475    0.5879    5.0535 C.3     1  UNL1       -0.0306
     26 C          -0.9610   -1.6096    0.0406 C.ar    1  UNL1        0.0123
     27 C           0.4125   -1.9932    0.3792 C.3     1  UNL1        0.0016
     28 C           1.4680   -1.0715   -0.0241 C.ar    1  UNL1       -0.0429
     29 C           2.2605   -1.2960   -1.1211 C.ar    1  UNL1       -0.0577
     30 C           3.2600   -0.4148   -1.5012 C.ar    1  UNL1       -0.0537
     31 C           3.4876    0.7468   -0.7592 C.ar    1  UNL1       -0.0172
     32 C           4.5224    1.7076   -1.1112 C.ar    1  UNL1       -0.0072
     33 C           4.1830    2.9798   -1.5972 C.ar    1  UNL1       -0.0534
     34 C           5.1389    3.9072   -1.9498 C.ar    1  UNL1       -0.0611
     35 C           6.4800    3.6011   -1.8311 C.ar    1  UNL1       -0.0611
     36 C           6.8061    2.3344   -1.3469 C.ar    1  UNL1       -0.0504
     37 C           5.8547    1.4028   -0.9925 C.ar    1  UNL1        0.0282
     38 C           6.3001    0.1181   -0.4872 C.ar    1  UNL1        0.1799
     39 N           5.5544   -0.9266   -0.0531 N.ar    1  UNL1       -0.1084
     40 N           6.3576   -1.8848    0.3204 N.ar    1  UNL1       -0.0229
     41 N           7.6173   -1.5305    0.1563 N.ar    1  UNL1       -0.0464
     42 N           7.5791   -0.3032   -0.3385 N.ar    1  UNL1       -0.2388
     43 C           2.6968    0.9804    0.3439 C.ar    1  UNL1       -0.0537
     44 C           1.7058    0.0756    0.6937 C.ar    1  UNL1       -0.0577
     45 H           1.4352   -3.9882   -3.0974 H       1  UNL1        0.0230
     46 H           0.8809   -2.7847   -4.3245 H       1  UNL1        0.0230
     47 H           1.2289   -4.4550   -4.8294 H       1  UNL1        0.0230
     48 H          -1.2683   -3.7701   -4.5728 H       1  UNL1        0.0263
     49 H          -0.7479   -5.3605   -3.9061 H       1  UNL1        0.0263
     50 H          -2.2104   -4.0583   -2.4107 H       1  UNL1        0.0269
     51 H          -0.6070   -4.2006   -1.6154 H       1  UNL1        0.0269
     52 H          -1.6793   -1.8335   -3.3205 H       1  UNL1        0.0329
     53 H           0.0001   -1.9354   -2.7155 H       1  UNL1        0.0329
     54 H          -5.1690   -2.1674    0.7072 H       1  UNL1        0.0639
     55 H          -7.3274   -1.3098    1.6186 H       1  UNL1        0.0618
     56 H          -7.5467    1.0896    2.1406 H       1  UNL1        0.0618
     57 H          -5.6194    2.5822    1.7448 H       1  UNL1        0.0624
     58 H          -3.3698    2.6779    2.8017 H       1  UNL1        0.0624
     59 H          -1.4980    4.3357    2.5535 H       1  UNL1        0.0618
     60 H          -0.3320    4.5320    0.4415 H       1  UNL1        0.0618
     61 H          -0.9466    3.1337   -1.4769 H       1  UNL1        0.0618
     62 H          -2.7937    1.5134   -1.2353 H       1  UNL1        0.0624
     63 H          -2.5246   -0.9745    4.9748 H       1  UNL1        0.0695
     64 H          -1.8058    0.6240    4.6951 H       1  UNL1        0.0695
     65 H          -4.8383    0.1611    4.5385 H       1  UNL1        0.0262
     66 H          -4.0466    0.2909    6.1200 H       1  UNL1        0.0262
     67 H          -3.9730    1.7101    4.9894 H       1  UNL1        0.0262
     68 H           0.6617   -2.9889   -0.0652 H       1  UNL1        0.0363
     69 H           0.4824   -2.1871    1.4882 H       1  UNL1        0.0363
     70 H           2.1550   -2.1668   -1.7437 H       1  UNL1        0.0621
     71 H           3.8681   -0.6052   -2.3589 H       1  UNL1        0.0624
     72 H           3.1346    3.2214   -1.6907 H       1  UNL1        0.0624
     73 H           4.8755    4.8906   -2.3254 H       1  UNL1        0.0618
     74 H           7.2397    4.3092   -2.1002 H       1  UNL1        0.0618
     75 H           7.8725    2.1147   -1.2614 H       1  UNL1        0.0625
     76 H           8.4081    0.2881   -0.5910 H       1  UNL1        0.1923
     77 H           2.8544    1.8707    0.9319 H       1  UNL1        0.0624
     78 H           1.1298    0.3416    1.5782 H       1  UNL1        0.0621
@<TRIPOS>BOND
     1     1     2    1
     2     2     3    1
     3     3     4    1
     4     4     5    1
     5     5     6   ar
     6     6     7   ar
     7     7     8    1
     8     8     9   ar
     9     9    10   ar
    10    10    11   ar
    11    11    12   ar
    12    12    13   ar
    13    13    14    1
    14    14    15   ar
    15    15    16   ar
    16    16    17   ar
    17    17    18   ar
    18    18    19   ar
    19     7    20   ar
    20    20    21    1
    21    21    22    2
    22    21    23    1
    23    23    24    1
    24    24    25    1
    25    20    26   ar
    26    26    27    1
    27    27    28    1
    28    28    29   ar
    29    29    30   ar
    30    30    31   ar
    31    31    32    1
    32    32    33   ar
    33    33    34   ar
    34    34    35   ar
    35    35    36   ar
    36    36    37   ar
    37    37    38    1
    38    38    39   ar
    39    39    40   ar
    40    40    41   ar
    41    41    42   ar
    42    31    43   ar
    43    43    44   ar
    44    26     5   ar
    45    44    28   ar
    46    13     8   ar
    47    19    14   ar
    48    37    32   ar
    49    42    38   ar
    50     1    45    1
    51     1    46    1
    52     1    47    1
    53     2    48    1
    54     2    49    1
    55     3    50    1
    56     3    51    1
    57     4    52    1
    58     4    53    1
    59     9    54    1
    60    10    55    1
    61    11    56    1
    62    12    57    1
    63    15    58    1
    64    16    59    1
    65    17    60    1
    66    18    61    1
    67    19    62    1
    68    24    63    1
    69    24    64    1
    70    25    65    1
    71    25    66    1
    72    25    67    1
    73    27    68    1
    74    27    69    1
    75    29    70    1
    76    30    71    1
    77    33    72    1
    78    34    73    1
    79    35    74    1
    80    36    75    1
    81    42    76    1
    82    43    77    1
    83    44    78    1
