
     RDKit          3D

 90 95  0  0  0  0  0  0  0  0999 V2000
    7.0513   -1.5925    0.9990 C   0  0  0  0  0  0  0  0  0  0  0  0
    6.0680   -0.5014    1.3488 C   0  0  0  0  0  0  0  0  0  0  0  0
    5.1197   -0.0222    0.5663 C   0  0  0  0  0  0  0  0  0  0  0  0
    4.8774   -0.4946   -0.7979 C   0  0  0  0  0  0  0  0  0  0  0  0
    5.5913   -1.4005   -1.2799 O   0  0  0  0  0  0  0  0  0  0  0  0
    3.8580    0.0324   -1.6141 N   0  0  0  0  0  0  0  0  0  0  0  0
    3.5045   -0.3175   -2.9428 C   0  0  2  0  0  0  0  0  0  0  0  0
    3.7342    0.9348   -3.8000 C   0  0  0  0  0  0  0  0  0  0  0  0
    2.0632   -0.6412   -3.0987 C   0  0  0  0  0  0  0  0  0  0  0  0
    1.6312   -0.8654   -4.2460 O   0  0  0  0  0  0  0  0  0  0  0  0
    1.1672   -0.7064   -2.0047 N   0  0  0  0  0  0  0  0  0  0  0  0
   -0.2442   -1.0078   -2.1133 C   0  0  1  0  0  0  0  0  0  0  0  0
   -0.5569   -2.4374   -1.8465 C   0  0  0  0  0  0  0  0  0  0  0  0
   -0.1911   -2.9669   -0.5385 C   0  0  0  0  0  0  0  0  0  0  0  0
    0.2194   -2.3855    0.6275 C   0  0  0  0  0  0  0  0  0  0  0  0
    0.4245   -3.3294    1.5580 N   0  0  0  0  0  0  0  0  0  0  0  0
    0.1533   -4.5312    1.0187 C   0  0  0  0  0  0  0  0  0  0  0  0
    0.2005   -5.8236    1.5423 C   0  0  0  0  0  0  0  0  0  0  0  0
   -0.1283   -6.9317    0.7958 C   0  0  0  0  0  0  0  0  0  0  0  0
   -0.5149   -6.7387   -0.5122 C   0  0  0  0  0  0  0  0  0  0  0  0
   -0.5609   -5.4445   -1.0313 C   0  0  0  0  0  0  0  0  0  0  0  0
   -0.2308   -4.3391   -0.2789 C   0  0  0  0  0  0  0  0  0  0  0  0
   -1.0463   -0.0322   -1.3994 C   0  0  0  0  0  0  0  0  0  0  0  0
   -0.4194    0.8719   -0.7424 O   0  0  0  0  0  0  0  0  0  0  0  0
   -2.4689    0.0267   -1.3574 N   0  0  0  0  0  0  0  0  0  0  0  0
   -3.1840    1.0645   -0.6160 C   0  0  1  0  0  0  0  0  0  0  0  0
   -3.7558    2.0496   -1.6194 C   0  0  0  0  0  0  0  0  0  0  0  0
   -4.5076    3.1897   -1.0521 C   0  0  0  0  0  0  0  0  0  0  0  0
   -4.9704    4.0358   -2.2581 C   0  0  0  0  0  0  0  0  0  0  0  0
   -5.5904    5.3254   -1.8469 C   0  0  0  0  0  0  0  0  0  0  0  0
   -5.8083    5.3629   -0.3724 C   0  0  0  0  0  0  0  0  0  0  0  0
   -4.5040    5.2235    0.3961 C   0  0  0  0  0  0  0  0  0  0  0  0
   -3.6407    4.1279   -0.2343 C   0  0  0  0  0  0  0  0  0  0  0  0
   -4.1019    0.6021    0.4013 C   0  0  0  0  0  0  0  0  0  0  0  0
   -4.7299    1.4791    1.0405 O   0  0  0  0  0  0  0  0  0  0  0  0
   -4.4350   -0.7765    0.8279 C   0  0  1  0  0  0  0  0  0  0  0  0
   -3.7613   -1.9734    0.2273 C   0  0  0  0  0  0  0  0  0  0  0  0
   -4.8025   -0.9340    2.3118 C   0  0  0  0  0  0  0  0  0  0  0  0
   -5.7319   -1.0265    1.2822 O   0  0  0  0  0  0  0  0  0  0  0  0
    4.3547    1.0489    1.2759 C   0  0  0  0  0  0  0  0  0  0  0  0
    5.0234    1.1287    2.5997 C   0  0  0  0  0  0  0  0  0  0  0  0
    4.8330    1.9045    3.7278 C   0  0  0  0  0  0  0  0  0  0  0  0
    5.6101    1.7752    4.8574 C   0  0  0  0  0  0  0  0  0  0  0  0
    6.6327    0.8355    4.8915 C   0  0  0  0  0  0  0  0  0  0  0  0
    6.8246    0.0581    3.7621 C   0  0  0  0  0  0  0  0  0  0  0  0
    6.0300    0.2025    2.6291 C   0  0  0  0  0  0  0  0  0  0  0  0
    6.4876   -2.4918    0.7416 H   0  0  0  0  0  0  0  0  0  0  0  0
    7.5732   -1.2326    0.0820 H   0  0  0  0  0  0  0  0  0  0  0  0
    7.7326   -1.7425    1.8399 H   0  0  0  0  0  0  0  0  0  0  0  0
    3.2836    0.8018   -1.1474 H   0  0  0  0  0  0  0  0  0  0  0  0
    4.0850   -1.1113   -3.4061 H   0  0  0  0  0  0  0  0  0  0  0  0
    3.0428    1.7034   -3.3495 H   0  0  0  0  0  0  0  0  0  0  0  0
    4.7762    1.2848   -3.6703 H   0  0  0  0  0  0  0  0  0  0  0  0
    3.4762    0.7745   -4.8463 H   0  0  0  0  0  0  0  0  0  0  0  0
    1.5632   -0.5201   -1.0643 H   0  0  0  0  0  0  0  0  0  0  0  0
   -0.4471   -0.8817   -3.2361 H   0  0  0  0  0  0  0  0  0  0  0  0
   -0.1776   -3.1031   -2.6788 H   0  0  0  0  0  0  0  0  0  0  0  0
   -1.6789   -2.5432   -1.9506 H   0  0  0  0  0  0  0  0  0  0  0  0
    0.3530   -1.3397    0.7839 H   0  0  0  0  0  0  0  0  0  0  0  0
    0.7414   -3.2092    2.5490 H   0  0  0  0  0  0  0  0  0  0  0  0
    0.5027   -5.9671    2.5582 H   0  0  0  0  0  0  0  0  0  0  0  0
   -0.0890   -7.9406    1.2118 H   0  0  0  0  0  0  0  0  0  0  0  0
   -0.7835   -7.5683   -1.1451 H   0  0  0  0  0  0  0  0  0  0  0  0
   -0.8645   -5.2955   -2.0569 H   0  0  0  0  0  0  0  0  0  0  0  0
   -2.9933   -0.6941   -1.8899 H   0  0  0  0  0  0  0  0  0  0  0  0
   -2.3699    1.6624   -0.0951 H   0  0  0  0  0  0  0  0  0  0  0  0
   -4.4204    1.4774   -2.2978 H   0  0  0  0  0  0  0  0  0  0  0  0
   -2.9551    2.4658   -2.2729 H   0  0  0  0  0  0  0  0  0  0  0  0
   -5.4163    2.9617   -0.4898 H   0  0  0  0  0  0  0  0  0  0  0  0
   -5.5954    3.4015   -2.9148 H   0  0  0  0  0  0  0  0  0  0  0  0
   -4.0287    4.1963   -2.8589 H   0  0  0  0  0  0  0  0  0  0  0  0
   -6.5631    5.4151   -2.4000 H   0  0  0  0  0  0  0  0  0  0  0  0
   -4.8916    6.1440   -2.1428 H   0  0  0  0  0  0  0  0  0  0  0  0
   -6.5091    4.5934   -0.0629 H   0  0  0  0  0  0  0  0  0  0  0  0
   -6.1955    6.3787   -0.0832 H   0  0  0  0  0  0  0  0  0  0  0  0
   -4.7823    4.8827    1.4099 H   0  0  0  0  0  0  0  0  0  0  0  0
   -3.9571    6.1734    0.4926 H   0  0  0  0  0  0  0  0  0  0  0  0
   -3.1187    3.6136    0.5833 H   0  0  0  0  0  0  0  0  0  0  0  0
   -2.9026    4.6610   -0.8823 H   0  0  0  0  0  0  0  0  0  0  0  0
   -3.8626   -2.8460    0.9468 H   0  0  0  0  0  0  0  0  0  0  0  0
   -2.6863   -1.8530    0.1076 H   0  0  0  0  0  0  0  0  0  0  0  0
   -4.2905   -2.3080   -0.6815 H   0  0  0  0  0  0  0  0  0  0  0  0
   -4.4692   -1.8668    2.8120 H   0  0  0  0  0  0  0  0  0  0  0  0
   -4.8070    0.0213    2.9136 H   0  0  0  0  0  0  0  0  0  0  0  0
    4.4603    2.0247    0.7863 H   0  0  0  0  0  0  0  0  0  0  0  0
    3.3046    0.7439    1.4513 H   0  0  0  0  0  0  0  0  0  0  0  0
    4.0513    2.6400    3.7346 H   0  0  0  0  0  0  0  0  0  0  0  0
    5.4507    2.3993    5.7496 H   0  0  0  0  0  0  0  0  0  0  0  0
    7.2548    0.7138    5.7603 H   0  0  0  0  0  0  0  0  0  0  0  0
    7.6294   -0.6793    3.7943 H   0  0  0  0  0  0  0  0  0  0  0  0
  1  2  1  0
  2  3  2  0
  3  4  1  0
  4  5  2  0
  4  6  1  0
  6  7  1  0
  7  8  1  0
  7  9  1  0
  9 10  2  0
  9 11  1  0
 11 12  1  0
 12 13  1  0
 13 14  1  0
 14 15  2  0
 15 16  1  0
 16 17  1  0
 17 18  2  0
 18 19  1  0
 19 20  2  0
 20 21  1  0
 21 22  2  0
 12 23  1  0
 23 24  2  0
 23 25  1  0
 25 26  1  0
 26 27  1  0
 27 28  1  0
 28 29  1  0
 29 30  1  0
 30 31  1  0
 31 32  1  0
 32 33  1  0
 26 34  1  0
 34 35  2  0
 34 36  1  0
 36 37  1  6
 36 38  1  0
 38 39  1  0
  3 40  1  0
 40 41  1  0
 41 42  2  0
 42 43  1  0
 43 44  2  0
 44 45  1  0
 45 46  2  0
 46  2  1  0
 22 14  1  0
 33 28  1  0
 39 36  1  0
 46 41  1  0
 22 17  1  0
  1 47  1  0
  1 48  1  0
  1 49  1  0
  6 50  1  0
  7 51  1  6
  8 52  1  0
  8 53  1  0
  8 54  1  0
 11 55  1  0
 12 56  1  6
 13 57  1  0
 13 58  1  0
 15 59  1  0
 16 60  1  0
 18 61  1  0
 19 62  1  0
 20 63  1  0
 21 64  1  0
 25 65  1  0
 26 66  1  1
 27 67  1  0
 27 68  1  0
 28 69  1  0
 29 70  1  0
 29 71  1  0
 30 72  1  0
 30 73  1  0
 31 74  1  0
 31 75  1  0
 32 76  1  0
 32 77  1  0
 33 78  1  0
 33 79  1  0
 37 80  1  0
 37 81  1  0
 37 82  1  0
 38 83  1  0
 38 84  1  0
 40 85  1  0
 40 86  1  0
 42 87  1  0
 43 88  1  0
 44 89  1  0
 45 90  1  0
M  END
$$$$
