@<TRIPOS>MOLECULE
*****
 90 95 0 0 0
SMALL
GASTEIGER

@<TRIPOS>ATOM
      1 C           7.0513   -1.5925    0.9990 C.3     1  UNL1       -0.0387
      2 C           6.0680   -0.5014    1.3488 C.2     1  UNL1       -0.0346
      3 C           5.1197   -0.0222    0.5663 C.2     1  UNL1        0.0221
      4 C           4.8774   -0.4946   -0.7979 C.2     1  UNL1        0.2412
      5 O           5.5913   -1.4005   -1.2799 O.2     1  UNL1       -0.2705
      6 N           3.8580    0.0324   -1.6141 N.am    1  UNL1       -0.3005
      7 C           3.5045   -0.3175   -2.9428 C.3     1  UNL1        0.0969
      8 C           3.7342    0.9348   -3.8000 C.3     1  UNL1       -0.0381
      9 C           2.0632   -0.6412   -3.0987 C.2     1  UNL1        0.2337
     10 O           1.6312   -0.8654   -4.2460 O.2     1  UNL1       -0.2738
     11 N           1.1672   -0.7064   -2.0047 N.am    1  UNL1       -0.3022
     12 C          -0.2442   -1.0078   -2.1133 C.3     1  UNL1        0.1034
     13 C          -0.5569   -2.4374   -1.8465 C.3     1  UNL1        0.0013
     14 C          -0.1911   -2.9669   -0.5385 C.ar    1  UNL1       -0.0201
     15 C           0.2194   -2.3855    0.6275 C.ar    1  UNL1        0.0060
     16 N           0.4245   -3.3294    1.5580 N.ar    1  UNL1       -0.3604
     17 C           0.1533   -4.5312    1.0187 C.ar    1  UNL1        0.0467
     18 C           0.2005   -5.8236    1.5423 C.ar    1  UNL1       -0.0378
     19 C          -0.1283   -6.9317    0.7958 C.ar    1  UNL1       -0.0598
     20 C          -0.5149   -6.7387   -0.5122 C.ar    1  UNL1       -0.0611
     21 C          -0.5609   -5.4445   -1.0313 C.ar    1  UNL1       -0.0523
     22 C          -0.2308   -4.3391   -0.2789 C.ar    1  UNL1        0.0029
     23 C          -1.0463   -0.0322   -1.3994 C.2     1  UNL1        0.2342
     24 O          -0.4194    0.8719   -0.7424 O.2     1  UNL1       -0.2738
     25 N          -2.4689    0.0267   -1.3574 N.am    1  UNL1       -0.3040
     26 C          -3.1840    1.0645   -0.6160 C.3     1  UNL1        0.0847
     27 C          -3.7558    2.0496   -1.6194 C.3     1  UNL1       -0.0247
     28 C          -4.5076    3.1897   -1.0521 C.3     1  UNL1       -0.0390
     29 C          -4.9704    4.0358   -2.2581 C.3     1  UNL1       -0.0501
     30 C          -5.5904    5.3254   -1.8469 C.3     1  UNL1       -0.0528
     31 C          -5.8083    5.3629   -0.3724 C.3     1  UNL1       -0.0530
     32 C          -4.5040    5.2235    0.3961 C.3     1  UNL1       -0.0528
     33 C          -3.6407    4.1279   -0.2343 C.3     1  UNL1       -0.0501
     34 C          -4.1019    0.6021    0.4013 C.2     1  UNL1        0.1868
     35 O          -4.7299    1.4791    1.0405 O.2     1  UNL1       -0.2923
     36 C          -4.4350   -0.7765    0.8279 C.3     1  UNL1        0.1492
     37 C          -3.7613   -1.9734    0.2273 C.3     1  UNL1       -0.0266
     38 C          -4.8025   -0.9340    2.3118 C.3     1  UNL1        0.0847
     39 O          -5.7319   -1.0265    1.2822 O.3     1  UNL1       -0.3605
     40 C           4.3547    1.0489    1.2759 C.3     1  UNL1        0.0033
     41 C           5.0234    1.1287    2.5997 C.ar    1  UNL1       -0.0355
     42 C           4.8330    1.9045    3.7278 C.ar    1  UNL1       -0.0577
     43 C           5.6101    1.7752    4.8574 C.ar    1  UNL1       -0.0615
     44 C           6.6327    0.8355    4.8915 C.ar    1  UNL1       -0.0612
     45 C           6.8246    0.0581    3.7621 C.ar    1  UNL1       -0.0541
     46 C           6.0300    0.2025    2.6291 C.ar    1  UNL1       -0.0182
     47 H           6.4876   -2.4918    0.7416 H       1  UNL1        0.0278
     48 H           7.5732   -1.2326    0.0820 H       1  UNL1        0.0278
     49 H           7.7326   -1.7425    1.8399 H       1  UNL1        0.0278
     50 H           3.2836    0.8018   -1.1474 H       1  UNL1        0.1498
     51 H           4.0850   -1.1113   -3.4061 H       1  UNL1        0.0592
     52 H           3.0428    1.7034   -3.3495 H       1  UNL1        0.0252
     53 H           4.7762    1.2848   -3.6703 H       1  UNL1        0.0252
     54 H           3.4762    0.7745   -4.8463 H       1  UNL1        0.0252
     55 H           1.5632   -0.5201   -1.0643 H       1  UNL1        0.1495
     56 H          -0.4471   -0.8817   -3.2361 H       1  UNL1        0.0598
     57 H          -0.1776   -3.1031   -2.6788 H       1  UNL1        0.0337
     58 H          -1.6789   -2.5432   -1.9506 H       1  UNL1        0.0337
     59 H           0.3530   -1.3397    0.7839 H       1  UNL1        0.0810
     60 H           0.7414   -3.2092    2.5490 H       1  UNL1        0.1653
     61 H           0.5027   -5.9671    2.5582 H       1  UNL1        0.0638
     62 H          -0.0890   -7.9406    1.2118 H       1  UNL1        0.0618
     63 H          -0.7835   -7.5683   -1.1451 H       1  UNL1        0.0618
     64 H          -0.8645   -5.2955   -2.0569 H       1  UNL1        0.0624
     65 H          -2.9933   -0.6941   -1.8899 H       1  UNL1        0.1494
     66 H          -2.3699    1.6624   -0.0951 H       1  UNL1        0.0578
     67 H          -4.4204    1.4774   -2.2978 H       1  UNL1        0.0290
     68 H          -2.9551    2.4658   -2.2729 H       1  UNL1        0.0290
     69 H          -5.4163    2.9617   -0.4898 H       1  UNL1        0.0301
     70 H          -5.5954    3.4015   -2.9148 H       1  UNL1        0.0268
     71 H          -4.0287    4.1963   -2.8589 H       1  UNL1        0.0268
     72 H          -6.5631    5.4151   -2.4000 H       1  UNL1        0.0265
     73 H          -4.8916    6.1440   -2.1428 H       1  UNL1        0.0265
     74 H          -6.5091    4.5934   -0.0629 H       1  UNL1        0.0265
     75 H          -6.1955    6.3787   -0.0832 H       1  UNL1        0.0265
     76 H          -4.7823    4.8827    1.4099 H       1  UNL1        0.0265
     77 H          -3.9571    6.1734    0.4926 H       1  UNL1        0.0265
     78 H          -3.1187    3.6136    0.5833 H       1  UNL1        0.0268
     79 H          -2.9026    4.6610   -0.8823 H       1  UNL1        0.0268
     80 H          -3.8626   -2.8460    0.9468 H       1  UNL1        0.0262
     81 H          -2.6863   -1.8530    0.1076 H       1  UNL1        0.0262
     82 H          -4.2905   -2.3080   -0.6815 H       1  UNL1        0.0262
     83 H          -4.4692   -1.8668    2.8120 H       1  UNL1        0.0593
     84 H          -4.8070    0.0213    2.9136 H       1  UNL1        0.0593
     85 H           4.4603    2.0247    0.7863 H       1  UNL1        0.0363
     86 H           3.3046    0.7439    1.4513 H       1  UNL1        0.0363
     87 H           4.0513    2.6400    3.7346 H       1  UNL1        0.0621
     88 H           5.4507    2.3993    5.7496 H       1  UNL1        0.0618
     89 H           7.2548    0.7138    5.7603 H       1  UNL1        0.0618
     90 H           7.6294   -0.6793    3.7943 H       1  UNL1        0.0624
@<TRIPOS>BOND
     1     1     2    1
     2     2     3    2
     3     3     4    1
     4     4     5    2
     5     4     6   am
     6     6     7    1
     7     7     8    1
     8     7     9    1
     9     9    10    2
    10     9    11   am
    11    11    12    1
    12    12    13    1
    13    13    14    1
    14    14    15   ar
    15    15    16   ar
    16    16    17   ar
    17    17    18   ar
    18    18    19   ar
    19    19    20   ar
    20    20    21   ar
    21    21    22   ar
    22    12    23    1
    23    23    24    2
    24    23    25   am
    25    25    26    1
    26    26    27    1
    27    27    28    1
    28    28    29    1
    29    29    30    1
    30    30    31    1
    31    31    32    1
    32    32    33    1
    33    26    34    1
    34    34    35    2
    35    34    36    1
    36    36    37    1
    37    36    38    1
    38    38    39    1
    39     3    40    1
    40    40    41    1
    41    41    42   ar
    42    42    43   ar
    43    43    44   ar
    44    44    45   ar
    45    45    46   ar
    46    46     2    1
    47    22    14   ar
    48    33    28    1
    49    39    36    1
    50    46    41   ar
    51    22    17   ar
    52     1    47    1
    53     1    48    1
    54     1    49    1
    55     6    50    1
    56     7    51    1
    57     8    52    1
    58     8    53    1
    59     8    54    1
    60    11    55    1
    61    12    56    1
    62    13    57    1
    63    13    58    1
    64    15    59    1
    65    16    60    1
    66    18    61    1
    67    19    62    1
    68    20    63    1
    69    21    64    1
    70    25    65    1
    71    26    66    1
    72    27    67    1
    73    27    68    1
    74    28    69    1
    75    29    70    1
    76    29    71    1
    77    30    72    1
    78    30    73    1
    79    31    74    1
    80    31    75    1
    81    32    76    1
    82    32    77    1
    83    33    78    1
    84    33    79    1
    85    37    80    1
    86    37    81    1
    87    37    82    1
    88    38    83    1
    89    38    84    1
    90    40    85    1
    91    40    86    1
    92    42    87    1
    93    43    88    1
    94    44    89    1
    95    45    90    1
