
     RDKit          3D

 43 44  0  0  0  0  0  0  0  0999 V2000
   -1.6844   -0.8112    3.3930 C   0  0  0  0  0  0  0  0  0  0  0  0
   -2.1964   -0.1729    2.2604 O   0  0  0  0  0  0  0  0  0  0  0  0
   -1.5251   -0.1433    1.0493 C   0  0  0  0  0  0  0  0  0  0  0  0
   -0.2916   -0.7859    0.9915 C   0  0  0  0  0  0  0  0  0  0  0  0
    0.4498   -0.8095   -0.1713 C   0  0  0  0  0  0  0  0  0  0  0  0
    1.7458   -1.4825   -0.2389 C   0  0  0  0  0  0  0  0  0  0  0  0
    2.8871   -0.6185    0.0991 C   0  0  0  0  0  0  0  0  0  0  0  0
    2.7955    0.7044    0.4518 C   0  0  0  0  0  0  0  0  0  0  0  0
    3.9379    1.3798    0.7384 N   0  0  0  0  0  0  0  0  0  0  0  0
    5.1478    0.8353    0.6982 C   0  0  0  0  0  0  0  0  0  0  0  0
    6.3504    1.5377    0.9976 N   0  0  0  0  0  0  0  0  0  0  0  0
    5.2416   -0.4701    0.3506 N   0  0  0  0  0  0  0  0  0  0  0  0
    4.1497   -1.1794    0.0592 C   0  0  0  0  0  0  0  0  0  0  0  0
    4.3097   -2.5450   -0.2989 N   0  0  0  0  0  0  0  0  0  0  0  0
   -0.0888   -0.1627   -1.2849 C   0  0  0  0  0  0  0  0  0  0  0  0
   -1.3080    0.4797   -1.2503 C   0  0  0  0  0  0  0  0  0  0  0  0
   -1.7790    1.0995   -2.3924 O   0  0  0  0  0  0  0  0  0  0  0  0
   -1.0003    1.0589   -3.5645 C   0  0  0  0  0  0  0  0  0  0  0  0
   -2.0299    0.4844   -0.0615 C   0  0  0  0  0  0  0  0  0  0  0  0
   -3.2413    1.1208   -0.0209 O   0  0  0  0  0  0  0  0  0  0  0  0
   -4.4722    0.5122   -0.3122 C   0  0  0  0  0  0  0  0  0  0  0  0
   -5.5663    1.5588   -0.1504 C   0  0  0  0  0  0  0  0  0  0  0  0
   -6.8217    1.0192   -0.4260 O   0  0  0  0  0  0  0  0  0  0  0  0
   -1.6579   -1.9109    3.2514 H   0  0  0  0  0  0  0  0  0  0  0  0
   -0.6338   -0.4287    3.5345 H   0  0  0  0  0  0  0  0  0  0  0  0
   -2.2178   -0.5167    4.3187 H   0  0  0  0  0  0  0  0  0  0  0  0
    0.1278   -1.2867    1.8492 H   0  0  0  0  0  0  0  0  0  0  0  0
    1.8016   -2.4055    0.3876 H   0  0  0  0  0  0  0  0  0  0  0  0
    1.9200   -1.8419   -1.2948 H   0  0  0  0  0  0  0  0  0  0  0  0
    1.8189    1.1570    0.4877 H   0  0  0  0  0  0  0  0  0  0  0  0
    6.8704    2.0657    0.2694 H   0  0  0  0  0  0  0  0  0  0  0  0
    6.7415    1.5393    1.9618 H   0  0  0  0  0  0  0  0  0  0  0  0
    4.4469   -3.3164    0.3954 H   0  0  0  0  0  0  0  0  0  0  0  0
    4.2953   -2.8379   -1.3072 H   0  0  0  0  0  0  0  0  0  0  0  0
    0.4518   -0.1548   -2.2103 H   0  0  0  0  0  0  0  0  0  0  0  0
   -0.0003    1.4888   -3.3291 H   0  0  0  0  0  0  0  0  0  0  0  0
   -0.8196   -0.0219   -3.7989 H   0  0  0  0  0  0  0  0  0  0  0  0
   -1.4810    1.5840   -4.4128 H   0  0  0  0  0  0  0  0  0  0  0  0
   -4.6846   -0.2917    0.4262 H   0  0  0  0  0  0  0  0  0  0  0  0
   -4.4606    0.1305   -1.3564 H   0  0  0  0  0  0  0  0  0  0  0  0
   -5.3273    2.3798   -0.8750 H   0  0  0  0  0  0  0  0  0  0  0  0
   -5.5070    1.9751    0.8579 H   0  0  0  0  0  0  0  0  0  0  0  0
   -6.6946    0.0833   -0.6879 H   0  0  0  0  0  0  0  0  0  0  0  0
  1  2  1  0
  2  3  1  0
  3  4  2  0
  4  5  1  0
  5  6  1  0
  6  7  1  0
  7  8  2  0
  8  9  1  0
  9 10  2  0
 10 11  1  0
 10 12  1  0
 12 13  2  0
 13 14  1  0
  5 15  2  0
 15 16  1  0
 16 17  1  0
 17 18  1  0
 16 19  2  0
 19 20  1  0
 20 21  1  0
 21 22  1  0
 22 23  1  0
 19  3  1  0
 13  7  1  0
  1 24  1  0
  1 25  1  0
  1 26  1  0
  4 27  1  0
  6 28  1  0
  6 29  1  0
  8 30  1  0
 11 31  1  0
 11 32  1  0
 14 33  1  0
 14 34  1  0
 15 35  1  0
 18 36  1  0
 18 37  1  0
 18 38  1  0
 21 39  1  0
 21 40  1  0
 22 41  1  0
 22 42  1  0
 23 43  1  0
M  END
$$$$
