@<TRIPOS>MOLECULE
*****
 43 44 0 0 0
SMALL
GASTEIGER

@<TRIPOS>ATOM
      1 C          -1.6844   -0.8112    3.3930 C.3     1  UNL1        0.0790
      2 O          -2.1964   -0.1729    2.2604 O.3     1  UNL1       -0.4913
      3 C          -1.5251   -0.1433    1.0493 C.ar    1  UNL1        0.1654
      4 C          -0.2916   -0.7859    0.9915 C.ar    1  UNL1       -0.0126
      5 C           0.4498   -0.8095   -0.1713 C.ar    1  UNL1       -0.0358
      6 C           1.7458   -1.4825   -0.2389 C.3     1  UNL1        0.0025
      7 C           2.8871   -0.6185    0.0991 C.ar    1  UNL1        0.0146
      8 C           2.7955    0.7044    0.4518 C.ar    1  UNL1        0.0379
      9 N           3.9379    1.3798    0.7384 N.ar    1  UNL1       -0.2227
     10 C           5.1478    0.8353    0.6982 C.ar    1  UNL1        0.2142
     11 N           6.3504    1.5377    0.9976 N.pl3   1  UNL1       -0.3274
     12 N           5.2416   -0.4701    0.3506 N.ar    1  UNL1       -0.1999
     13 C           4.1497   -1.1794    0.0592 C.ar    1  UNL1        0.1247
     14 N           4.3097   -2.5450   -0.2989 N.pl3   1  UNL1       -0.3428
     15 C          -0.0888   -0.1627   -1.2849 C.ar    1  UNL1       -0.0126
     16 C          -1.3080    0.4797   -1.2503 C.ar    1  UNL1        0.1654
     17 O          -1.7790    1.0995   -2.3924 O.3     1  UNL1       -0.4913
     18 C          -1.0003    1.0589   -3.5645 C.3     1  UNL1        0.0790
     19 C          -2.0299    0.4844   -0.0615 C.ar    1  UNL1        0.2038
     20 O          -3.2413    1.1208   -0.0209 O.3     1  UNL1       -0.4829
     21 C          -4.4722    0.5122   -0.3122 C.3     1  UNL1        0.1129
     22 C          -5.5663    1.5588   -0.1504 C.3     1  UNL1        0.0783
     23 O          -6.8217    1.0192   -0.4260 O.3     1  UNL1       -0.3917
     24 H          -1.6579   -1.9109    3.2514 H       1  UNL1        0.0660
     25 H          -0.6338   -0.4287    3.5345 H       1  UNL1        0.0660
     26 H          -2.2178   -0.5167    4.3187 H       1  UNL1        0.0660
     27 H           0.1278   -1.2867    1.8492 H       1  UNL1        0.0658
     28 H           1.8016   -2.4055    0.3876 H       1  UNL1        0.0363
     29 H           1.9200   -1.8419   -1.2948 H       1  UNL1        0.0363
     30 H           1.8189    1.1570    0.4877 H       1  UNL1        0.0834
     31 H           6.8704    2.0657    0.2694 H       1  UNL1        0.1452
     32 H           6.7415    1.5393    1.9618 H       1  UNL1        0.1452
     33 H           4.4469   -3.3164    0.3954 H       1  UNL1        0.1437
     34 H           4.2953   -2.8379   -1.3072 H       1  UNL1        0.1437
     35 H           0.4518   -0.1548   -2.2103 H       1  UNL1        0.0658
     36 H          -0.0003    1.4888   -3.3291 H       1  UNL1        0.0660
     37 H          -0.8196   -0.0219   -3.7989 H       1  UNL1        0.0660
     38 H          -1.4810    1.5840   -4.4128 H       1  UNL1        0.0660
     39 H          -4.6846   -0.2917    0.4262 H       1  UNL1        0.0720
     40 H          -4.4606    0.1305   -1.3564 H       1  UNL1        0.0720
     41 H          -5.3273    2.3798   -0.8750 H       1  UNL1        0.0591
     42 H          -5.5070    1.9751    0.8579 H       1  UNL1        0.0591
     43 H          -6.6946    0.0833   -0.6879 H       1  UNL1        0.2095
@<TRIPOS>BOND
     1     1     2    1
     2     2     3    1
     3     3     4   ar
     4     4     5   ar
     5     5     6    1
     6     6     7    1
     7     7     8   ar
     8     8     9   ar
     9     9    10   ar
    10    10    11    1
    11    10    12   ar
    12    12    13   ar
    13    13    14    1
    14     5    15   ar
    15    15    16   ar
    16    16    17    1
    17    17    18    1
    18    16    19   ar
    19    19    20    1
    20    20    21    1
    21    21    22    1
    22    22    23    1
    23    19     3   ar
    24    13     7   ar
    25     1    24    1
    26     1    25    1
    27     1    26    1
    28     4    27    1
    29     6    28    1
    30     6    29    1
    31     8    30    1
    32    11    31    1
    33    11    32    1
    34    14    33    1
    35    14    34    1
    36    15    35    1
    37    18    36    1
    38    18    37    1
    39    18    38    1
    40    21    39    1
    41    21    40    1
    42    22    41    1
    43    22    42    1
    44    23    43    1
