@<TRIPOS>MOLECULE
*****
 42 46 0 0 0
SMALL
GASTEIGER

@<TRIPOS>ATOM
      1 C           1.9910   -0.2189   -0.4056 C.3     1  UNL1        0.1360
      2 O           2.3321    1.1657   -0.4979 O.3     1  UNL1       -0.4814
      3 C           1.3199    1.9368    0.0495 C.ar    1  UNL1        0.1663
      4 C           1.0954    3.1969    0.6017 C.ar    1  UNL1        0.1588
      5 O           2.2322    4.0249    0.6555 O.3     1  UNL1       -0.5033
      6 C          -0.1575    3.5898    1.0585 C.ar    1  UNL1       -0.0162
      7 C          -1.2385    2.7062    0.9694 C.ar    1  UNL1       -0.0546
      8 C          -1.1020    1.4563    0.4425 C.ar    1  UNL1       -0.0383
      9 C           0.1711    1.1772    0.0254 C.ar    1  UNL1        0.0113
     10 C           0.5013   -0.1417   -0.5793 C.3     1  UNL1        0.0443
     11 C           0.1525   -0.1528   -2.0224 C.3     1  UNL1       -0.0266
     12 C          -1.2178   -0.5228   -2.4096 C.3     1  UNL1       -0.0002
     13 N          -2.0285   -1.2172   -1.4619 N.3     1  UNL1       -0.3018
     14 C          -2.1988   -2.6179   -1.6965 C.3     1  UNL1       -0.0125
     15 C          -1.7383   -0.8985   -0.0859 C.3     1  UNL1        0.0178
     16 C          -2.1732    0.4636    0.3158 C.3     1  UNL1       -0.0113
     17 C          -0.2806   -1.2064    0.1127 C.3     1  UNL1       -0.0117
     18 C           0.1406   -1.3260    1.5543 C.3     1  UNL1       -0.0454
     19 C           1.5872   -1.7721    1.5287 C.3     1  UNL1       -0.0230
     20 C           2.4270   -0.6641    0.9549 C.3     1  UNL1        0.0928
     21 O           2.4923    0.3813    1.8779 O.3     1  UNL1       -0.3881
     22 H           2.4628   -0.7407   -1.2436 H       1  UNL1        0.0768
     23 H           2.6537    4.0479    1.5941 H       1  UNL1        0.2923
     24 H          -0.2602    4.5996    1.4823 H       1  UNL1        0.0655
     25 H          -2.2246    3.0248    1.3328 H       1  UNL1        0.0622
     26 H           0.9039   -0.8184   -2.5375 H       1  UNL1        0.0287
     27 H           0.3694    0.8588   -2.4774 H       1  UNL1        0.0287
     28 H          -1.8136    0.3736   -2.7525 H       1  UNL1        0.0427
     29 H          -1.1799   -1.1684   -3.3138 H       1  UNL1        0.0427
     30 H          -1.8682   -3.1670   -0.7691 H       1  UNL1        0.0391
     31 H          -1.6274   -3.0221   -2.5321 H       1  UNL1        0.0391
     32 H          -3.3053   -2.7831   -1.8082 H       1  UNL1        0.0391
     33 H          -2.2938   -1.6345    0.5392 H       1  UNL1        0.0469
     34 H          -2.7862    0.4679    1.2583 H       1  UNL1        0.0329
     35 H          -2.8579    0.8389   -0.4934 H       1  UNL1        0.0329
     36 H          -0.0766   -2.1703   -0.3964 H       1  UNL1        0.0326
     37 H          -0.5303   -2.0321    2.0544 H       1  UNL1        0.0270
     38 H           0.1197   -0.3146    2.0072 H       1  UNL1        0.0270
     39 H           1.9613   -1.9395    2.5695 H       1  UNL1        0.0291
     40 H           1.7570   -2.6777    0.9168 H       1  UNL1        0.0291
     41 H           3.4596   -1.0657    0.8654 H       1  UNL1        0.0630
     42 H           2.8294   -0.0380    2.7164 H       1  UNL1        0.2099
@<TRIPOS>BOND
     1     1     2    1
     2     2     3    1
     3     3     4   ar
     4     4     5    1
     5     4     6   ar
     6     6     7   ar
     7     7     8   ar
     8     8     9   ar
     9     9    10    1
    10    10    11    1
    11    11    12    1
    12    12    13    1
    13    13    14    1
    14    13    15    1
    15    15    16    1
    16    15    17    1
    17    17    18    1
    18    18    19    1
    19    19    20    1
    20    20    21    1
    21    10     1    1
    22    17    10    1
    23    20     1    1
    24     9     3   ar
    25    16     8    1
    26     1    22    1
    27     5    23    1
    28     6    24    1
    29     7    25    1
    30    11    26    1
    31    11    27    1
    32    12    28    1
    33    12    29    1
    34    14    30    1
    35    14    31    1
    36    14    32    1
    37    15    33    1
    38    16    34    1
    39    16    35    1
    40    17    36    1
    41    18    37    1
    42    18    38    1
    43    19    39    1
    44    19    40    1
    45    20    41    1
    46    21    42    1
