
     RDKit          3D

 42 46  0  0  0  0  0  0  0  0999 V2000
    1.9910   -0.2189   -0.4056 C   0  0  2  0  0  0  0  0  0  0  0  0
    2.3321    1.1657   -0.4979 O   0  0  0  0  0  0  0  0  0  0  0  0
    1.3199    1.9368    0.0495 C   0  0  0  0  0  0  0  0  0  0  0  0
    1.0954    3.1969    0.6017 C   0  0  0  0  0  0  0  0  0  0  0  0
    2.2322    4.0249    0.6555 O   0  0  0  0  0  0  0  0  0  0  0  0
   -0.1575    3.5898    1.0585 C   0  0  0  0  0  0  0  0  0  0  0  0
   -1.2385    2.7062    0.9694 C   0  0  0  0  0  0  0  0  0  0  0  0
   -1.1020    1.4563    0.4425 C   0  0  0  0  0  0  0  0  0  0  0  0
    0.1711    1.1772    0.0254 C   0  0  0  0  0  0  0  0  0  0  0  0
    0.5013   -0.1417   -0.5793 C   0  0  1  0  0  0  0  0  0  0  0  0
    0.1525   -0.1528   -2.0224 C   0  0  0  0  0  0  0  0  0  0  0  0
   -1.2178   -0.5228   -2.4096 C   0  0  0  0  0  0  0  0  0  0  0  0
   -2.0285   -1.2172   -1.4619 N   0  0  0  0  0  0  0  0  0  0  0  0
   -2.1988   -2.6179   -1.6965 C   0  0  0  0  0  0  0  0  0  0  0  0
   -1.7383   -0.8985   -0.0859 C   0  0  2  0  0  0  0  0  0  0  0  0
   -2.1732    0.4636    0.3158 C   0  0  0  0  0  0  0  0  0  0  0  0
   -0.2806   -1.2064    0.1127 C   0  0  2  0  0  0  0  0  0  0  0  0
    0.1406   -1.3260    1.5543 C   0  0  0  0  0  0  0  0  0  0  0  0
    1.5872   -1.7721    1.5287 C   0  0  0  0  0  0  0  0  0  0  0  0
    2.4270   -0.6641    0.9549 C   0  0  2  0  0  0  0  0  0  0  0  0
    2.4923    0.3813    1.8779 O   0  0  0  0  0  0  0  0  0  0  0  0
    2.4628   -0.7407   -1.2436 H   0  0  0  0  0  0  0  0  0  0  0  0
    2.6537    4.0479    1.5941 H   0  0  0  0  0  0  0  0  0  0  0  0
   -0.2602    4.5996    1.4823 H   0  0  0  0  0  0  0  0  0  0  0  0
   -2.2246    3.0248    1.3328 H   0  0  0  0  0  0  0  0  0  0  0  0
    0.9039   -0.8184   -2.5375 H   0  0  0  0  0  0  0  0  0  0  0  0
    0.3694    0.8588   -2.4774 H   0  0  0  0  0  0  0  0  0  0  0  0
   -1.8136    0.3736   -2.7525 H   0  0  0  0  0  0  0  0  0  0  0  0
   -1.1799   -1.1684   -3.3138 H   0  0  0  0  0  0  0  0  0  0  0  0
   -1.8682   -3.1670   -0.7691 H   0  0  0  0  0  0  0  0  0  0  0  0
   -1.6274   -3.0221   -2.5321 H   0  0  0  0  0  0  0  0  0  0  0  0
   -3.3053   -2.7831   -1.8082 H   0  0  0  0  0  0  0  0  0  0  0  0
   -2.2938   -1.6345    0.5392 H   0  0  0  0  0  0  0  0  0  0  0  0
   -2.7862    0.4679    1.2583 H   0  0  0  0  0  0  0  0  0  0  0  0
   -2.8579    0.8389   -0.4934 H   0  0  0  0  0  0  0  0  0  0  0  0
   -0.0766   -2.1703   -0.3964 H   0  0  0  0  0  0  0  0  0  0  0  0
   -0.5303   -2.0321    2.0544 H   0  0  0  0  0  0  0  0  0  0  0  0
    0.1197   -0.3146    2.0072 H   0  0  0  0  0  0  0  0  0  0  0  0
    1.9613   -1.9395    2.5695 H   0  0  0  0  0  0  0  0  0  0  0  0
    1.7570   -2.6777    0.9168 H   0  0  0  0  0  0  0  0  0  0  0  0
    3.4596   -1.0657    0.8654 H   0  0  0  0  0  0  0  0  0  0  0  0
    2.8294   -0.0380    2.7164 H   0  0  0  0  0  0  0  0  0  0  0  0
  1  2  1  0
  2  3  1  0
  3  4  2  0
  4  5  1  0
  4  6  1  0
  6  7  2  0
  7  8  1  0
  8  9  2  0
  9 10  1  0
 10 11  1  6
 11 12  1  0
 12 13  1  0
 13 14  1  0
 13 15  1  0
 15 16  1  0
 15 17  1  0
 17 18  1  0
 18 19  1  0
 19 20  1  0
 20 21  1  0
 10  1  1  0
 17 10  1  0
 20  1  1  0
  9  3  1  0
 16  8  1  0
  1 22  1  6
  5 23  1  0
  6 24  1  0
  7 25  1  0
 11 26  1  0
 11 27  1  0
 12 28  1  0
 12 29  1  0
 14 30  1  0
 14 31  1  0
 14 32  1  0
 15 33  1  1
 16 34  1  0
 16 35  1  0
 17 36  1  6
 18 37  1  0
 18 38  1  0
 19 39  1  0
 19 40  1  0
 20 41  1  6
 21 42  1  0
M  END
$$$$
