@<TRIPOS>MOLECULE
*****
 65 70 0 0 0
SMALL
GASTEIGER

@<TRIPOS>ATOM
      1 O          -7.2528    1.9728    1.3057 O.2     1  UNL1       -0.2510
      2 C          -6.5420    2.3998    0.3994 C.2     1  UNL1        0.3053
      3 O          -7.1739    3.2639   -0.5194 O.3     1  UNL1       -0.4806
      4 C          -5.1249    2.0752    0.2228 C.3     1  UNL1        0.0516
      5 C          -4.5802    0.9502    1.0270 C.3     1  UNL1       -0.0047
      6 C          -3.0795    0.8546    0.7478 C.3     1  UNL1       -0.0359
      7 C          -2.8284   -0.3293   -0.1023 C.3     1  UNL1       -0.0006
      8 C          -1.7236   -1.2172    0.4884 C.3     1  UNL1       -0.0273
      9 C          -0.3528   -0.8072    0.1609 C.3     1  UNL1        0.0169
     10 N          -0.1388    0.0411   -0.9633 N.am    1  UNL1       -0.2856
     11 C           1.1813    0.5207   -1.2965 C.2     1  UNL1        0.3024
     12 O           1.3607    1.2485   -2.2612 O.2     1  UNL1       -0.2526
     13 N           2.3096    0.1497   -0.4977 N.am    1  UNL1       -0.2959
     14 C           3.6546    0.5537   -0.7224 C.3     1  UNL1        0.0302
     15 C           4.2931    1.3094    0.4073 C.3     1  UNL1       -0.0218
     16 C           4.3615    0.4654    1.6461 C.3     1  UNL1       -0.0456
     17 C           5.1816   -0.7726    1.3862 C.3     1  UNL1       -0.0402
     18 C           6.5860   -0.3361    1.0401 C.3     1  UNL1       -0.0473
     19 C           6.5353    0.4251   -0.2543 C.3     1  UNL1       -0.0402
     20 C           5.7122    1.6596   -0.0489 C.3     1  UNL1       -0.0456
     21 C           5.8918   -0.3803   -1.3610 C.3     1  UNL1       -0.0456
     22 C           4.4820   -0.6924   -0.9587 C.3     1  UNL1       -0.0218
     23 C           4.5400   -1.5594    0.2827 C.3     1  UNL1       -0.0456
     24 C          -1.1876    0.4611   -1.8183 C.3     1  UNL1        0.0169
     25 C          -2.5500   -0.0619   -1.5490 C.3     1  UNL1       -0.0273
     26 C          -4.1035   -1.0874   -0.0182 C.ar    1  UNL1       -0.0376
     27 C          -4.3873   -2.3934   -0.4846 C.ar    1  UNL1       -0.0578
     28 C          -5.6137   -2.9762   -0.2779 C.ar    1  UNL1       -0.0615
     29 C          -6.6015   -2.3004    0.3921 C.ar    1  UNL1       -0.0615
     30 C          -6.3310   -1.0197    0.8517 C.ar    1  UNL1       -0.0580
     31 C          -5.0731   -0.4087    0.6429 C.ar    1  UNL1       -0.0400
     32 H          -8.1606    3.0981   -0.6914 H       1  UNL1        0.2951
     33 H          -4.8650    1.9752   -0.8601 H       1  UNL1        0.0383
     34 H          -4.5585    3.0149    0.5238 H       1  UNL1        0.0383
     35 H          -4.7266    1.1378    2.1080 H       1  UNL1        0.0354
     36 H          -2.5351    0.6995    1.7248 H       1  UNL1        0.0280
     37 H          -2.7082    1.8243    0.3357 H       1  UNL1        0.0280
     38 H          -1.9045   -2.2547    0.0782 H       1  UNL1        0.0289
     39 H          -1.8744   -1.3200    1.5895 H       1  UNL1        0.0289
     40 H           0.3051   -1.7248    0.0084 H       1  UNL1        0.0465
     41 H           0.0967   -0.3520    1.0864 H       1  UNL1        0.0465
     42 H           2.0934   -0.4722    0.3117 H       1  UNL1        0.1505
     43 H           3.7533    1.1925   -1.6337 H       1  UNL1        0.0504
     44 H           3.8251    2.2957    0.6114 H       1  UNL1        0.0319
     45 H           3.3569    0.1484    1.9586 H       1  UNL1        0.0271
     46 H           4.8098    1.0955    2.4536 H       1  UNL1        0.0271
     47 H           5.1569   -1.3838    2.3083 H       1  UNL1        0.0301
     48 H           6.9127    0.3719    1.8346 H       1  UNL1        0.0271
     49 H           7.3000   -1.1704    1.0225 H       1  UNL1        0.0271
     50 H           7.5359    0.7431   -0.6001 H       1  UNL1        0.0301
     51 H           6.1780    2.4031    0.6197 H       1  UNL1        0.0271
     52 H           5.6317    2.1662   -1.0480 H       1  UNL1        0.0271
     53 H           6.4462   -1.3382   -1.4080 H       1  UNL1        0.0271
     54 H           5.9896    0.1623   -2.3101 H       1  UNL1        0.0271
     55 H           4.0190   -1.3074   -1.7561 H       1  UNL1        0.0319
     56 H           5.1849   -2.4286    0.0255 H       1  UNL1        0.0271
     57 H           3.5415   -1.8887    0.6200 H       1  UNL1        0.0271
     58 H          -0.9365    0.1742   -2.8765 H       1  UNL1        0.0465
     59 H          -1.2320    1.5855   -1.7621 H       1  UNL1        0.0465
     60 H          -2.7085   -1.0258   -2.1217 H       1  UNL1        0.0289
     61 H          -3.2808    0.6741   -1.9236 H       1  UNL1        0.0289
     62 H          -3.5850   -2.9019   -1.0086 H       1  UNL1        0.0621
     63 H          -5.8020   -3.9726   -0.6442 H       1  UNL1        0.0618
     64 H          -7.6004   -2.7181    0.5869 H       1  UNL1        0.0618
     65 H          -7.1036   -0.5113    1.3933 H       1  UNL1        0.0620
@<TRIPOS>BOND
     1     1     2    2
     2     2     3    1
     3     2     4    1
     4     4     5    1
     5     5     6    1
     6     6     7    1
     7     7     8    1
     8     8     9    1
     9     9    10    1
    10    10    11   am
    11    11    12    2
    12    11    13   am
    13    13    14    1
    14    14    15    1
    15    15    16    1
    16    16    17    1
    17    17    18    1
    18    18    19    1
    19    19    20    1
    20    19    21    1
    21    21    22    1
    22    22    23    1
    23    10    24    1
    24    24    25    1
    25     7    26    1
    26    26    27   ar
    27    27    28   ar
    28    28    29   ar
    29    29    30   ar
    30    30    31   ar
    31    31     5    1
    32    25     7    1
    33    31    26   ar
    34    22    14    1
    35    20    15    1
    36    23    17    1
    37     3    32    1
    38     4    33    1
    39     4    34    1
    40     5    35    1
    41     6    36    1
    42     6    37    1
    43     8    38    1
    44     8    39    1
    45     9    40    1
    46     9    41    1
    47    13    42    1
    48    14    43    1
    49    15    44    1
    50    16    45    1
    51    16    46    1
    52    17    47    1
    53    18    48    1
    54    18    49    1
    55    19    50    1
    56    20    51    1
    57    20    52    1
    58    21    53    1
    59    21    54    1
    60    22    55    1
    61    23    56    1
    62    23    57    1
    63    24    58    1
    64    24    59    1
    65    25    60    1
    66    25    61    1
    67    27    62    1
    68    28    63    1
    69    29    64    1
    70    30    65    1
