
     RDKit          3D

 43 45  0  0  0  0  0  0  0  0999 V2000
    0.7246    2.7166   -1.4780 C   0  0  0  0  0  0  0  0  0  0  0  0
    0.6451    2.0534   -0.1601 C   0  0  2  0  0  0  0  0  0  0  0  0
    2.0252    1.9337    0.4539 C   0  0  0  0  0  0  0  0  0  0  0  0
    2.9097    1.1526   -0.4641 C   0  0  0  0  0  0  0  0  0  0  0  0
    2.3319   -0.1647   -0.6575 N   0  0  0  0  0  0  0  0  0  0  0  0
    3.1178   -1.2996   -0.3978 C   0  0  0  0  0  0  0  0  0  0  0  0
    4.2952   -1.1797   -0.0043 O   0  0  0  0  0  0  0  0  0  0  0  0
    2.5105   -2.6255   -0.6041 C   0  0  0  0  0  0  0  0  0  0  0  0
    3.5058   -3.6474   -0.2798 C   0  0  0  0  0  0  0  0  0  0  0  0
    4.2777   -4.4673   -0.0301 N   0  0  0  0  0  0  0  0  0  0  0  0
    0.9581   -0.2235   -1.1154 C   0  0  0  0  0  0  0  0  0  0  0  0
    0.0859    0.6327   -0.1808 C   0  0  2  0  0  0  0  0  0  0  0  0
   -1.2817    0.5949   -0.5600 N   0  0  0  0  0  0  0  0  0  0  0  0
   -1.7268    0.7991   -1.9412 C   0  0  0  0  0  0  0  0  0  0  0  0
   -2.3203    0.4088    0.4136 C   0  0  0  0  0  0  0  0  0  0  0  0
   -3.2750    1.3801    0.5024 N   0  0  0  0  0  0  0  0  0  0  0  0
   -4.2415    1.1978    1.4056 C   0  0  0  0  0  0  0  0  0  0  0  0
   -4.2757    0.1101    2.1916 N   0  0  0  0  0  0  0  0  0  0  0  0
   -3.3471   -0.8448    2.1123 C   0  0  0  0  0  0  0  0  0  0  0  0
   -3.1680   -1.9916    2.7687 N   0  0  0  0  0  0  0  0  0  0  0  0
   -2.0689   -2.6108    2.3184 C   0  0  0  0  0  0  0  0  0  0  0  0
   -1.4994   -1.8330    1.3187 C   0  0  0  0  0  0  0  0  0  0  0  0
   -2.3095   -0.7163    1.1898 C   0  0  0  0  0  0  0  0  0  0  0  0
    1.6232    3.4059   -1.4789 H   0  0  0  0  0  0  0  0  0  0  0  0
    0.8436    2.0945   -2.3600 H   0  0  0  0  0  0  0  0  0  0  0  0
   -0.1670    3.4018   -1.5786 H   0  0  0  0  0  0  0  0  0  0  0  0
   -0.0248    2.6194    0.5262 H   0  0  0  0  0  0  0  0  0  0  0  0
    2.3868    2.9326    0.6989 H   0  0  0  0  0  0  0  0  0  0  0  0
    1.9160    1.3483    1.3922 H   0  0  0  0  0  0  0  0  0  0  0  0
    2.8957    1.6410   -1.4601 H   0  0  0  0  0  0  0  0  0  0  0  0
    3.9516    1.0926   -0.0818 H   0  0  0  0  0  0  0  0  0  0  0  0
    1.6050   -2.7470    0.0527 H   0  0  0  0  0  0  0  0  0  0  0  0
    2.1137   -2.7423   -1.6509 H   0  0  0  0  0  0  0  0  0  0  0  0
    0.8877    0.0934   -2.1646 H   0  0  0  0  0  0  0  0  0  0  0  0
    0.6108   -1.2568   -1.0260 H   0  0  0  0  0  0  0  0  0  0  0  0
    0.2535    0.2258    0.8308 H   0  0  0  0  0  0  0  0  0  0  0  0
   -2.7115    0.3011   -2.0814 H   0  0  0  0  0  0  0  0  0  0  0  0
   -1.8897    1.8581   -2.1811 H   0  0  0  0  0  0  0  0  0  0  0  0
   -1.0519    0.3263   -2.6744 H   0  0  0  0  0  0  0  0  0  0  0  0
   -4.9957    1.9774    1.4671 H   0  0  0  0  0  0  0  0  0  0  0  0
   -3.8064   -2.3381    3.5223 H   0  0  0  0  0  0  0  0  0  0  0  0
   -1.6923   -3.5727    2.6872 H   0  0  0  0  0  0  0  0  0  0  0  0
   -0.6220   -2.0370    0.7588 H   0  0  0  0  0  0  0  0  0  0  0  0
  1  2  1  0
  2  3  1  0
  3  4  1  0
  4  5  1  0
  5  6  1  0
  6  7  2  0
  6  8  1  0
  8  9  1  0
  9 10  3  0
  5 11  1  0
 11 12  1  0
 12 13  1  0
 13 14  1  0
 13 15  1  0
 15 16  2  0
 16 17  1  0
 17 18  2  0
 18 19  1  0
 19 20  1  0
 20 21  1  0
 21 22  2  0
 22 23  1  0
 12  2  1  0
 23 15  1  0
 23 19  2  0
  1 24  1  0
  1 25  1  0
  1 26  1  0
  2 27  1  1
  3 28  1  0
  3 29  1  0
  4 30  1  0
  4 31  1  0
  8 32  1  0
  8 33  1  0
 11 34  1  0
 11 35  1  0
 12 36  1  1
 14 37  1  0
 14 38  1  0
 14 39  1  0
 17 40  1  0
 20 41  1  0
 21 42  1  0
 22 43  1  0
M  END
$$$$
