@<TRIPOS>MOLECULE
*****
 43 45 0 0 0
SMALL
GASTEIGER

@<TRIPOS>ATOM
      1 C           0.7246    2.7166   -1.4780 C.3     1  UNL1       -0.0606
      2 C           0.6451    2.0534   -0.1601 C.3     1  UNL1       -0.0224
      3 C           2.0252    1.9337    0.4539 C.3     1  UNL1       -0.0328
      4 C           2.9097    1.1526   -0.4641 C.3     1  UNL1        0.0151
      5 N           2.3319   -0.1647   -0.6575 N.am    1  UNL1       -0.2989
      6 C           3.1178   -1.2996   -0.3978 C.2     1  UNL1        0.2295
      7 O           4.2952   -1.1797   -0.0043 O.2     1  UNL1       -0.2745
      8 C           2.5105   -2.6255   -0.6041 C.3     1  UNL1        0.1112
      9 C           3.5058   -3.6474   -0.2798 C.1     1  UNL1        0.0719
     10 N           4.2777   -4.4673   -0.0301 N.1     1  UNL1       -0.1961
     11 C           0.9581   -0.2235   -1.1154 C.3     1  UNL1        0.0335
     12 C           0.0859    0.6327   -0.1808 C.3     1  UNL1        0.0429
     13 N          -1.2817    0.5949   -0.5600 N.pl3   1  UNL1       -0.3128
     14 C          -1.7268    0.7991   -1.9412 C.3     1  UNL1        0.0024
     15 C          -2.3203    0.4088    0.4136 C.ar    1  UNL1        0.1338
     16 N          -3.2750    1.3801    0.5024 N.ar    1  UNL1       -0.2200
     17 C          -4.2415    1.1978    1.4056 C.ar    1  UNL1        0.1204
     18 N          -4.2757    0.1101    2.1916 N.ar    1  UNL1       -0.2178
     19 C          -3.3471   -0.8448    2.1123 C.ar    1  UNL1        0.1432
     20 N          -3.1680   -1.9916    2.7687 N.ar    1  UNL1       -0.3457
     21 C          -2.0689   -2.6108    2.3184 C.ar    1  UNL1        0.0042
     22 C          -1.4994   -1.8330    1.3187 C.ar    1  UNL1       -0.0318
     23 C          -2.3095   -0.7163    1.1898 C.ar    1  UNL1        0.0585
     24 H           1.6232    3.4059   -1.4789 H       1  UNL1        0.0233
     25 H           0.8436    2.0945   -2.3600 H       1  UNL1        0.0233
     26 H          -0.1670    3.4018   -1.5786 H       1  UNL1        0.0233
     27 H          -0.0248    2.6194    0.5262 H       1  UNL1        0.0317
     28 H           2.3868    2.9326    0.6989 H       1  UNL1        0.0284
     29 H           1.9160    1.3483    1.3922 H       1  UNL1        0.0284
     30 H           2.8957    1.6410   -1.4601 H       1  UNL1        0.0465
     31 H           3.9516    1.0926   -0.0818 H       1  UNL1        0.0465
     32 H           1.6050   -2.7470    0.0527 H       1  UNL1        0.0513
     33 H           2.1137   -2.7423   -1.6509 H       1  UNL1        0.0513
     34 H           0.8877    0.0934   -2.1646 H       1  UNL1        0.0483
     35 H           0.6108   -1.2568   -1.0260 H       1  UNL1        0.0483
     36 H           0.2535    0.2258    0.8308 H       1  UNL1        0.0518
     37 H          -2.7115    0.3011   -2.0814 H       1  UNL1        0.0428
     38 H          -1.8897    1.8581   -2.1811 H       1  UNL1        0.0428
     39 H          -1.0519    0.3263   -2.6744 H       1  UNL1        0.0428
     40 H          -4.9957    1.9774    1.4671 H       1  UNL1        0.1048
     41 H          -3.8064   -2.3381    3.5223 H       1  UNL1        0.1668
     42 H          -1.6923   -3.5727    2.6872 H       1  UNL1        0.0807
     43 H          -0.6220   -2.0370    0.7588 H       1  UNL1        0.0640
@<TRIPOS>BOND
     1     1     2    1
     2     2     3    1
     3     3     4    1
     4     4     5    1
     5     5     6   am
     6     6     7    2
     7     6     8    1
     8     8     9    1
     9     9    10    3
    10     5    11    1
    11    11    12    1
    12    12    13    1
    13    13    14    1
    14    13    15    1
    15    15    16   ar
    16    16    17   ar
    17    17    18   ar
    18    18    19   ar
    19    19    20   ar
    20    20    21   ar
    21    21    22   ar
    22    22    23   ar
    23    12     2    1
    24    23    15   ar
    25    23    19   ar
    26     1    24    1
    27     1    25    1
    28     1    26    1
    29     2    27    1
    30     3    28    1
    31     3    29    1
    32     4    30    1
    33     4    31    1
    34     8    32    1
    35     8    33    1
    36    11    34    1
    37    11    35    1
    38    12    36    1
    39    14    37    1
    40    14    38    1
    41    14    39    1
    42    17    40    1
    43    20    41    1
    44    21    42    1
    45    22    43    1
