@<TRIPOS>MOLECULE
*****
 65 68 0 0 0
SMALL
GASTEIGER

@<TRIPOS>ATOM
      1 C          -5.9686    0.7003   -0.7678 C.3     1  UNL1       -0.0130
      2 N          -6.3504    0.2415    0.5007 N.3     1  UNL1       -0.3083
      3 C          -7.6605    0.6440    0.9482 C.3     1  UNL1       -0.0130
      4 C          -5.3928    0.2257    1.5126 C.3     1  UNL1       -0.0000
      5 C          -4.8556    1.4356    2.1168 C.3     1  UNL1       -0.0205
      6 C          -4.0039    2.4265    1.4526 C.3     1  UNL1        0.0434
      7 N          -2.7044    1.9657    1.0280 N.ar    1  UNL1       -0.2630
      8 N          -1.7680    1.7183    1.9722 N.ar    1  UNL1       -0.1685
      9 C          -0.6566    1.2161    1.4034 C.ar    1  UNL1        0.1202
     10 C           0.5570    0.8359    2.1528 C.ar    1  UNL1        0.1104
     11 C           0.5671    0.9786    3.5248 C.ar    1  UNL1        0.0575
     12 N           1.6184    0.6592    4.2855 N.ar    1  UNL1       -0.2338
     13 C           2.7364    0.1725    3.7151 C.ar    1  UNL1        0.1574
     14 N           3.9307   -0.2313    4.1769 N.ar    1  UNL1       -0.3438
     15 C           4.6924   -0.6285    3.1568 C.ar    1  UNL1        0.0178
     16 C           3.9779   -0.4853    1.9541 C.ar    1  UNL1        0.0815
     17 C           4.4755   -0.8030    0.6295 C.2     1  UNL1        0.2481
     18 O           5.5285   -0.1802    0.2559 O.2     1  UNL1       -0.2701
     19 N           3.9085   -1.7315   -0.2749 N.am    1  UNL1       -0.3040
     20 C           4.4587   -2.0176   -1.5774 C.3     1  UNL1        0.0523
     21 C           4.5778   -0.8076   -2.4610 C.3     1  UNL1       -0.0418
     22 C           3.4575   -2.9469   -2.2891 C.3     1  UNL1       -0.0418
     23 C           5.7514   -2.7656   -1.5559 C.3     1  UNL1        0.0649
     24 O           6.7857   -2.1391   -0.9076 O.3     1  UNL1       -0.3929
     25 C           2.7563    0.0173    2.3329 C.ar    1  UNL1        0.1202
     26 N           1.6641    0.3513    1.5674 N.ar    1  UNL1       -0.2397
     27 C          -0.9232    1.1558    0.0666 C.ar    1  UNL1        0.0326
     28 C          -0.1612    0.7504   -1.0033 C.ar    1  UNL1       -0.0084
     29 C          -0.6564    0.8120   -2.2902 C.ar    1  UNL1        0.1276
     30 O           0.0138    0.4353   -3.4068 O.3     1  UNL1       -0.4342
     31 C           1.2986   -0.0926   -3.4174 C.3     1  UNL1        0.3893
     32 F           2.1256    0.8221   -4.1030 F       1  UNL1       -0.1663
     33 F           1.3695   -1.2509   -4.1787 F       1  UNL1       -0.1663
     34 C          -1.9559    1.2980   -2.4930 C.ar    1  UNL1       -0.0177
     35 C          -2.7220    1.7026   -1.4350 C.ar    1  UNL1       -0.0326
     36 C          -2.1991    1.6272   -0.1461 C.ar    1  UNL1        0.0698
     37 H          -5.9218    1.7966   -0.8540 H       1  UNL1        0.0391
     38 H          -5.0807    0.1793   -1.1965 H       1  UNL1        0.0391
     39 H          -6.7934    0.4149   -1.5158 H       1  UNL1        0.0391
     40 H          -8.3745   -0.1098    0.5219 H       1  UNL1        0.0391
     41 H          -7.9855    1.6293    0.6136 H       1  UNL1        0.0391
     42 H          -7.6831    0.5073    2.0472 H       1  UNL1        0.0391
     43 H          -4.5027   -0.4558    1.2113 H       1  UNL1        0.0427
     44 H          -5.7970   -0.4118    2.3920 H       1  UNL1        0.0427
     45 H          -4.2425    1.0704    3.0376 H       1  UNL1        0.0295
     46 H          -5.6854    2.0032    2.7090 H       1  UNL1        0.0295
     47 H          -3.8040    3.2640    2.1988 H       1  UNL1        0.0509
     48 H          -4.4883    2.9581    0.5987 H       1  UNL1        0.0509
     49 H          -0.3469    1.3777    3.9969 H       1  UNL1        0.0853
     50 H           4.1948   -0.2233    5.1869 H       1  UNL1        0.1668
     51 H           5.7058   -1.0109    3.1751 H       1  UNL1        0.0816
     52 H           3.0330   -2.2139    0.0770 H       1  UNL1        0.1496
     53 H           4.0791    0.0865   -2.0448 H       1  UNL1        0.0251
     54 H           4.2493   -1.0089   -3.5023 H       1  UNL1        0.0251
     55 H           5.6712   -0.5680   -2.5496 H       1  UNL1        0.0251
     56 H           2.4522   -2.8263   -1.8846 H       1  UNL1        0.0251
     57 H           3.7564   -4.0155   -2.1073 H       1  UNL1        0.0251
     58 H           3.4667   -2.7370   -3.3664 H       1  UNL1        0.0251
     59 H           5.5803   -3.7365   -1.0474 H       1  UNL1        0.0578
     60 H           6.0984   -3.0179   -2.5826 H       1  UNL1        0.0578
     61 H           7.6359   -2.6026   -0.9372 H       1  UNL1        0.2095
     62 H           0.8540    0.3724   -0.8489 H       1  UNL1        0.0661
     63 H           1.7512   -0.2990   -2.4432 H       1  UNL1        0.1520
     64 H          -2.3859    1.3668   -3.4835 H       1  UNL1        0.0655
     65 H          -3.7096    2.0988   -1.5867 H       1  UNL1        0.0640
@<TRIPOS>BOND
     1     1     2    1
     2     2     3    1
     3     2     4    1
     4     4     5    1
     5     5     6    1
     6     6     7    1
     7     7     8   ar
     8     8     9   ar
     9     9    10    1
    10    10    11   ar
    11    11    12   ar
    12    12    13   ar
    13    13    14   ar
    14    14    15   ar
    15    15    16   ar
    16    16    17    1
    17    17    18    2
    18    17    19   am
    19    19    20    1
    20    20    21    1
    21    20    22    1
    22    20    23    1
    23    23    24    1
    24    16    25   ar
    25    25    26   ar
    26     9    27   ar
    27    27    28   ar
    28    28    29   ar
    29    29    30    1
    30    30    31    1
    31    31    32    1
    32    31    33    1
    33    29    34   ar
    34    34    35   ar
    35    35    36   ar
    36    36     7   ar
    37    26    10   ar
    38    36    27   ar
    39    25    13   ar
    40     1    37    1
    41     1    38    1
    42     1    39    1
    43     3    40    1
    44     3    41    1
    45     3    42    1
    46     4    43    1
    47     4    44    1
    48     5    45    1
    49     5    46    1
    50     6    47    1
    51     6    48    1
    52    11    49    1
    53    14    50    1
    54    15    51    1
    55    19    52    1
    56    21    53    1
    57    21    54    1
    58    21    55    1
    59    22    56    1
    60    22    57    1
    61    22    58    1
    62    23    59    1
    63    23    60    1
    64    24    61    1
    65    28    62    1
    66    31    63    1
    67    34    64    1
    68    35    65    1
