@<TRIPOS>MOLECULE
*****
 60 62 0 0 0
SMALL
GASTEIGER

@<TRIPOS>ATOM
      1 C          -9.3737   -0.3105   -1.6288 C.3     1  UNL1       -0.0411
      2 C          -7.8972   -0.5949   -1.4746 C.3     1  UNL1        0.0542
      3 O          -7.3959    0.1951   -0.4366 O.3     1  UNL1       -0.3073
      4 P          -5.7478   -0.1677   -0.3019 P.3     1  UNL1        0.3464
      5 O          -5.1218    0.7354    0.7362 O.2     1  UNL1       -0.2571
      6 C          -4.9093    0.0677   -1.9071 C.3     1  UNL1        0.0994
      7 N          -3.5235    0.4112   -1.6057 N.3     1  UNL1       -0.3019
      8 C          -2.8894   -0.6401   -0.8525 C.3     1  UNL1        0.0218
      9 C          -1.4856   -0.2272   -0.5889 C.ar    1  UNL1       -0.0335
     10 C          -0.4505   -0.5370   -1.4442 C.ar    1  UNL1       -0.0566
     11 C           0.8589   -0.1298   -1.1623 C.ar    1  UNL1       -0.0493
     12 C           1.1440    0.5907   -0.0225 C.ar    1  UNL1        0.0370
     13 C           2.5048    0.9977    0.2491 C.2     1  UNL1        0.2483
     14 O           2.7729    1.6824    1.2958 O.2     1  UNL1       -0.2699
     15 N           3.6142    0.6935   -0.5734 N.am    1  UNL1       -0.2799
     16 C           4.9392    1.1098   -0.2754 C.ar    1  UNL1        0.0551
     17 C           5.8250    0.3766    0.4796 C.ar    1  UNL1       -0.0305
     18 C           7.0969    0.8109    0.7451 C.ar    1  UNL1       -0.0094
     19 C           8.0052   -0.0265    1.5700 C.ar    1  UNL1        0.0194
     20 C           9.2708    0.2019    1.9441 C.ar    1  UNL1       -0.0469
     21 C           9.9105   -0.6923    2.6957 C.ar    1  UNL1       -0.0541
     22 C           9.2304   -1.8299    3.0599 C.ar    1  UNL1       -0.0237
     23 S           7.6268   -1.5676    2.2785 S.2     1  UNL1       -0.0967
     24 C           7.4968    2.0210    0.2374 C.ar    1  UNL1       -0.0517
     25 C           6.6445    2.8071   -0.5335 C.ar    1  UNL1       -0.0386
     26 C           5.3546    2.3218   -0.7778 C.ar    1  UNL1        0.0461
     27 N           4.4627    3.1028   -1.5613 N.pl3   1  UNL1       -0.3565
     28 C           0.0831    0.8792    0.8046 C.ar    1  UNL1       -0.0493
     29 C          -1.2146    0.4995    0.5659 C.ar    1  UNL1       -0.0566
     30 O          -5.4977   -1.7699    0.1465 O.3     1  UNL1       -0.3073
     31 C          -5.7486   -1.9588    1.5160 C.3     1  UNL1        0.0542
     32 C          -5.5176   -3.3739    1.9316 C.3     1  UNL1       -0.0411
     33 H          -9.6432    0.6722   -1.1612 H       1  UNL1        0.0252
     34 H          -9.6398   -0.2775   -2.7010 H       1  UNL1        0.0252
     35 H          -9.9121   -1.1502   -1.1023 H       1  UNL1        0.0252
     36 H          -7.3343   -0.3280   -2.4102 H       1  UNL1        0.0562
     37 H          -7.7159   -1.6450   -1.2257 H       1  UNL1        0.0562
     38 H          -5.3913    0.8705   -2.4924 H       1  UNL1        0.0550
     39 H          -4.9247   -0.8863   -2.4792 H       1  UNL1        0.0550
     40 H          -3.0222    0.6074   -2.4889 H       1  UNL1        0.1228
     41 H          -2.8856   -1.6081   -1.3951 H       1  UNL1        0.0474
     42 H          -3.4045   -0.7291    0.1380 H       1  UNL1        0.0474
     43 H          -0.6958   -1.1024   -2.3319 H       1  UNL1        0.0621
     44 H           1.5832   -0.4236   -1.8922 H       1  UNL1        0.0625
     45 H           3.4748    0.1432   -1.4365 H       1  UNL1        0.1552
     46 H           5.4962   -0.5670    0.8687 H       1  UNL1        0.0643
     47 H           9.7739    1.1517    1.6136 H       1  UNL1        0.0629
     48 H          10.9648   -0.5825    3.0528 H       1  UNL1        0.0623
     49 H           9.5183   -2.7074    3.6634 H       1  UNL1        0.0693
     50 H           8.5094    2.3409    0.4629 H       1  UNL1        0.0624
     51 H           6.9875    3.7563   -0.9200 H       1  UNL1        0.0637
     52 H           3.5150    3.4117   -1.2252 H       1  UNL1        0.1424
     53 H           4.7339    3.4004   -2.5241 H       1  UNL1        0.1424
     54 H           0.2937    1.4437    1.7021 H       1  UNL1        0.0625
     55 H          -2.0342    0.7423    1.2392 H       1  UNL1        0.0621
     56 H          -6.8328   -1.6874    1.6594 H       1  UNL1        0.0562
     57 H          -5.1646   -1.2814    2.1521 H       1  UNL1        0.0562
     58 H          -5.5345   -4.0466    1.0431 H       1  UNL1        0.0252
     59 H          -6.2754   -3.7408    2.6652 H       1  UNL1        0.0252
     60 H          -4.5079   -3.4707    2.4157 H       1  UNL1        0.0252
@<TRIPOS>BOND
     1     1     2    1
     2     2     3    1
     3     3     4    1
     4     4     5    2
     5     4     6    1
     6     6     7    1
     7     7     8    1
     8     8     9    1
     9     9    10   ar
    10    10    11   ar
    11    11    12   ar
    12    12    13    1
    13    13    14    2
    14    13    15   am
    15    15    16    1
    16    16    17   ar
    17    17    18   ar
    18    18    19    1
    19    19    20   ar
    20    20    21   ar
    21    21    22   ar
    22    22    23   ar
    23    18    24   ar
    24    24    25   ar
    25    25    26   ar
    26    26    27    1
    27    12    28   ar
    28    28    29   ar
    29     4    30    1
    30    30    31    1
    31    31    32    1
    32    29     9   ar
    33    26    16   ar
    34    23    19   ar
    35     1    33    1
    36     1    34    1
    37     1    35    1
    38     2    36    1
    39     2    37    1
    40     6    38    1
    41     6    39    1
    42     7    40    1
    43     8    41    1
    44     8    42    1
    45    10    43    1
    46    11    44    1
    47    15    45    1
    48    17    46    1
    49    20    47    1
    50    21    48    1
    51    22    49    1
    52    24    50    1
    53    25    51    1
    54    27    52    1
    55    27    53    1
    56    28    54    1
    57    29    55    1
    58    31    56    1
    59    31    57    1
    60    32    58    1
    61    32    59    1
    62    32    60    1
