@<TRIPOS>MOLECULE
*****
 57 61 0 0 0
SMALL
GASTEIGER

@<TRIPOS>ATOM
      1 N          10.5294   -2.9738    0.6608 N.1     1  UNL1       -0.1908
      2 C           9.4123   -2.6349    0.4429 C.1     1  UNL1        0.1007
      3 C           8.0634   -2.2328    0.2045 C.ar    1  UNL1        0.0699
      4 C           7.3491   -1.4160    1.0254 C.ar    1  UNL1       -0.0396
      5 C           6.0602   -1.0512    0.7119 C.ar    1  UNL1       -0.0207
      6 C           5.4861   -1.5197   -0.4487 C.ar    1  UNL1        0.1190
      7 N           4.1979   -1.1903   -0.8754 N.pl3   1  UNL1       -0.3247
      8 C           3.3388   -0.2903   -0.1839 C.3     1  UNL1        0.0392
      9 C           3.8330    1.1332   -0.1417 C.3     1  UNL1       -0.0171
     10 C           2.6653    2.0286   -0.5203 C.3     1  UNL1        0.0196
     11 N           1.5323    1.1284   -0.4638 N.am    1  UNL1       -0.2656
     12 C           0.2239    1.5279   -0.0346 C.2     1  UNL1        0.4032
     13 O           0.0048    2.7094    0.3335 O.2     1  UNL1       -0.2262
     14 O          -0.8545    0.6650    0.0009 O.3     1  UNL1       -0.4464
     15 C          -2.1522    1.0244    0.4129 C.3     1  UNL1        0.1103
     16 C          -3.0292    0.9039   -0.8297 C.3     1  UNL1       -0.0023
     17 C          -3.1836   -0.5179   -1.2686 C.3     1  UNL1       -0.0439
     18 C          -3.8758   -1.2734   -0.1480 C.3     1  UNL1       -0.0394
     19 C          -2.9207   -1.2774    1.0252 C.3     1  UNL1       -0.0439
     20 C          -2.7073    0.1511    1.4877 C.3     1  UNL1       -0.0023
     21 C          -4.0925    0.6822    1.8486 C.3     1  UNL1       -0.0328
     22 C          -5.0005    0.7359    0.6662 C.3     1  UNL1        0.0477
     23 C          -6.2435    1.4376    1.0085 C.2     1  UNL1        0.2167
     24 N          -7.3161    1.6682    0.1369 N.am    1  UNL1       -0.3289
     25 O          -6.3761    1.8799    2.1896 O.2     1  UNL1       -0.2754
     26 C          -5.2239   -0.6824    0.1926 C.3     1  UNL1       -0.0362
     27 C          -4.3693    1.4841   -0.5058 C.3     1  UNL1       -0.0328
     28 C           1.9943   -0.1432   -0.9057 C.3     1  UNL1        0.0362
     29 N           6.2171   -2.3364   -1.2549 N.ar    1  UNL1       -0.2392
     30 C           7.4745   -2.7110   -0.9802 C.ar    1  UNL1        0.0470
     31 H           7.8349   -1.0619    1.9418 H       1  UNL1        0.0632
     32 H           5.5380   -0.4111    1.3985 H       1  UNL1        0.0652
     33 H           3.8227   -1.6241   -1.7537 H       1  UNL1        0.1478
     34 H           3.1064   -0.6519    0.8465 H       1  UNL1        0.0514
     35 H           4.1844    1.4091    0.8768 H       1  UNL1        0.0299
     36 H           4.6276    1.3039   -0.9035 H       1  UNL1        0.0299
     37 H           2.8041    2.4691   -1.5378 H       1  UNL1        0.0466
     38 H           2.5752    2.8347    0.2443 H       1  UNL1        0.0466
     39 H          -2.2484    2.0811    0.7288 H       1  UNL1        0.0740
     40 H          -2.5758    1.5401   -1.6220 H       1  UNL1        0.0337
     41 H          -3.7902   -0.5471   -2.1754 H       1  UNL1        0.0272
     42 H          -2.1884   -1.0125   -1.3963 H       1  UNL1        0.0272
     43 H          -3.9599   -2.3295   -0.5006 H       1  UNL1        0.0301
     44 H          -3.3572   -1.8341    1.8789 H       1  UNL1        0.0272
     45 H          -1.9636   -1.6646    0.6675 H       1  UNL1        0.0272
     46 H          -2.0805    0.1892    2.3986 H       1  UNL1        0.0337
     47 H          -4.0466    1.6103    2.4403 H       1  UNL1        0.0279
     48 H          -4.5203   -0.0912    2.5462 H       1  UNL1        0.0279
     49 H          -7.9711    0.9046   -0.0848 H       1  UNL1        0.1449
     50 H          -7.4532    2.5974   -0.2820 H       1  UNL1        0.1449
     51 H          -5.8125   -0.6974   -0.7503 H       1  UNL1        0.0278
     52 H          -5.6948   -1.3319    0.9369 H       1  UNL1        0.0278
     53 H          -5.0444    1.2667   -1.3872 H       1  UNL1        0.0279
     54 H          -4.3570    2.5750   -0.3381 H       1  UNL1        0.0279
     55 H           1.3190   -0.9823   -0.6442 H       1  UNL1        0.0484
     56 H           2.2230   -0.1000   -1.9983 H       1  UNL1        0.0484
     57 H           7.9915   -3.3506   -1.6552 H       1  UNL1        0.0843
@<TRIPOS>BOND
     1     1     2    3
     2     2     3    1
     3     3     4   ar
     4     4     5   ar
     5     5     6   ar
     6     6     7    1
     7     7     8    1
     8     8     9    1
     9     9    10    1
    10    10    11    1
    11    11    12   am
    12    12    13    2
    13    12    14    1
    14    14    15    1
    15    15    16    1
    16    16    17    1
    17    17    18    1
    18    18    19    1
    19    19    20    1
    20    20    21    1
    21    21    22    1
    22    22    23    1
    23    23    24   am
    24    23    25    2
    25    22    26    1
    26    22    27    1
    27    11    28    1
    28     6    29   ar
    29    29    30   ar
    30    30     3   ar
    31    28     8    1
    32    20    15    1
    33    27    16    1
    34    26    18    1
    35     4    31    1
    36     5    32    1
    37     7    33    1
    38     8    34    1
    39     9    35    1
    40     9    36    1
    41    10    37    1
    42    10    38    1
    43    15    39    1
    44    16    40    1
    45    17    41    1
    46    17    42    1
    47    18    43    1
    48    19    44    1
    49    19    45    1
    50    20    46    1
    51    21    47    1
    52    21    48    1
    53    24    49    1
    54    24    50    1
    55    26    51    1
    56    26    52    1
    57    27    53    1
    58    27    54    1
    59    28    55    1
    60    28    56    1
    61    30    57    1
