@<TRIPOS>MOLECULE
*****
 62 66 0 0 0
SMALL
GASTEIGER

@<TRIPOS>ATOM
      1 O          -0.9236   -2.8494    2.9272 O.2     1  UNL1       -0.2817
      2 C          -1.3686   -2.6167    1.7863 C.2     1  UNL1        0.2496
      3 C          -2.7241   -2.8915    1.3510 C.2     1  UNL1        0.2915
      4 O          -3.6722   -3.4088    2.0425 O.2     1  UNL1       -0.2661
      5 N          -2.7880   -2.4714   -0.0048 N.am    1  UNL1       -0.2598
      6 C          -3.9681   -2.5614   -0.8883 C.3     1  UNL1        0.0452
      7 C          -4.8324   -1.3933   -0.5467 C.ar    1  UNL1       -0.0295
      8 C          -5.8523   -1.5413    0.3992 C.ar    1  UNL1       -0.0536
      9 C          -6.6483   -0.5274    0.7800 C.ar    1  UNL1       -0.0196
     10 C          -6.4917    0.7735    0.2303 C.ar    1  UNL1        0.1206
     11 O          -7.3174    1.7666    0.6466 O.3     1  UNL1       -0.4894
     12 C          -7.4282    3.0739    0.3048 C.3     1  UNL1        0.1177
     13 C          -7.8062    3.3152   -1.1171 C.3     1  UNL1        0.1241
     14 F          -9.0377    2.7227   -1.4291 F       1  UNL1       -0.2455
     15 C          -5.4980    0.9019   -0.6850 C.ar    1  UNL1       -0.0196
     16 C          -4.6736   -0.1593   -1.0766 C.ar    1  UNL1       -0.0536
     17 C          -1.5021   -1.9560   -0.3806 C.ar    1  UNL1        0.0481
     18 C          -1.0294   -1.4530   -1.5745 C.ar    1  UNL1       -0.0377
     19 C           0.3044   -1.0372   -1.6888 C.ar    1  UNL1       -0.0335
     20 C           1.1746   -1.1135   -0.6394 C.ar    1  UNL1        0.1063
     21 S           2.8523   -0.7006   -0.8532 S.O2    1  UNL1        0.0612
     22 O           3.4732   -1.0332    0.5256 O.2     1  UNL1       -0.1528
     23 O           3.4591   -1.6741   -1.8075 O.2     1  UNL1       -0.1528
     24 N           3.2306    0.8380   -1.1953 N.3     1  UNL1       -0.1702
     25 C           2.7220    1.4741   -2.4073 C.3     1  UNL1        0.0225
     26 C           3.8133    2.5339   -2.1241 C.3     1  UNL1       -0.0180
     27 C           4.4844    1.4525   -1.3026 C.3     1  UNL1        0.0671
     28 C           5.3003    1.8403   -0.1349 C.3     1  UNL1        0.1069
     29 O           5.8380    0.9413    0.6038 O.3     1  UNL1       -0.4875
     30 C           6.3974    0.0784    1.3919 C.ar    1  UNL1        0.1558
     31 C           6.9338    0.5966    2.6108 C.ar    1  UNL1       -0.0144
     32 C           7.5403   -0.2078    3.5322 C.ar    1  UNL1       -0.0228
     33 C           7.6590   -1.5600    3.3193 C.ar    1  UNL1        0.1264
     34 F           8.2605   -2.3332    4.2479 F       1  UNL1       -0.2054
     35 C           7.1572   -2.0770    2.1642 C.ar    1  UNL1        0.0124
     36 C           6.5439   -1.2764    1.2258 C.ar    1  UNL1        0.1675
     37 F           6.1259   -1.8828    0.0688 F       1  UNL1       -0.2016
     38 C           0.7054   -1.6115    0.5521 C.ar    1  UNL1       -0.0226
     39 C          -0.6284   -2.0314    0.6783 C.ar    1  UNL1        0.0502
     40 H          -4.4891   -3.4861   -0.6052 H       1  UNL1        0.0518
     41 H          -3.6493   -2.5409   -1.9504 H       1  UNL1        0.0518
     42 H          -5.9936   -2.5321    0.8344 H       1  UNL1        0.0622
     43 H          -7.4484   -0.6068    1.5107 H       1  UNL1        0.0654
     44 H          -6.4455    3.6004    0.5006 H       1  UNL1        0.0723
     45 H          -8.1924    3.5764    0.9935 H       1  UNL1        0.0723
     46 H          -7.9997    4.4187   -1.2197 H       1  UNL1        0.0649
     47 H          -7.0768    3.0067   -1.8595 H       1  UNL1        0.0649
     48 H          -5.3014    1.8635   -1.1277 H       1  UNL1        0.0654
     49 H          -3.9158    0.0557   -1.8174 H       1  UNL1        0.0622
     50 H          -1.6803   -1.3734   -2.4280 H       1  UNL1        0.0637
     51 H           0.6782   -0.6400   -2.6181 H       1  UNL1        0.0638
     52 H           2.9322    0.8288   -3.2760 H       1  UNL1        0.0444
     53 H           1.7113    1.8426   -2.3985 H       1  UNL1        0.0444
     54 H           3.4184    3.4032   -1.5632 H       1  UNL1        0.0295
     55 H           4.2908    2.8203   -3.0624 H       1  UNL1        0.0295
     56 H           5.1577    0.8789   -2.0255 H       1  UNL1        0.0514
     57 H           4.7003    2.6046    0.4820 H       1  UNL1        0.0713
     58 H           6.1366    2.5222   -0.5830 H       1  UNL1        0.0713
     59 H           6.8586    1.6505    2.8119 H       1  UNL1        0.0656
     60 H           7.9442    0.2006    4.4474 H       1  UNL1        0.0647
     61 H           7.2435   -3.1561    1.9896 H       1  UNL1        0.0676
     62 H           1.3354   -1.7030    1.4316 H       1  UNL1        0.0645
@<TRIPOS>BOND
     1     1     2    2
     2     2     3    1
     3     3     4    2
     4     3     5   am
     5     5     6    1
     6     6     7    1
     7     7     8   ar
     8     8     9   ar
     9     9    10   ar
    10    10    11    1
    11    11    12    1
    12    12    13    1
    13    13    14    1
    14    10    15   ar
    15    15    16   ar
    16     5    17    1
    17    17    18   ar
    18    18    19   ar
    19    19    20   ar
    20    20    21    1
    21    21    22    2
    22    21    23    2
    23    21    24    1
    24    24    25    1
    25    25    26    1
    26    26    27    1
    27    27    28    1
    28    28    29    1
    29    29    30    1
    30    30    31   ar
    31    31    32   ar
    32    32    33   ar
    33    33    34    1
    34    33    35   ar
    35    35    36   ar
    36    36    37    1
    37    20    38   ar
    38    38    39   ar
    39    39     2    1
    40    16     7   ar
    41    39    17   ar
    42    27    24    1
    43    36    30   ar
    44     6    40    1
    45     6    41    1
    46     8    42    1
    47     9    43    1
    48    12    44    1
    49    12    45    1
    50    13    46    1
    51    13    47    1
    52    15    48    1
    53    16    49    1
    54    18    50    1
    55    19    51    1
    56    25    52    1
    57    25    53    1
    58    26    54    1
    59    26    55    1
    60    27    56    1
    61    28    57    1
    62    28    58    1
    63    31    59    1
    64    32    60    1
    65    35    61    1
    66    38    62    1
