@<TRIPOS>MOLECULE
*****
 58 62 0 0 0
SMALL
GASTEIGER

@<TRIPOS>ATOM
      1 C           6.0725    2.8143   -1.2713 C.3     1  UNL1       -0.0063
      2 C           6.6309    2.0016   -0.1600 C.ar    1  UNL1        0.1068
      3 N           7.2807    2.4747    0.9334 N.ar    1  UNL1       -0.2409
      4 C           7.6440    1.4411    1.7275 C.ar    1  UNL1        0.0457
      5 C           7.1925    0.3152    1.0799 C.ar    1  UNL1        0.0246
      6 N           6.5718    0.6651   -0.0774 N.ar    1  UNL1       -0.3302
      7 C           5.9673   -0.2176   -1.0322 C.3     1  UNL1        0.0494
      8 C           4.5249   -0.4752   -0.7400 C.ar    1  UNL1       -0.0277
      9 C           4.2109   -1.5427    0.0766 C.ar    1  UNL1       -0.0563
     10 C           2.8704   -1.7939    0.3569 C.ar    1  UNL1       -0.0523
     11 C           1.8572   -1.0266   -0.1437 C.ar    1  UNL1        0.0006
     12 C           0.4312   -1.2869    0.1495 C.ar    1  UNL1        0.0769
     13 C           0.0236   -2.3274    0.9529 C.ar    1  UNL1       -0.0077
     14 C          -1.3195   -2.5463    1.2096 C.ar    1  UNL1        0.0999
     15 N          -1.9824   -3.4719    1.9452 N.ar    1  UNL1       -0.1712
     16 N          -3.2793   -3.2558    1.8747 N.ar    1  UNL1       -0.2732
     17 C          -4.2718   -4.0697    2.5502 C.3     1  UNL1        0.0302
     18 C          -3.5310   -2.1832    1.0936 C.ar    1  UNL1        0.0380
     19 C          -2.2887   -1.7339    0.6722 C.ar    1  UNL1        0.0812
     20 C          -1.8700   -0.6876   -0.1362 C.ar    1  UNL1        0.2265
     21 O          -2.6739    0.1741   -0.7218 O.3     1  UNL1       -0.4725
     22 C          -3.8976    0.6195   -0.9680 C.3     1  UNL1        0.1037
     23 C          -4.1609    0.4455   -2.4874 C.3     1  UNL1       -0.0274
     24 C          -4.1405    2.0969   -0.6487 C.3     1  UNL1        0.0196
     25 C          -5.5826    2.4530   -0.9835 C.3     1  UNL1        0.0182
     26 N          -6.3110    1.8445    0.1328 N.am    1  UNL1       -0.3149
     27 C          -5.4373    1.6757    1.2421 C.2     1  UNL1        0.2135
     28 O          -5.6684    1.1136    2.3519 O.2     1  UNL1       -0.2758
     29 C          -4.1401    2.3061    0.8514 C.3     1  UNL1        0.0315
     30 N          -0.5266   -0.5177   -0.3565 N.ar    1  UNL1       -0.2122
     31 C           2.1827    0.0351   -0.9568 C.ar    1  UNL1       -0.0523
     32 C           3.5203    0.3152   -1.2585 C.ar    1  UNL1       -0.0563
     33 H           6.0444    2.1853   -2.1802 H       1  UNL1        0.0307
     34 H           5.0259    3.0548   -1.0001 H       1  UNL1        0.0307
     35 H           6.6843    3.7167   -1.4749 H       1  UNL1        0.0307
     36 H           8.1725    1.4500    2.6697 H       1  UNL1        0.0845
     37 H           7.2905   -0.7144    1.3998 H       1  UNL1        0.0825
     38 H           6.0485    0.1481   -2.0758 H       1  UNL1        0.0542
     39 H           6.4949   -1.2113   -1.0082 H       1  UNL1        0.0542
     40 H           5.0008   -2.1598    0.4810 H       1  UNL1        0.0621
     41 H           2.6743   -2.6225    0.9875 H       1  UNL1        0.0624
     42 H           0.7497   -2.9927    1.3976 H       1  UNL1        0.0661
     43 H          -4.0512   -4.1457    3.6185 H       1  UNL1        0.0473
     44 H          -5.2979   -3.6890    2.3715 H       1  UNL1        0.0473
     45 H          -4.2184   -5.0797    2.0705 H       1  UNL1        0.0473
     46 H          -4.4763   -1.7501    0.8370 H       1  UNL1        0.0834
     47 H          -4.7446    0.0784   -0.5053 H       1  UNL1        0.0734
     48 H          -3.6461   -0.4932   -2.7786 H       1  UNL1        0.0265
     49 H          -5.2217    0.3081   -2.6949 H       1  UNL1        0.0265
     50 H          -3.6872    1.2647   -3.0532 H       1  UNL1        0.0265
     51 H          -3.4470    2.7531   -1.1813 H       1  UNL1        0.0356
     52 H          -5.7331    3.5327   -0.8945 H       1  UNL1        0.0466
     53 H          -5.9121    2.0739   -1.9472 H       1  UNL1        0.0466
     54 H          -7.3187    1.5733    0.1227 H       1  UNL1        0.1487
     55 H          -3.2811    1.8576    1.3532 H       1  UNL1        0.0363
     56 H          -4.2522    3.3897    1.0358 H       1  UNL1        0.0363
     57 H           1.4175    0.6723   -1.3780 H       1  UNL1        0.0624
     58 H           3.7848    1.1450   -1.8947 H       1  UNL1        0.0621
@<TRIPOS>BOND
     1     1     2    1
     2     2     3   ar
     3     3     4   ar
     4     4     5   ar
     5     5     6   ar
     6     6     7    1
     7     7     8    1
     8     8     9   ar
     9     9    10   ar
    10    10    11   ar
    11    11    12    1
    12    12    13   ar
    13    13    14   ar
    14    14    15   ar
    15    15    16   ar
    16    16    17    1
    17    16    18   ar
    18    18    19   ar
    19    19    20   ar
    20    20    21    1
    21    21    22    1
    22    22    23    1
    23    22    24    1
    24    24    25    1
    25    25    26    1
    26    26    27   am
    27    27    28    2
    28    27    29    1
    29    20    30   ar
    30    11    31   ar
    31    31    32   ar
    32     6     2   ar
    33    32     8   ar
    34    30    12   ar
    35    19    14   ar
    36    29    24    1
    37     1    33    1
    38     1    34    1
    39     1    35    1
    40     4    36    1
    41     5    37    1
    42     7    38    1
    43     7    39    1
    44     9    40    1
    45    10    41    1
    46    13    42    1
    47    17    43    1
    48    17    44    1
    49    17    45    1
    50    18    46    1
    51    22    47    1
    52    23    48    1
    53    23    49    1
    54    23    50    1
    55    24    51    1
    56    25    52    1
    57    25    53    1
    58    26    54    1
    59    29    55    1
    60    29    56    1
    61    31    57    1
    62    32    58    1
