
     RDKit          3D

 58 62  0  0  0  0  0  0  0  0999 V2000
    6.0725    2.8143   -1.2713 C   0  0  0  0  0  0  0  0  0  0  0  0
    6.6309    2.0016   -0.1600 C   0  0  0  0  0  0  0  0  0  0  0  0
    7.2807    2.4747    0.9334 N   0  0  0  0  0  0  0  0  0  0  0  0
    7.6440    1.4411    1.7275 C   0  0  0  0  0  0  0  0  0  0  0  0
    7.1925    0.3152    1.0799 C   0  0  0  0  0  0  0  0  0  0  0  0
    6.5718    0.6651   -0.0774 N   0  0  0  0  0  0  0  0  0  0  0  0
    5.9673   -0.2176   -1.0322 C   0  0  0  0  0  0  0  0  0  0  0  0
    4.5249   -0.4752   -0.7400 C   0  0  0  0  0  0  0  0  0  0  0  0
    4.2109   -1.5427    0.0766 C   0  0  0  0  0  0  0  0  0  0  0  0
    2.8704   -1.7939    0.3569 C   0  0  0  0  0  0  0  0  0  0  0  0
    1.8572   -1.0266   -0.1437 C   0  0  0  0  0  0  0  0  0  0  0  0
    0.4312   -1.2869    0.1495 C   0  0  0  0  0  0  0  0  0  0  0  0
    0.0236   -2.3274    0.9529 C   0  0  0  0  0  0  0  0  0  0  0  0
   -1.3195   -2.5463    1.2096 C   0  0  0  0  0  0  0  0  0  0  0  0
   -1.9824   -3.4719    1.9452 N   0  0  0  0  0  0  0  0  0  0  0  0
   -3.2793   -3.2558    1.8747 N   0  0  0  0  0  0  0  0  0  0  0  0
   -4.2718   -4.0697    2.5502 C   0  0  0  0  0  0  0  0  0  0  0  0
   -3.5310   -2.1832    1.0936 C   0  0  0  0  0  0  0  0  0  0  0  0
   -2.2887   -1.7339    0.6722 C   0  0  0  0  0  0  0  0  0  0  0  0
   -1.8700   -0.6876   -0.1362 C   0  0  0  0  0  0  0  0  0  0  0  0
   -2.6739    0.1741   -0.7218 O   0  0  0  0  0  0  0  0  0  0  0  0
   -3.8976    0.6195   -0.9680 C   0  0  2  0  0  0  0  0  0  0  0  0
   -4.1609    0.4455   -2.4874 C   0  0  0  0  0  0  0  0  0  0  0  0
   -4.1405    2.0969   -0.6487 C   0  0  1  0  0  0  0  0  0  0  0  0
   -5.5826    2.4530   -0.9835 C   0  0  0  0  0  0  0  0  0  0  0  0
   -6.3110    1.8445    0.1328 N   0  0  0  0  0  0  0  0  0  0  0  0
   -5.4373    1.6757    1.2421 C   0  0  0  0  0  0  0  0  0  0  0  0
   -5.6684    1.1136    2.3519 O   0  0  0  0  0  0  0  0  0  0  0  0
   -4.1401    2.3061    0.8514 C   0  0  0  0  0  0  0  0  0  0  0  0
   -0.5266   -0.5177   -0.3565 N   0  0  0  0  0  0  0  0  0  0  0  0
    2.1827    0.0351   -0.9568 C   0  0  0  0  0  0  0  0  0  0  0  0
    3.5203    0.3152   -1.2585 C   0  0  0  0  0  0  0  0  0  0  0  0
    6.0444    2.1853   -2.1802 H   0  0  0  0  0  0  0  0  0  0  0  0
    5.0259    3.0548   -1.0001 H   0  0  0  0  0  0  0  0  0  0  0  0
    6.6843    3.7167   -1.4749 H   0  0  0  0  0  0  0  0  0  0  0  0
    8.1725    1.4500    2.6697 H   0  0  0  0  0  0  0  0  0  0  0  0
    7.2905   -0.7144    1.3998 H   0  0  0  0  0  0  0  0  0  0  0  0
    6.0485    0.1481   -2.0758 H   0  0  0  0  0  0  0  0  0  0  0  0
    6.4949   -1.2113   -1.0082 H   0  0  0  0  0  0  0  0  0  0  0  0
    5.0008   -2.1598    0.4810 H   0  0  0  0  0  0  0  0  0  0  0  0
    2.6743   -2.6225    0.9875 H   0  0  0  0  0  0  0  0  0  0  0  0
    0.7497   -2.9927    1.3976 H   0  0  0  0  0  0  0  0  0  0  0  0
   -4.0512   -4.1457    3.6185 H   0  0  0  0  0  0  0  0  0  0  0  0
   -5.2979   -3.6890    2.3715 H   0  0  0  0  0  0  0  0  0  0  0  0
   -4.2184   -5.0797    2.0705 H   0  0  0  0  0  0  0  0  0  0  0  0
   -4.4763   -1.7501    0.8370 H   0  0  0  0  0  0  0  0  0  0  0  0
   -4.7446    0.0784   -0.5053 H   0  0  0  0  0  0  0  0  0  0  0  0
   -3.6461   -0.4932   -2.7786 H   0  0  0  0  0  0  0  0  0  0  0  0
   -5.2217    0.3081   -2.6949 H   0  0  0  0  0  0  0  0  0  0  0  0
   -3.6872    1.2647   -3.0532 H   0  0  0  0  0  0  0  0  0  0  0  0
   -3.4470    2.7531   -1.1813 H   0  0  0  0  0  0  0  0  0  0  0  0
   -5.7331    3.5327   -0.8945 H   0  0  0  0  0  0  0  0  0  0  0  0
   -5.9121    2.0739   -1.9472 H   0  0  0  0  0  0  0  0  0  0  0  0
   -7.3187    1.5733    0.1227 H   0  0  0  0  0  0  0  0  0  0  0  0
   -3.2811    1.8576    1.3532 H   0  0  0  0  0  0  0  0  0  0  0  0
   -4.2522    3.3897    1.0358 H   0  0  0  0  0  0  0  0  0  0  0  0
    1.4175    0.6723   -1.3780 H   0  0  0  0  0  0  0  0  0  0  0  0
    3.7848    1.1450   -1.8947 H   0  0  0  0  0  0  0  0  0  0  0  0
  1  2  1  0
  2  3  2  0
  3  4  1  0
  4  5  2  0
  5  6  1  0
  6  7  1  0
  7  8  1  0
  8  9  2  0
  9 10  1  0
 10 11  2  0
 11 12  1  0
 12 13  2  0
 13 14  1  0
 14 15  2  0
 15 16  1  0
 16 17  1  0
 16 18  1  0
 18 19  2  0
 19 20  1  0
 20 21  1  0
 21 22  1  0
 22 23  1  0
 22 24  1  0
 24 25  1  0
 25 26  1  0
 26 27  1  0
 27 28  2  0
 27 29  1  0
 20 30  2  0
 11 31  1  0
 31 32  2  0
  6  2  1  0
 32  8  1  0
 30 12  1  0
 19 14  1  0
 29 24  1  0
  1 33  1  0
  1 34  1  0
  1 35  1  0
  4 36  1  0
  5 37  1  0
  7 38  1  0
  7 39  1  0
  9 40  1  0
 10 41  1  0
 13 42  1  0
 17 43  1  0
 17 44  1  0
 17 45  1  0
 18 46  1  0
 22 47  1  1
 23 48  1  0
 23 49  1  0
 23 50  1  0
 24 51  1  6
 25 52  1  0
 25 53  1  0
 26 54  1  0
 29 55  1  0
 29 56  1  0
 31 57  1  0
 32 58  1  0
M  END
$$$$
