@<TRIPOS>MOLECULE
*****
 45 45 0 0 0
SMALL
GASTEIGER

@<TRIPOS>ATOM
      1 C          -4.8624   -2.9549   -0.7344 C.3     1  UNL1       -0.0653
      2 C          -3.6980   -2.5658    0.1852 C.3     1  UNL1       -0.0559
      3 C          -2.8691   -1.5829   -0.5771 C.3     1  UNL1       -0.0533
      4 C          -1.6548   -1.0879    0.2018 C.3     1  UNL1       -0.0521
      5 C          -0.9598   -0.1186   -0.7304 C.3     1  UNL1       -0.0408
      6 C           0.2703    0.4884   -0.1530 C.3     1  UNL1        0.0113
      7 C           1.2788   -0.5689    0.1943 C.3     1  UNL1       -0.0408
      8 C           2.5274    0.0572    0.7807 C.3     1  UNL1       -0.0521
      9 C           3.5397   -1.0113    1.1318 C.3     1  UNL1       -0.0533
     10 C           3.9678   -1.8247   -0.0652 C.3     1  UNL1       -0.0559
     11 C           4.5884   -0.8512   -1.0563 C.3     1  UNL1       -0.0653
     12 S          -0.1696    1.5145    1.2674 S.3     1  UNL1       -0.1007
     13 C          -1.1288    2.9197    0.7901 C.ar    1  UNL1        0.1262
     14 C          -0.7182    4.1814    0.4142 C.ar    1  UNL1        0.2022
     15 N          -1.8201    4.8804    0.1491 N.ar    1  UNL1       -0.1218
     16 N          -2.8733    4.0898    0.3510 N.ar    1  UNL1       -0.0666
     17 N          -2.4775    2.8980    0.7394 N.ar    1  UNL1       -0.2505
     18 C           0.6820    4.6298    0.3339 C.2     1  UNL1        0.3598
     19 O           1.7044    3.7728    0.6444 O.3     1  UNL1       -0.4760
     20 O           1.0261    5.7918   -0.0139 O.2     1  UNL1       -0.2432
     21 H          -5.4052   -3.8192   -0.3385 H       1  UNL1        0.0230
     22 H          -5.4852   -2.0394   -0.8359 H       1  UNL1        0.0230
     23 H          -4.3936   -3.1435   -1.7304 H       1  UNL1        0.0230
     24 H          -3.1464   -3.5106    0.4125 H       1  UNL1        0.0263
     25 H          -4.0586   -2.0859    1.1196 H       1  UNL1        0.0263
     26 H          -2.4946   -2.0285   -1.5270 H       1  UNL1        0.0265
     27 H          -3.5108   -0.7019   -0.7956 H       1  UNL1        0.0265
     28 H          -2.0540   -0.5997    1.1096 H       1  UNL1        0.0266
     29 H          -1.0398   -1.9562    0.4691 H       1  UNL1        0.0266
     30 H          -0.7426   -0.7079   -1.6575 H       1  UNL1        0.0276
     31 H          -1.7047    0.6605   -0.9888 H       1  UNL1        0.0276
     32 H           0.7314    1.1324   -0.9260 H       1  UNL1        0.0416
     33 H           1.5765   -1.0603   -0.7569 H       1  UNL1        0.0276
     34 H           0.8769   -1.3569    0.8495 H       1  UNL1        0.0276
     35 H           2.2522    0.5658    1.7211 H       1  UNL1        0.0266
     36 H           2.9843    0.7853    0.1080 H       1  UNL1        0.0266
     37 H           3.1338   -1.6726    1.9355 H       1  UNL1        0.0265
     38 H           4.4431   -0.5223    1.5642 H       1  UNL1        0.0265
     39 H           4.7798   -2.4955    0.2708 H       1  UNL1        0.0263
     40 H           3.1219   -2.3677   -0.5069 H       1  UNL1        0.0263
     41 H           5.1290   -0.0356   -0.5142 H       1  UNL1        0.0230
     42 H           5.2887   -1.3488   -1.7386 H       1  UNL1        0.0230
     43 H           3.8172   -0.3521   -1.6698 H       1  UNL1        0.0230
     44 H          -3.1101    2.0774    0.9685 H       1  UNL1        0.1913
     45 H           2.6572    3.9258    0.2975 H       1  UNL1        0.2955
@<TRIPOS>BOND
     1     1     2    1
     2     2     3    1
     3     3     4    1
     4     4     5    1
     5     5     6    1
     6     6     7    1
     7     7     8    1
     8     8     9    1
     9     9    10    1
    10    10    11    1
    11     6    12    1
    12    12    13    1
    13    13    14   ar
    14    14    15   ar
    15    15    16   ar
    16    16    17   ar
    17    14    18    1
    18    18    19    1
    19    18    20    2
    20    17    13   ar
    21     1    21    1
    22     1    22    1
    23     1    23    1
    24     2    24    1
    25     2    25    1
    26     3    26    1
    27     3    27    1
    28     4    28    1
    29     4    29    1
    30     5    30    1
    31     5    31    1
    32     6    32    1
    33     7    33    1
    34     7    34    1
    35     8    35    1
    36     8    36    1
    37     9    37    1
    38     9    38    1
    39    10    39    1
    40    10    40    1
    41    11    41    1
    42    11    42    1
    43    11    43    1
    44    17    44    1
    45    19    45    1
