
     RDKit          3D

 45 45  0  0  0  0  0  0  0  0999 V2000
   -4.8624   -2.9549   -0.7344 C   0  0  0  0  0  0  0  0  0  0  0  0
   -3.6980   -2.5658    0.1852 C   0  0  0  0  0  0  0  0  0  0  0  0
   -2.8691   -1.5829   -0.5771 C   0  0  0  0  0  0  0  0  0  0  0  0
   -1.6548   -1.0879    0.2018 C   0  0  0  0  0  0  0  0  0  0  0  0
   -0.9598   -0.1186   -0.7304 C   0  0  0  0  0  0  0  0  0  0  0  0
    0.2703    0.4884   -0.1530 C   0  0  0  0  0  0  0  0  0  0  0  0
    1.2788   -0.5689    0.1943 C   0  0  0  0  0  0  0  0  0  0  0  0
    2.5274    0.0572    0.7807 C   0  0  0  0  0  0  0  0  0  0  0  0
    3.5397   -1.0113    1.1318 C   0  0  0  0  0  0  0  0  0  0  0  0
    3.9678   -1.8247   -0.0652 C   0  0  0  0  0  0  0  0  0  0  0  0
    4.5884   -0.8512   -1.0563 C   0  0  0  0  0  0  0  0  0  0  0  0
   -0.1696    1.5145    1.2674 S   0  0  0  0  0  0  0  0  0  0  0  0
   -1.1288    2.9197    0.7901 C   0  0  0  0  0  0  0  0  0  0  0  0
   -0.7182    4.1814    0.4142 C   0  0  0  0  0  0  0  0  0  0  0  0
   -1.8201    4.8804    0.1491 N   0  0  0  0  0  0  0  0  0  0  0  0
   -2.8733    4.0898    0.3510 N   0  0  0  0  0  0  0  0  0  0  0  0
   -2.4775    2.8980    0.7394 N   0  0  0  0  0  0  0  0  0  0  0  0
    0.6820    4.6298    0.3339 C   0  0  0  0  0  0  0  0  0  0  0  0
    1.7044    3.7728    0.6444 O   0  0  0  0  0  0  0  0  0  0  0  0
    1.0261    5.7918   -0.0139 O   0  0  0  0  0  0  0  0  0  0  0  0
   -5.4052   -3.8192   -0.3385 H   0  0  0  0  0  0  0  0  0  0  0  0
   -5.4852   -2.0394   -0.8359 H   0  0  0  0  0  0  0  0  0  0  0  0
   -4.3936   -3.1435   -1.7304 H   0  0  0  0  0  0  0  0  0  0  0  0
   -3.1464   -3.5106    0.4125 H   0  0  0  0  0  0  0  0  0  0  0  0
   -4.0586   -2.0859    1.1196 H   0  0  0  0  0  0  0  0  0  0  0  0
   -2.4946   -2.0285   -1.5270 H   0  0  0  0  0  0  0  0  0  0  0  0
   -3.5108   -0.7019   -0.7956 H   0  0  0  0  0  0  0  0  0  0  0  0
   -2.0540   -0.5997    1.1096 H   0  0  0  0  0  0  0  0  0  0  0  0
   -1.0398   -1.9562    0.4691 H   0  0  0  0  0  0  0  0  0  0  0  0
   -0.7426   -0.7079   -1.6575 H   0  0  0  0  0  0  0  0  0  0  0  0
   -1.7047    0.6605   -0.9888 H   0  0  0  0  0  0  0  0  0  0  0  0
    0.7314    1.1324   -0.9260 H   0  0  0  0  0  0  0  0  0  0  0  0
    1.5765   -1.0603   -0.7569 H   0  0  0  0  0  0  0  0  0  0  0  0
    0.8769   -1.3569    0.8495 H   0  0  0  0  0  0  0  0  0  0  0  0
    2.2522    0.5658    1.7211 H   0  0  0  0  0  0  0  0  0  0  0  0
    2.9843    0.7853    0.1080 H   0  0  0  0  0  0  0  0  0  0  0  0
    3.1338   -1.6726    1.9355 H   0  0  0  0  0  0  0  0  0  0  0  0
    4.4431   -0.5223    1.5642 H   0  0  0  0  0  0  0  0  0  0  0  0
    4.7798   -2.4955    0.2708 H   0  0  0  0  0  0  0  0  0  0  0  0
    3.1219   -2.3677   -0.5069 H   0  0  0  0  0  0  0  0  0  0  0  0
    5.1290   -0.0356   -0.5142 H   0  0  0  0  0  0  0  0  0  0  0  0
    5.2887   -1.3488   -1.7386 H   0  0  0  0  0  0  0  0  0  0  0  0
    3.8172   -0.3521   -1.6698 H   0  0  0  0  0  0  0  0  0  0  0  0
   -3.1101    2.0774    0.9685 H   0  0  0  0  0  0  0  0  0  0  0  0
    2.6572    3.9258    0.2975 H   0  0  0  0  0  0  0  0  0  0  0  0
  1  2  1  0
  2  3  1  0
  3  4  1  0
  4  5  1  0
  5  6  1  0
  6  7  1  0
  7  8  1  0
  8  9  1  0
  9 10  1  0
 10 11  1  0
  6 12  1  0
 12 13  1  0
 13 14  2  0
 14 15  1  0
 15 16  2  0
 16 17  1  0
 14 18  1  0
 18 19  1  0
 18 20  2  0
 17 13  1  0
  1 21  1  0
  1 22  1  0
  1 23  1  0
  2 24  1  0
  2 25  1  0
  3 26  1  0
  3 27  1  0
  4 28  1  0
  4 29  1  0
  5 30  1  0
  5 31  1  0
  6 32  1  0
  7 33  1  0
  7 34  1  0
  8 35  1  0
  8 36  1  0
  9 37  1  0
  9 38  1  0
 10 39  1  0
 10 40  1  0
 11 41  1  0
 11 42  1  0
 11 43  1  0
 17 44  1  0
 19 45  1  0
M  END
$$$$
