@<TRIPOS>MOLECULE
*****
 48 48 0 0 0
SMALL
GASTEIGER

@<TRIPOS>ATOM
      1 C          -3.0205   -0.8997   -0.8471 C.3     1  UNL1        0.1857
      2 O          -3.0908   -0.0643   -1.9597 O.3     1  UNL1       -0.3649
      3 O          -4.2733   -1.3842   -0.5211 O.3     1  UNL1       -0.3407
      4 C          -5.1301   -0.5024    0.0636 C.3     1  UNL1        0.1130
      5 C          -6.2854   -0.0605   -0.7789 C.3     1  UNL1        0.0730
      6 O          -5.9254    0.5729   -1.9476 O.3     1  UNL1       -0.3924
      7 C          -4.4302    0.7090    0.6592 C.3     1  UNL1        0.1119
      8 O          -5.2557    1.4129    1.5005 O.3     1  UNL1       -0.3865
      9 C          -3.2282    0.1194    1.3977 C.3     1  UNL1        0.1143
     10 O          -2.7103    1.0900    2.2455 O.3     1  UNL1       -0.3864
     11 C          -2.2615   -0.2888    0.2991 C.3     1  UNL1        0.1373
     12 O          -1.2435   -1.0816    0.7504 O.3     1  UNL1       -0.3689
     13 C           0.0300   -0.5383    0.6260 C.3     1  UNL1        0.0484
     14 C           0.4315   -0.2223   -0.7733 C.3     1  UNL1       -0.0294
     15 C           1.8228    0.3640   -0.7686 C.3     1  UNL1       -0.0510
     16 C           2.8745   -0.5309   -0.2075 C.3     1  UNL1       -0.0530
     17 C           4.2221    0.2047   -0.2801 C.3     1  UNL1       -0.0531
     18 C           5.3258   -0.6648    0.2795 C.3     1  UNL1       -0.0533
     19 C           6.6713    0.0613    0.2105 C.3     1  UNL1       -0.0559
     20 C           6.9683    0.3805   -1.2286 C.3     1  UNL1       -0.0653
     21 H          -2.4347   -1.8012   -1.1754 H       1  UNL1        0.0936
     22 H          -2.2134   -0.1239   -2.4152 H       1  UNL1        0.2126
     23 H          -5.5846   -1.0313    0.9502 H       1  UNL1        0.0647
     24 H          -6.9788   -0.8988   -0.9978 H       1  UNL1        0.0584
     25 H          -6.8976    0.6276   -0.1257 H       1  UNL1        0.0584
     26 H          -5.5151    1.4440   -1.6989 H       1  UNL1        0.2095
     27 H          -4.0610    1.3834   -0.1301 H       1  UNL1        0.0647
     28 H          -4.8506    2.3182    1.6182 H       1  UNL1        0.2100
     29 H          -3.5800   -0.7930    1.9104 H       1  UNL1        0.0648
     30 H          -2.5511    0.6147    3.1156 H       1  UNL1        0.2100
     31 H          -1.8441    0.6634   -0.0862 H       1  UNL1        0.0674
     32 H           0.7180   -1.3703    0.9632 H       1  UNL1        0.0560
     33 H           0.1694    0.3146    1.2888 H       1  UNL1        0.0560
     34 H           0.4487   -1.1346   -1.4064 H       1  UNL1        0.0287
     35 H          -0.2041    0.5338   -1.2796 H       1  UNL1        0.0287
     36 H           1.8393    1.3316   -0.2081 H       1  UNL1        0.0266
     37 H           2.1487    0.6311   -1.8089 H       1  UNL1        0.0266
     38 H           2.6483   -0.7934    0.8527 H       1  UNL1        0.0265
     39 H           2.9963   -1.4536   -0.8107 H       1  UNL1        0.0265
     40 H           4.1317    1.1406    0.2959 H       1  UNL1        0.0265
     41 H           4.4164    0.4533   -1.3328 H       1  UNL1        0.0265
     42 H           5.4128   -1.5918   -0.2948 H       1  UNL1        0.0265
     43 H           5.0878   -0.9098    1.3358 H       1  UNL1        0.0265
     44 H           6.6041    1.0314    0.7808 H       1  UNL1        0.0263
     45 H           7.4256   -0.6029    0.6470 H       1  UNL1        0.0263
     46 H           6.6077    1.3764   -1.5069 H       1  UNL1        0.0230
     47 H           6.4973   -0.3998   -1.8875 H       1  UNL1        0.0230
     48 H           8.0716    0.3633   -1.4397 H       1  UNL1        0.0230
@<TRIPOS>BOND
     1     1     2    1
     2     1     3    1
     3     3     4    1
     4     4     5    1
     5     5     6    1
     6     4     7    1
     7     7     8    1
     8     7     9    1
     9     9    10    1
    10     9    11    1
    11    11    12    1
    12    12    13    1
    13    13    14    1
    14    14    15    1
    15    15    16    1
    16    16    17    1
    17    17    18    1
    18    18    19    1
    19    19    20    1
    20    11     1    1
    21     1    21    1
    22     2    22    1
    23     4    23    1
    24     5    24    1
    25     5    25    1
    26     6    26    1
    27     7    27    1
    28     8    28    1
    29     9    29    1
    30    10    30    1
    31    11    31    1
    32    13    32    1
    33    13    33    1
    34    14    34    1
    35    14    35    1
    36    15    36    1
    37    15    37    1
    38    16    38    1
    39    16    39    1
    40    17    40    1
    41    17    41    1
    42    18    42    1
    43    18    43    1
    44    19    44    1
    45    19    45    1
    46    20    46    1
    47    20    47    1
    48    20    48    1
