@<TRIPOS>MOLECULE
*****
 77 79 0 0 0
SMALL
GASTEIGER

@<TRIPOS>ATOM
      1 C          -6.7838    2.5868    1.6241 C.3     1  UNL1       -0.0497
      2 C          -5.5258    1.7857    2.0218 C.3     1  UNL1        0.0048
      3 C          -4.5921    2.8019    2.6481 C.3     1  UNL1       -0.0497
      4 N          -4.9727    1.1511    0.8388 N.3     1  UNL1       -0.3000
      5 C          -6.0922    0.4294    0.1729 C.3     1  UNL1       -0.0122
      6 C          -3.9937    0.1590    1.0540 C.3     1  UNL1        0.0108
      7 C          -2.7565    0.5154    1.7694 C.3     1  UNL1       -0.0356
      8 C          -1.7882   -0.6092    1.9190 C.3     1  UNL1       -0.0326
      9 C          -1.6933   -1.5716    0.8116 C.3     1  UNL1        0.0304
     10 N          -0.4166   -1.5633    0.1254 N.am    1  UNL1       -0.2965
     11 C           0.6061   -2.6153    0.0315 C.3     1  UNL1        0.0172
     12 C           1.0950   -2.4624   -1.3889 C.3     1  UNL1       -0.0101
     13 C           1.1549   -0.9632   -1.5595 C.3     1  UNL1        0.1013
     14 N           2.4688   -0.4420   -1.2695 N.am    1  UNL1       -0.2987
     15 C           3.2086    0.2668   -2.2456 C.2     1  UNL1        0.2630
     16 O           2.6540    0.4135   -3.3742 O.2     1  UNL1       -0.2685
     17 C           4.5448    0.8157   -2.0079 C.ar    1  UNL1        0.1257
     18 C           5.1920    1.4904   -3.0340 C.ar    1  UNL1       -0.0312
     19 C           6.4417    2.0100   -2.8336 C.ar    1  UNL1       -0.0579
     20 C           7.0453    1.8520   -1.5976 C.ar    1  UNL1       -0.0398
     21 C           6.3974    1.1793   -0.5783 C.ar    1  UNL1        0.0475
     22 C           7.0685    1.0209    0.7439 C.3     1  UNL1        0.0045
     23 C           6.6750    2.2117    1.5966 C.3     1  UNL1       -0.0546
     24 C           6.6621   -0.2512    1.4334 C.3     1  UNL1       -0.0546
     25 C           8.5858    1.0057    0.5541 C.3     1  UNL1       -0.0546
     26 N           5.1768    0.6932   -0.8330 N.ar    1  UNL1       -0.2465
     27 C           0.1085   -0.4826   -0.6256 C.2     1  UNL1        0.2362
     28 O          -0.2480    0.7137   -0.5283 O.2     1  UNL1       -0.2736
     29 C          -2.8559   -1.5979   -0.1595 C.3     1  UNL1       -0.0016
     30 C          -2.4615   -2.2167   -1.4502 C.3     1  UNL1        0.0700
     31 S          -3.7727   -2.2759   -2.6260 S.O2    1  UNL1       -0.0335
     32 C          -5.1165   -3.2136   -1.8876 C.3     1  UNL1        0.0545
     33 O          -3.2701   -3.1119   -3.8173 O.2     1  UNL1       -0.1746
     34 O          -4.1977   -0.9597   -3.1411 O.2     1  UNL1       -0.1746
     35 C          -3.5430   -0.2963   -0.3535 C.3     1  UNL1       -0.0313
     36 H          -6.7888    3.5948    2.0844 H       1  UNL1        0.0245
     37 H          -7.7032    2.0858    2.0391 H       1  UNL1        0.0245
     38 H          -6.8517    2.7199    0.5408 H       1  UNL1        0.0245
     39 H          -5.8457    1.0236    2.7230 H       1  UNL1        0.0457
     40 H          -3.7037    3.0299    2.0478 H       1  UNL1        0.0245
     41 H          -5.0988    3.8169    2.7567 H       1  UNL1        0.0245
     42 H          -4.3603    2.5604    3.7279 H       1  UNL1        0.0245
     43 H          -6.0043   -0.6635    0.3086 H       1  UNL1        0.0391
     44 H          -6.1282    0.6365   -0.9000 H       1  UNL1        0.0391
     45 H          -7.0640    0.6942    0.6847 H       1  UNL1        0.0391
     46 H          -4.4527   -0.7488    1.5075 H       1  UNL1        0.0463
     47 H          -3.0009    0.8837    2.7852 H       1  UNL1        0.0281
     48 H          -2.2451    1.3434    1.2454 H       1  UNL1        0.0281
     49 H          -0.7678   -0.1418    2.0576 H       1  UNL1        0.0284
     50 H          -1.9781   -1.0954    2.9219 H       1  UNL1        0.0284
     51 H          -1.7157   -2.6060    1.2902 H       1  UNL1        0.0504
     52 H           0.1139   -3.6249    0.0664 H       1  UNL1        0.0465
     53 H           1.4035   -2.4997    0.7627 H       1  UNL1        0.0465
     54 H           2.0905   -2.9297   -1.5273 H       1  UNL1        0.0303
     55 H           0.3535   -2.8874   -2.0895 H       1  UNL1        0.0303
     56 H           0.8368   -0.7199   -2.6003 H       1  UNL1        0.0595
     57 H           2.8833   -0.5846   -0.3317 H       1  UNL1        0.1498
     58 H           4.6769    1.5803   -3.9657 H       1  UNL1        0.0640
     59 H           6.9467    2.5352   -3.6298 H       1  UNL1        0.0619
     60 H           8.0347    2.2710   -1.4608 H       1  UNL1        0.0636
     61 H           5.5962    2.4201    1.3678 H       1  UNL1        0.0239
     62 H           7.2565    3.1186    1.3227 H       1  UNL1        0.0239
     63 H           6.7902    1.9571    2.6667 H       1  UNL1        0.0239
     64 H           6.7502   -0.1300    2.5497 H       1  UNL1        0.0239
     65 H           5.6023   -0.4722    1.1965 H       1  UNL1        0.0239
     66 H           7.2639   -1.1361    1.0864 H       1  UNL1        0.0239
     67 H           9.0177    1.9929    0.7296 H       1  UNL1        0.0239
     68 H           9.0796    0.2696    1.2223 H       1  UNL1        0.0239
     69 H           8.8214    0.6637   -0.4840 H       1  UNL1        0.0239
     70 H          -3.6419   -2.2831    0.2976 H       1  UNL1        0.0335
     71 H          -2.0763   -3.2546   -1.3490 H       1  UNL1        0.0503
     72 H          -1.6575   -1.5919   -1.9100 H       1  UNL1        0.0503
     73 H          -4.7473   -4.2653   -1.7709 H       1  UNL1        0.0464
     74 H          -6.0168   -3.1808   -2.5262 H       1  UNL1        0.0464
     75 H          -5.2838   -2.8267   -0.8640 H       1  UNL1        0.0464
     76 H          -2.9441    0.4526   -0.8625 H       1  UNL1        0.0284
     77 H          -4.4466   -0.4771   -0.9746 H       1  UNL1        0.0284
@<TRIPOS>BOND
     1     1     2    1
     2     2     3    1
     3     2     4    1
     4     4     5    1
     5     4     6    1
     6     6     7    1
     7     7     8    1
     8     8     9    1
     9     9    10    1
    10    10    11    1
    11    11    12    1
    12    12    13    1
    13    13    14    1
    14    14    15   am
    15    15    16    2
    16    15    17    1
    17    17    18   ar
    18    18    19   ar
    19    19    20   ar
    20    20    21   ar
    21    21    22    1
    22    22    23    1
    23    22    24    1
    24    22    25    1
    25    21    26   ar
    26    13    27    1
    27    27    28    2
    28     9    29    1
    29    29    30    1
    30    30    31    1
    31    31    32    1
    32    31    33    2
    33    31    34    2
    34    29    35    1
    35    35     6    1
    36    27    10   am
    37    26    17   ar
    38     1    36    1
    39     1    37    1
    40     1    38    1
    41     2    39    1
    42     3    40    1
    43     3    41    1
    44     3    42    1
    45     5    43    1
    46     5    44    1
    47     5    45    1
    48     6    46    1
    49     7    47    1
    50     7    48    1
    51     8    49    1
    52     8    50    1
    53     9    51    1
    54    11    52    1
    55    11    53    1
    56    12    54    1
    57    12    55    1
    58    13    56    1
    59    14    57    1
    60    18    58    1
    61    19    59    1
    62    20    60    1
    63    23    61    1
    64    23    62    1
    65    23    63    1
    66    24    64    1
    67    24    65    1
    68    24    66    1
    69    25    67    1
    70    25    68    1
    71    25    69    1
    72    29    70    1
    73    30    71    1
    74    30    72    1
    75    32    73    1
    76    32    74    1
    77    32    75    1
    78    35    76    1
    79    35    77    1
