@<TRIPOS>MOLECULE
*****
 37 40 0 0 0
SMALL
GASTEIGER

@<TRIPOS>ATOM
      1 O          -3.7205    1.7429   -1.6687 O.2     1  UNL1       -0.2490
      2 C          -3.8543    2.2242   -0.5173 C.2     1  UNL1        0.3247
      3 O          -4.7046    3.3439   -0.4215 O.3     1  UNL1       -0.4794
      4 C          -3.1651    1.6657    0.6947 C.3     1  UNL1        0.1202
      5 N          -2.3394    0.5364    0.2495 N.ar    1  UNL1       -0.3356
      6 C          -1.0843    0.5740   -0.2138 C.ar    1  UNL1        0.0099
      7 C          -0.6298   -0.6622   -0.5675 C.ar    1  UNL1       -0.0158
      8 C           0.6227   -1.1209   -1.1442 C.3     1  UNL1        0.0233
      9 C           1.8207   -0.3775   -0.9017 C.ar    1  UNL1        0.0841
     10 N           2.9261   -0.6930   -0.3309 N.ar    1  UNL1       -0.2406
     11 C           3.9388    0.0872   -0.1815 C.ar    1  UNL1        0.1192
     12 C           5.1893   -0.1882    0.4074 C.ar    1  UNL1        0.1849
     13 F           5.4321   -1.4395    0.9331 F       1  UNL1       -0.2002
     14 C           6.1970    0.7247    0.4888 C.ar    1  UNL1        0.1633
     15 F           7.4014    0.3618    1.0857 F       1  UNL1       -0.2023
     16 C           6.0526    1.9935   -0.0064 C.ar    1  UNL1        0.0129
     17 C           4.8322    2.3290   -0.6057 C.ar    1  UNL1        0.1420
     18 F           4.5741    3.5356   -1.1243 F       1  UNL1       -0.2042
     19 C           3.8456    1.3868   -0.6707 C.ar    1  UNL1        0.0773
     20 S           2.1650    1.3306   -1.3510 S.2     1  UNL1       -0.0688
     21 C          -1.6960   -1.5209   -0.2941 C.ar    1  UNL1        0.0048
     22 C          -1.8636   -2.8826   -0.4369 C.ar    1  UNL1       -0.0339
     23 C          -3.0401   -3.5216   -0.0969 C.ar    1  UNL1        0.0417
     24 CL         -3.2218   -5.2513   -0.2965 Cl      1  UNL1       -0.0835
     25 C          -4.0509   -2.7283    0.3970 C.ar    1  UNL1       -0.0414
     26 C          -3.9024   -1.3656    0.5476 C.ar    1  UNL1       -0.0362
     27 C          -2.7173   -0.7353    0.2034 C.ar    1  UNL1        0.0499
     28 H          -5.3282    3.5829   -1.2035 H       1  UNL1        0.2951
     29 H          -3.9676    1.3077    1.3844 H       1  UNL1        0.0607
     30 H          -2.5544    2.4002    1.1988 H       1  UNL1        0.0607
     31 H          -0.4946    1.4724   -0.2990 H       1  UNL1        0.0812
     32 H           0.8083   -2.1729   -0.7609 H       1  UNL1        0.0383
     33 H           0.4806   -1.2718   -2.2419 H       1  UNL1        0.0383
     34 H           6.8345    2.7124    0.0575 H       1  UNL1        0.0676
     35 H          -1.0526   -3.4550   -0.8214 H       1  UNL1        0.0639
     36 H          -5.0138   -3.1715    0.6828 H       1  UNL1        0.0633
     37 H          -4.7197   -0.7539    0.9422 H       1  UNL1        0.0639
@<TRIPOS>BOND
     1     1     2    2
     2     2     3    1
     3     2     4    1
     4     4     5    1
     5     5     6   ar
     6     6     7   ar
     7     7     8    1
     8     8     9    1
     9     9    10   ar
    10    10    11   ar
    11    11    12   ar
    12    12    13    1
    13    12    14   ar
    14    14    15    1
    15    14    16   ar
    16    16    17   ar
    17    17    18    1
    18    17    19   ar
    19    19    20   ar
    20     7    21   ar
    21    21    22   ar
    22    22    23   ar
    23    23    24    1
    24    23    25   ar
    25    25    26   ar
    26    26    27   ar
    27    27     5   ar
    28    20     9   ar
    29    27    21   ar
    30    19    11   ar
    31     3    28    1
    32     4    29    1
    33     4    30    1
    34     6    31    1
    35     8    32    1
    36     8    33    1
    37    16    34    1
    38    22    35    1
    39    25    36    1
    40    26    37    1
