
     RDKit          3D

 37 40  0  0  0  0  0  0  0  0999 V2000
   -3.7205    1.7429   -1.6687 O   0  0  0  0  0  0  0  0  0  0  0  0
   -3.8543    2.2242   -0.5173 C   0  0  0  0  0  0  0  0  0  0  0  0
   -4.7046    3.3439   -0.4215 O   0  0  0  0  0  0  0  0  0  0  0  0
   -3.1651    1.6657    0.6947 C   0  0  0  0  0  0  0  0  0  0  0  0
   -2.3394    0.5364    0.2495 N   0  0  0  0  0  0  0  0  0  0  0  0
   -1.0843    0.5740   -0.2138 C   0  0  0  0  0  0  0  0  0  0  0  0
   -0.6298   -0.6622   -0.5675 C   0  0  0  0  0  0  0  0  0  0  0  0
    0.6227   -1.1209   -1.1442 C   0  0  0  0  0  0  0  0  0  0  0  0
    1.8207   -0.3775   -0.9017 C   0  0  0  0  0  0  0  0  0  0  0  0
    2.9261   -0.6930   -0.3309 N   0  0  0  0  0  0  0  0  0  0  0  0
    3.9388    0.0872   -0.1815 C   0  0  0  0  0  0  0  0  0  0  0  0
    5.1893   -0.1882    0.4074 C   0  0  0  0  0  0  0  0  0  0  0  0
    5.4321   -1.4395    0.9331 F   0  0  0  0  0  0  0  0  0  0  0  0
    6.1970    0.7247    0.4888 C   0  0  0  0  0  0  0  0  0  0  0  0
    7.4014    0.3618    1.0857 F   0  0  0  0  0  0  0  0  0  0  0  0
    6.0526    1.9935   -0.0064 C   0  0  0  0  0  0  0  0  0  0  0  0
    4.8322    2.3290   -0.6057 C   0  0  0  0  0  0  0  0  0  0  0  0
    4.5741    3.5356   -1.1243 F   0  0  0  0  0  0  0  0  0  0  0  0
    3.8456    1.3868   -0.6707 C   0  0  0  0  0  0  0  0  0  0  0  0
    2.1650    1.3306   -1.3510 S   0  0  0  0  0  0  0  0  0  0  0  0
   -1.6960   -1.5209   -0.2941 C   0  0  0  0  0  0  0  0  0  0  0  0
   -1.8636   -2.8826   -0.4369 C   0  0  0  0  0  0  0  0  0  0  0  0
   -3.0401   -3.5216   -0.0969 C   0  0  0  0  0  0  0  0  0  0  0  0
   -3.2218   -5.2513   -0.2965 Cl  0  0  0  0  0  0  0  0  0  0  0  0
   -4.0509   -2.7283    0.3970 C   0  0  0  0  0  0  0  0  0  0  0  0
   -3.9024   -1.3656    0.5476 C   0  0  0  0  0  0  0  0  0  0  0  0
   -2.7173   -0.7353    0.2034 C   0  0  0  0  0  0  0  0  0  0  0  0
   -5.3282    3.5829   -1.2035 H   0  0  0  0  0  0  0  0  0  0  0  0
   -3.9676    1.3077    1.3844 H   0  0  0  0  0  0  0  0  0  0  0  0
   -2.5544    2.4002    1.1988 H   0  0  0  0  0  0  0  0  0  0  0  0
   -0.4946    1.4724   -0.2990 H   0  0  0  0  0  0  0  0  0  0  0  0
    0.8083   -2.1729   -0.7609 H   0  0  0  0  0  0  0  0  0  0  0  0
    0.4806   -1.2718   -2.2419 H   0  0  0  0  0  0  0  0  0  0  0  0
    6.8345    2.7124    0.0575 H   0  0  0  0  0  0  0  0  0  0  0  0
   -1.0526   -3.4550   -0.8214 H   0  0  0  0  0  0  0  0  0  0  0  0
   -5.0138   -3.1715    0.6828 H   0  0  0  0  0  0  0  0  0  0  0  0
   -4.7197   -0.7539    0.9422 H   0  0  0  0  0  0  0  0  0  0  0  0
  1  2  2  0
  2  3  1  0
  2  4  1  0
  4  5  1  0
  5  6  1  0
  6  7  2  0
  7  8  1  0
  8  9  1  0
  9 10  2  0
 10 11  1  0
 11 12  2  0
 12 13  1  0
 12 14  1  0
 14 15  1  0
 14 16  2  0
 16 17  1  0
 17 18  1  0
 17 19  2  0
 19 20  1  0
  7 21  1  0
 21 22  2  0
 22 23  1  0
 23 24  1  0
 23 25  2  0
 25 26  1  0
 26 27  2  0
 27  5  1  0
 20  9  1  0
 27 21  1  0
 19 11  1  0
  3 28  1  0
  4 29  1  0
  4 30  1  0
  6 31  1  0
  8 32  1  0
  8 33  1  0
 16 34  1  0
 22 35  1  0
 25 36  1  0
 26 37  1  0
M  END
$$$$
