@<TRIPOS>MOLECULE
*****
 62 63 0 0 0
SMALL
GASTEIGER

@<TRIPOS>ATOM
      1 O          -2.8412    1.0435   -0.9853 O.2     1  UNL1       -0.2241
      2 C          -3.2846    0.2314   -0.1332 C.2     1  UNL1        0.4260
      3 N          -2.4956   -0.9332    0.1162 N.am    1  UNL1       -0.2794
      4 C          -1.2442   -1.1731   -0.5759 C.3     1  UNL1        0.0148
      5 C          -0.6649   -2.4740   -0.0911 C.3     1  UNL1       -0.0373
      6 C          -0.3881   -2.4834    1.3835 C.3     1  UNL1       -0.0516
      7 C           0.5930   -1.4185    1.8025 C.3     1  UNL1       -0.0516
      8 C           1.9312   -1.5765    1.1203 C.3     1  UNL1       -0.0373
      9 C           2.5964   -2.8732    1.4044 C.3     1  UNL1        0.0148
     10 N           3.8581   -2.9327    0.7101 N.am    1  UNL1       -0.2794
     11 C           4.9046   -2.0108    0.9630 C.2     1  UNL1        0.4260
     12 O           4.8234   -1.0822    1.8023 O.2     1  UNL1       -0.2241
     13 O           6.1288   -2.0836    0.2703 O.3     1  UNL1       -0.2992
     14 N           7.1375   -1.1843    0.5232 N.2     1  UNL1       -0.0821
     15 C           7.1232   -0.0784   -0.1458 C.2     1  UNL1        0.0584
     16 C           8.1855    0.9571    0.0681 C.3     1  UNL1       -0.0112
     17 C           7.8050    2.1830   -0.7260 C.3     1  UNL1       -0.0478
     18 C           6.3743    2.6005   -0.4660 C.3     1  UNL1       -0.0524
     19 C           5.3900    1.5290   -0.8092 C.3     1  UNL1       -0.0478
     20 C           6.0751    0.2368   -1.1519 C.3     1  UNL1       -0.0112
     21 O          -4.4933    0.4462    0.5467 O.3     1  UNL1       -0.2992
     22 N          -5.2129    1.5884    0.2651 N.2     1  UNL1       -0.0821
     23 C          -6.4994    1.6020    0.2161 C.2     1  UNL1        0.0584
     24 C          -7.1636    2.8919   -0.0965 C.3     1  UNL1       -0.0112
     25 C          -8.0423    2.6438   -1.3229 C.3     1  UNL1       -0.0478
     26 C          -9.0025    1.5238   -1.0063 C.3     1  UNL1       -0.0524
     27 C          -8.2196    0.2380   -0.7915 C.3     1  UNL1       -0.0478
     28 C          -7.3665    0.4211    0.4497 C.3     1  UNL1       -0.0112
     29 H          -2.8713   -1.6011    0.8244 H       1  UNL1        0.1521
     30 H          -1.4388   -1.2990   -1.6698 H       1  UNL1        0.0463
     31 H          -0.5392   -0.3220   -0.4967 H       1  UNL1        0.0463
     32 H          -1.4220   -3.2610   -0.2912 H       1  UNL1        0.0280
     33 H           0.2213   -2.7377   -0.6967 H       1  UNL1        0.0280
     34 H           0.0250   -3.4815    1.6357 H       1  UNL1        0.0266
     35 H          -1.3486   -2.3908    1.9281 H       1  UNL1        0.0266
     36 H           0.2386   -0.4042    1.6313 H       1  UNL1        0.0266
     37 H           0.7646   -1.5439    2.8920 H       1  UNL1        0.0266
     38 H           2.6133   -0.7485    1.3712 H       1  UNL1        0.0280
     39 H           1.7989   -1.5203    0.0022 H       1  UNL1        0.0280
     40 H           2.0042   -3.7590    1.0580 H       1  UNL1        0.0463
     41 H           2.8544   -2.9967    2.4988 H       1  UNL1        0.0463
     42 H           4.0769   -3.6625   -0.0243 H       1  UNL1        0.1521
     43 H           8.3291    1.1782    1.1361 H       1  UNL1        0.0326
     44 H           9.1259    0.5412   -0.3562 H       1  UNL1        0.0326
     45 H           8.4465    3.0257   -0.3595 H       1  UNL1        0.0269
     46 H           7.9341    2.0187   -1.7958 H       1  UNL1        0.0269
     47 H           6.1805    3.5055   -1.0768 H       1  UNL1        0.0265
     48 H           6.3221    2.9169    0.6059 H       1  UNL1        0.0265
     49 H           4.7560    1.8520   -1.6688 H       1  UNL1        0.0269
     50 H           4.7294    1.3485    0.0884 H       1  UNL1        0.0269
     51 H           5.3431   -0.5842   -1.2522 H       1  UNL1        0.0326
     52 H           6.5884    0.4003   -2.1379 H       1  UNL1        0.0326
     53 H          -6.4430    3.6855   -0.3672 H       1  UNL1        0.0326
     54 H          -7.8488    3.1940    0.7338 H       1  UNL1        0.0326
     55 H          -7.3903    2.3810   -2.1905 H       1  UNL1        0.0269
     56 H          -8.5708    3.5756   -1.5390 H       1  UNL1        0.0269
     57 H          -9.6738    1.3531   -1.8670 H       1  UNL1        0.0265
     58 H          -9.5787    1.8172   -0.1075 H       1  UNL1        0.0265
     59 H          -7.5244    0.1464   -1.6594 H       1  UNL1        0.0269
     60 H          -8.8992   -0.6143   -0.7120 H       1  UNL1        0.0269
     61 H          -8.0213    0.6438    1.3285 H       1  UNL1        0.0326
     62 H          -6.7898   -0.4897    0.6817 H       1  UNL1        0.0326
@<TRIPOS>BOND
     1     1     2    2
     2     2     3   am
     3     3     4    1
     4     4     5    1
     5     5     6    1
     6     6     7    1
     7     7     8    1
     8     8     9    1
     9     9    10    1
    10    10    11   am
    11    11    12    2
    12    11    13    1
    13    13    14    1
    14    14    15    2
    15    15    16    1
    16    16    17    1
    17    17    18    1
    18    18    19    1
    19    19    20    1
    20     2    21    1
    21    21    22    1
    22    22    23    2
    23    23    24    1
    24    24    25    1
    25    25    26    1
    26    26    27    1
    27    27    28    1
    28    20    15    1
    29    28    23    1
    30     3    29    1
    31     4    30    1
    32     4    31    1
    33     5    32    1
    34     5    33    1
    35     6    34    1
    36     6    35    1
    37     7    36    1
    38     7    37    1
    39     8    38    1
    40     8    39    1
    41     9    40    1
    42     9    41    1
    43    10    42    1
    44    16    43    1
    45    16    44    1
    46    17    45    1
    47    17    46    1
    48    18    47    1
    49    18    48    1
    50    19    49    1
    51    19    50    1
    52    20    51    1
    53    20    52    1
    54    24    53    1
    55    24    54    1
    56    25    55    1
    57    25    56    1
    58    26    57    1
    59    26    58    1
    60    27    59    1
    61    27    60    1
    62    28    61    1
    63    28    62    1
