
     RDKit          3D

 62 63  0  0  0  0  0  0  0  0999 V2000
   -2.8412    1.0435   -0.9853 O   0  0  0  0  0  0  0  0  0  0  0  0
   -3.2846    0.2314   -0.1332 C   0  0  0  0  0  0  0  0  0  0  0  0
   -2.4956   -0.9332    0.1162 N   0  0  0  0  0  0  0  0  0  0  0  0
   -1.2442   -1.1731   -0.5759 C   0  0  0  0  0  0  0  0  0  0  0  0
   -0.6649   -2.4740   -0.0911 C   0  0  0  0  0  0  0  0  0  0  0  0
   -0.3881   -2.4834    1.3835 C   0  0  0  0  0  0  0  0  0  0  0  0
    0.5930   -1.4185    1.8025 C   0  0  0  0  0  0  0  0  0  0  0  0
    1.9312   -1.5765    1.1203 C   0  0  0  0  0  0  0  0  0  0  0  0
    2.5964   -2.8732    1.4044 C   0  0  0  0  0  0  0  0  0  0  0  0
    3.8581   -2.9327    0.7101 N   0  0  0  0  0  0  0  0  0  0  0  0
    4.9046   -2.0108    0.9630 C   0  0  0  0  0  0  0  0  0  0  0  0
    4.8234   -1.0822    1.8023 O   0  0  0  0  0  0  0  0  0  0  0  0
    6.1288   -2.0836    0.2703 O   0  0  0  0  0  0  0  0  0  0  0  0
    7.1375   -1.1843    0.5232 N   0  0  0  0  0  0  0  0  0  0  0  0
    7.1232   -0.0784   -0.1458 C   0  0  0  0  0  0  0  0  0  0  0  0
    8.1855    0.9571    0.0681 C   0  0  0  0  0  0  0  0  0  0  0  0
    7.8050    2.1830   -0.7260 C   0  0  0  0  0  0  0  0  0  0  0  0
    6.3743    2.6005   -0.4660 C   0  0  0  0  0  0  0  0  0  0  0  0
    5.3900    1.5290   -0.8092 C   0  0  0  0  0  0  0  0  0  0  0  0
    6.0751    0.2368   -1.1519 C   0  0  0  0  0  0  0  0  0  0  0  0
   -4.4933    0.4462    0.5467 O   0  0  0  0  0  0  0  0  0  0  0  0
   -5.2129    1.5884    0.2651 N   0  0  0  0  0  0  0  0  0  0  0  0
   -6.4994    1.6020    0.2161 C   0  0  0  0  0  0  0  0  0  0  0  0
   -7.1636    2.8919   -0.0965 C   0  0  0  0  0  0  0  0  0  0  0  0
   -8.0423    2.6438   -1.3229 C   0  0  0  0  0  0  0  0  0  0  0  0
   -9.0025    1.5238   -1.0063 C   0  0  0  0  0  0  0  0  0  0  0  0
   -8.2196    0.2380   -0.7915 C   0  0  0  0  0  0  0  0  0  0  0  0
   -7.3665    0.4211    0.4497 C   0  0  0  0  0  0  0  0  0  0  0  0
   -2.8713   -1.6011    0.8244 H   0  0  0  0  0  0  0  0  0  0  0  0
   -1.4388   -1.2990   -1.6698 H   0  0  0  0  0  0  0  0  0  0  0  0
   -0.5392   -0.3220   -0.4967 H   0  0  0  0  0  0  0  0  0  0  0  0
   -1.4220   -3.2610   -0.2912 H   0  0  0  0  0  0  0  0  0  0  0  0
    0.2213   -2.7377   -0.6967 H   0  0  0  0  0  0  0  0  0  0  0  0
    0.0250   -3.4815    1.6357 H   0  0  0  0  0  0  0  0  0  0  0  0
   -1.3486   -2.3908    1.9281 H   0  0  0  0  0  0  0  0  0  0  0  0
    0.2386   -0.4042    1.6313 H   0  0  0  0  0  0  0  0  0  0  0  0
    0.7646   -1.5439    2.8920 H   0  0  0  0  0  0  0  0  0  0  0  0
    2.6133   -0.7485    1.3712 H   0  0  0  0  0  0  0  0  0  0  0  0
    1.7989   -1.5203    0.0022 H   0  0  0  0  0  0  0  0  0  0  0  0
    2.0042   -3.7590    1.0580 H   0  0  0  0  0  0  0  0  0  0  0  0
    2.8544   -2.9967    2.4988 H   0  0  0  0  0  0  0  0  0  0  0  0
    4.0769   -3.6625   -0.0243 H   0  0  0  0  0  0  0  0  0  0  0  0
    8.3291    1.1782    1.1361 H   0  0  0  0  0  0  0  0  0  0  0  0
    9.1259    0.5412   -0.3562 H   0  0  0  0  0  0  0  0  0  0  0  0
    8.4465    3.0257   -0.3595 H   0  0  0  0  0  0  0  0  0  0  0  0
    7.9341    2.0187   -1.7958 H   0  0  0  0  0  0  0  0  0  0  0  0
    6.1805    3.5055   -1.0768 H   0  0  0  0  0  0  0  0  0  0  0  0
    6.3221    2.9169    0.6059 H   0  0  0  0  0  0  0  0  0  0  0  0
    4.7560    1.8520   -1.6688 H   0  0  0  0  0  0  0  0  0  0  0  0
    4.7294    1.3485    0.0884 H   0  0  0  0  0  0  0  0  0  0  0  0
    5.3431   -0.5842   -1.2522 H   0  0  0  0  0  0  0  0  0  0  0  0
    6.5884    0.4003   -2.1379 H   0  0  0  0  0  0  0  0  0  0  0  0
   -6.4430    3.6855   -0.3672 H   0  0  0  0  0  0  0  0  0  0  0  0
   -7.8488    3.1940    0.7338 H   0  0  0  0  0  0  0  0  0  0  0  0
   -7.3903    2.3810   -2.1905 H   0  0  0  0  0  0  0  0  0  0  0  0
   -8.5708    3.5756   -1.5390 H   0  0  0  0  0  0  0  0  0  0  0  0
   -9.6738    1.3531   -1.8670 H   0  0  0  0  0  0  0  0  0  0  0  0
   -9.5787    1.8172   -0.1075 H   0  0  0  0  0  0  0  0  0  0  0  0
   -7.5244    0.1464   -1.6594 H   0  0  0  0  0  0  0  0  0  0  0  0
   -8.8992   -0.6143   -0.7120 H   0  0  0  0  0  0  0  0  0  0  0  0
   -8.0213    0.6438    1.3285 H   0  0  0  0  0  0  0  0  0  0  0  0
   -6.7898   -0.4897    0.6817 H   0  0  0  0  0  0  0  0  0  0  0  0
  1  2  2  0
  2  3  1  0
  3  4  1  0
  4  5  1  0
  5  6  1  0
  6  7  1  0
  7  8  1  0
  8  9  1  0
  9 10  1  0
 10 11  1  0
 11 12  2  0
 11 13  1  0
 13 14  1  0
 14 15  2  3
 15 16  1  0
 16 17  1  0
 17 18  1  0
 18 19  1  0
 19 20  1  0
  2 21  1  0
 21 22  1  0
 22 23  2  3
 23 24  1  0
 24 25  1  0
 25 26  1  0
 26 27  1  0
 27 28  1  0
 20 15  1  0
 28 23  1  0
  3 29  1  0
  4 30  1  0
  4 31  1  0
  5 32  1  0
  5 33  1  0
  6 34  1  0
  6 35  1  0
  7 36  1  0
  7 37  1  0
  8 38  1  0
  8 39  1  0
  9 40  1  0
  9 41  1  0
 10 42  1  0
 16 43  1  0
 16 44  1  0
 17 45  1  0
 17 46  1  0
 18 47  1  0
 18 48  1  0
 19 49  1  0
 19 50  1  0
 20 51  1  0
 20 52  1  0
 24 53  1  0
 24 54  1  0
 25 55  1  0
 25 56  1  0
 26 57  1  0
 26 58  1  0
 27 59  1  0
 27 60  1  0
 28 61  1  0
 28 62  1  0
M  END
$$$$
