
     RDKit          3D

 59 63  0  0  0  0  0  0  0  0999 V2000
    3.1209    2.6431   -3.2308 F   0  0  0  0  0  0  0  0  0  0  0  0
    2.9384    1.7214   -2.2277 C   0  0  0  0  0  0  0  0  0  0  0  0
    4.0357    1.1297   -1.6587 C   0  0  0  0  0  0  0  0  0  0  0  0
    3.8817    0.1942   -0.6426 C   0  0  0  0  0  0  0  0  0  0  0  0
    5.0092   -0.3847   -0.0885 O   0  0  0  0  0  0  0  0  0  0  0  0
    4.8637   -1.3397    0.9407 C   0  0  0  0  0  0  0  0  0  0  0  0
    4.2016   -0.7620    2.0263 F   0  0  0  0  0  0  0  0  0  0  0  0
    4.1127   -2.3919    0.4976 F   0  0  0  0  0  0  0  0  0  0  0  0
    6.2097   -1.8488    1.4215 C   0  0  0  0  0  0  0  0  0  0  0  0
    5.9537   -2.7665    2.4164 F   0  0  0  0  0  0  0  0  0  0  0  0
    6.9065   -0.7981    1.9843 F   0  0  0  0  0  0  0  0  0  0  0  0
    2.5928   -0.0839   -0.2642 C   0  0  0  0  0  0  0  0  0  0  0  0
    1.4619    0.5119   -0.8358 C   0  0  0  0  0  0  0  0  0  0  0  0
    0.1147    0.1359   -0.3290 C   0  0  1  0  0  0  0  0  0  0  0  0
   -0.1158    0.7602    1.0177 C   0  0  0  0  0  0  0  0  0  0  0  0
   -0.0627    2.2169    1.0356 C   0  0  0  0  0  0  0  0  0  0  0  0
    1.0491    2.9869    1.2451 C   0  0  0  0  0  0  0  0  0  0  0  0
    1.0457    4.3580    1.2560 C   0  0  0  0  0  0  0  0  0  0  0  0
   -0.1447    5.0248    1.0444 C   0  0  0  0  0  0  0  0  0  0  0  0
   -1.2786    4.3079    0.8310 C   0  0  0  0  0  0  0  0  0  0  0  0
   -1.2497    2.9215    0.8245 C   0  0  0  0  0  0  0  0  0  0  0  0
   -0.9455    0.3789   -1.2752 N   0  0  0  0  0  0  0  0  0  0  0  0
   -2.2834   -0.0446   -0.9444 C   0  0  0  0  0  0  0  0  0  0  0  0
   -2.7156   -0.6637    0.1665 N   0  0  0  0  0  0  0  0  0  0  0  0
   -4.0358   -0.9049    0.1020 C   0  0  0  0  0  0  0  0  0  0  0  0
   -4.9691   -1.4929    0.9289 C   0  0  0  0  0  0  0  0  0  0  0  0
   -4.5310   -1.9691    2.1197 F   0  0  0  0  0  0  0  0  0  0  0  0
   -6.3056   -1.6161    0.6070 C   0  0  0  0  0  0  0  0  0  0  0  0
   -6.7168   -1.1177   -0.6159 C   0  0  0  0  0  0  0  0  0  0  0  0
   -8.0300   -1.2454   -0.9209 F   0  0  0  0  0  0  0  0  0  0  0  0
   -5.8096   -0.5228   -1.4676 C   0  0  0  0  0  0  0  0  0  0  0  0
   -4.4697   -0.4147   -1.1125 C   0  0  0  0  0  0  0  0  0  0  0  0
   -3.3808    0.0949   -1.7103 N   0  0  0  0  0  0  0  0  0  0  0  0
    0.1212   -1.3748   -0.2368 C   0  0  0  0  0  0  0  0  0  0  0  0
   -0.0920   -2.0153    0.9549 C   0  0  0  0  0  0  0  0  0  0  0  0
   -0.0643   -3.4064    0.9288 C   0  0  0  0  0  0  0  0  0  0  0  0
    0.1715   -4.0527   -0.2734 C   0  0  0  0  0  0  0  0  0  0  0  0
    0.2048   -5.8021   -0.3008 Cl  0  0  0  0  0  0  0  0  0  0  0  0
    0.3834   -3.3778   -1.4616 C   0  0  0  0  0  0  0  0  0  0  0  0
    0.3520   -2.0342   -1.4101 N   0  0  0  0  0  0  0  0  0  0  0  0
    1.6479    1.4279   -1.8325 C   0  0  0  0  0  0  0  0  0  0  0  0
    5.0520    1.3603   -1.9692 H   0  0  0  0  0  0  0  0  0  0  0  0
    6.7223   -2.2835    0.5464 H   0  0  0  0  0  0  0  0  0  0  0  0
    2.4729   -0.8160    0.5325 H   0  0  0  0  0  0  0  0  0  0  0  0
   -1.0963    0.4377    1.3940 H   0  0  0  0  0  0  0  0  0  0  0  0
    0.6429    0.3297    1.7321 H   0  0  0  0  0  0  0  0  0  0  0  0
    1.9838    2.4845    1.4116 H   0  0  0  0  0  0  0  0  0  0  0  0
    1.9567    4.9285    1.4270 H   0  0  0  0  0  0  0  0  0  0  0  0
   -0.1285    6.1116    1.0564 H   0  0  0  0  0  0  0  0  0  0  0  0
   -2.2095    4.8594    0.6653 H   0  0  0  0  0  0  0  0  0  0  0  0
   -2.1686    2.3896    0.6522 H   0  0  0  0  0  0  0  0  0  0  0  0
   -0.7583    0.8412   -2.1773 H   0  0  0  0  0  0  0  0  0  0  0  0
   -7.0236   -2.0922    1.2941 H   0  0  0  0  0  0  0  0  0  0  0  0
   -6.1321   -0.1390   -2.4106 H   0  0  0  0  0  0  0  0  0  0  0  0
   -3.3756    0.5461   -2.6539 H   0  0  0  0  0  0  0  0  0  0  0  0
   -0.2723   -1.4577    1.8567 H   0  0  0  0  0  0  0  0  0  0  0  0
   -0.2317   -3.9155    1.8645 H   0  0  0  0  0  0  0  0  0  0  0  0
    0.5682   -3.9150   -2.4029 H   0  0  0  0  0  0  0  0  0  0  0  0
    0.8196    1.9472   -2.3282 H   0  0  0  0  0  0  0  0  0  0  0  0
  1  2  1  0
  2  3  2  0
  3  4  1  0
  4  5  1  0
  5  6  1  0
  6  7  1  0
  6  8  1  0
  6  9  1  0
  9 10  1  0
  9 11  1  0
  4 12  2  0
 12 13  1  0
 13 14  1  0
 14 15  1  0
 15 16  1  0
 16 17  2  0
 17 18  1  0
 18 19  2  0
 19 20  1  0
 20 21  2  0
 14 22  1  6
 22 23  1  0
 23 24  2  0
 24 25  1  0
 25 26  2  0
 26 27  1  0
 26 28  1  0
 28 29  2  0
 29 30  1  0
 29 31  1  0
 31 32  2  0
 32 33  1  0
 14 34  1  0
 34 35  2  0
 35 36  1  0
 36 37  2  0
 37 38  1  0
 37 39  1  0
 39 40  2  0
 13 41  2  0
 41  2  1  0
 21 16  1  0
 33 23  1  0
 40 34  1  0
 32 25  1  0
  3 42  1  0
  9 43  1  0
 12 44  1  0
 15 45  1  0
 15 46  1  0
 17 47  1  0
 18 48  1  0
 19 49  1  0
 20 50  1  0
 21 51  1  0
 22 52  1  0
 28 53  1  0
 31 54  1  0
 33 55  1  0
 35 56  1  0
 36 57  1  0
 39 58  1  0
 41 59  1  0
M  END
$$$$
