@<TRIPOS>MOLECULE
*****
 59 63 0 0 0
SMALL
GASTEIGER

@<TRIPOS>ATOM
      1 F           3.1209    2.6431   -3.2308 F       1  UNL1       -0.2054
      2 C           2.9384    1.7214   -2.2277 C.ar    1  UNL1        0.1272
      3 C           4.0357    1.1297   -1.6587 C.ar    1  UNL1        0.0155
      4 C           3.8817    0.1942   -0.6426 C.ar    1  UNL1        0.1304
      5 O           5.0092   -0.3847   -0.0885 O.3     1  UNL1       -0.4279
      6 C           4.8637   -1.3397    0.9407 C.3     1  UNL1        0.4625
      7 F           4.2016   -0.7620    2.0263 F       1  UNL1       -0.1583
      8 F           4.1127   -2.3919    0.4976 F       1  UNL1       -0.1583
      9 C           6.2097   -1.8488    1.4215 C.3     1  UNL1        0.3402
     10 F           5.9537   -2.7665    2.4164 F       1  UNL1       -0.1984
     11 F           6.9065   -0.7981    1.9843 F       1  UNL1       -0.1984
     12 C           2.5928   -0.0839   -0.2642 C.ar    1  UNL1       -0.0139
     13 C           1.4619    0.5119   -0.8358 C.ar    1  UNL1       -0.0118
     14 C           0.1147    0.1359   -0.3290 C.3     1  UNL1        0.1060
     15 C          -0.1158    0.7602    1.0177 C.3     1  UNL1        0.0035
     16 C          -0.0627    2.2169    1.0356 C.ar    1  UNL1       -0.0446
     17 C           1.0491    2.9869    1.2451 C.ar    1  UNL1       -0.0585
     18 C           1.0457    4.3580    1.2560 C.ar    1  UNL1       -0.0615
     19 C          -0.1447    5.0248    1.0444 C.ar    1  UNL1       -0.0617
     20 C          -1.2786    4.3079    0.8310 C.ar    1  UNL1       -0.0615
     21 C          -1.2497    2.9215    0.8245 C.ar    1  UNL1       -0.0585
     22 N          -0.9455    0.3789   -1.2752 N.pl3   1  UNL1       -0.2997
     23 C          -2.2834   -0.0446   -0.9444 C.ar    1  UNL1        0.1950
     24 N          -2.7156   -0.6637    0.1665 N.ar    1  UNL1       -0.2117
     25 C          -4.0358   -0.9049    0.1020 C.ar    1  UNL1        0.1259
     26 C          -4.9691   -1.4929    0.9289 C.ar    1  UNL1        0.1535
     27 F          -4.5310   -1.9691    2.1197 F       1  UNL1       -0.2031
     28 C          -6.3056   -1.6161    0.6070 C.ar    1  UNL1        0.0110
     29 C          -6.7168   -1.1177   -0.6159 C.ar    1  UNL1        0.1282
     30 F          -8.0300   -1.2454   -0.9209 F       1  UNL1       -0.2053
     31 C          -5.8096   -0.5228   -1.4676 C.ar    1  UNL1       -0.0008
     32 C          -4.4697   -0.4147   -1.1125 C.ar    1  UNL1        0.0730
     33 N          -3.3808    0.0949   -1.7103 N.ar    1  UNL1       -0.3259
     34 C           0.1212   -1.3748   -0.2368 C.ar    1  UNL1        0.0695
     35 C          -0.0920   -2.0153    0.9549 C.ar    1  UNL1       -0.0365
     36 C          -0.0643   -3.4064    0.9288 C.ar    1  UNL1       -0.0401
     37 C           0.1715   -4.0527   -0.2734 C.ar    1  UNL1        0.0590
     38 CL          0.2048   -5.8021   -0.3008 Cl      1  UNL1       -0.0820
     39 C           0.3834   -3.3778   -1.4616 C.ar    1  UNL1        0.0463
     40 N           0.3520   -2.0342   -1.4101 N.ar    1  UNL1       -0.2559
     41 C           1.6479    1.4279   -1.8325 C.ar    1  UNL1       -0.0206
     42 H           5.0520    1.3603   -1.9692 H       1  UNL1        0.0683
     43 H           6.7223   -2.2835    0.5464 H       1  UNL1        0.1124
     44 H           2.4729   -0.8160    0.5325 H       1  UNL1        0.0658
     45 H          -1.0963    0.4377    1.3940 H       1  UNL1        0.0341
     46 H           0.6429    0.3297    1.7321 H       1  UNL1        0.0341
     47 H           1.9838    2.4845    1.4116 H       1  UNL1        0.0620
     48 H           1.9567    4.9285    1.4270 H       1  UNL1        0.0618
     49 H          -0.1285    6.1116    1.0564 H       1  UNL1        0.0618
     50 H          -2.2095    4.8594    0.6653 H       1  UNL1        0.0618
     51 H          -2.1686    2.3896    0.6522 H       1  UNL1        0.0620
     52 H          -0.7583    0.8412   -2.1773 H       1  UNL1        0.1501
     53 H          -7.0236   -2.0922    1.2941 H       1  UNL1        0.0676
     54 H          -6.1321   -0.1390   -2.4106 H       1  UNL1        0.0667
     55 H          -3.3756    0.5461   -2.6539 H       1  UNL1        0.1686
     56 H          -0.2723   -1.4577    1.8567 H       1  UNL1        0.0637
     57 H          -0.2317   -3.9155    1.8645 H       1  UNL1        0.0633
     58 H           0.5682   -3.9150   -2.4029 H       1  UNL1        0.0844
     59 H           0.8196    1.9472   -2.3282 H       1  UNL1        0.0650
@<TRIPOS>BOND
     1     1     2    1
     2     2     3   ar
     3     3     4   ar
     4     4     5    1
     5     5     6    1
     6     6     7    1
     7     6     8    1
     8     6     9    1
     9     9    10    1
    10     9    11    1
    11     4    12   ar
    12    12    13   ar
    13    13    14    1
    14    14    15    1
    15    15    16    1
    16    16    17   ar
    17    17    18   ar
    18    18    19   ar
    19    19    20   ar
    20    20    21   ar
    21    14    22    1
    22    22    23    1
    23    23    24   ar
    24    24    25   ar
    25    25    26   ar
    26    26    27    1
    27    26    28   ar
    28    28    29   ar
    29    29    30    1
    30    29    31   ar
    31    31    32   ar
    32    32    33   ar
    33    14    34    1
    34    34    35   ar
    35    35    36   ar
    36    36    37   ar
    37    37    38    1
    38    37    39   ar
    39    39    40   ar
    40    13    41   ar
    41    41     2   ar
    42    21    16   ar
    43    33    23   ar
    44    40    34   ar
    45    32    25   ar
    46     3    42    1
    47     9    43    1
    48    12    44    1
    49    15    45    1
    50    15    46    1
    51    17    47    1
    52    18    48    1
    53    19    49    1
    54    20    50    1
    55    21    51    1
    56    22    52    1
    57    28    53    1
    58    31    54    1
    59    33    55    1
    60    35    56    1
    61    36    57    1
    62    39    58    1
    63    41    59    1
