@<TRIPOS>MOLECULE
*****
 71 73 0 0 0
SMALL
GASTEIGER

@<TRIPOS>ATOM
      1 C           3.6480   -4.4726    0.8179 C.3     1  UNL1       -0.0607
      2 C           3.7510   -2.9822    0.5677 C.3     1  UNL1       -0.0243
      3 C           2.7694   -2.6021   -0.4887 C.3     1  UNL1        0.0120
      4 N           2.5645   -1.1817   -0.5934 N.pl3   1  UNL1       -0.3418
      5 C           2.8473   -0.3436    0.5038 C.ar    1  UNL1        0.0570
      6 C           3.3011   -0.8317    1.7063 C.ar    1  UNL1       -0.0243
      7 C           3.5906    0.0076    2.7461 C.ar    1  UNL1       -0.0567
      8 C           3.4171    1.3587    2.5628 C.ar    1  UNL1       -0.0595
      9 C           2.9634    1.8792    1.3695 C.ar    1  UNL1       -0.0335
     10 C           2.6704    1.0213    0.3163 C.ar    1  UNL1        0.1262
     11 S           2.0647    1.6569   -1.1893 S.O2    1  UNL1        0.0608
     12 O           2.8917    1.2570   -2.3749 O.2     1  UNL1       -0.1530
     13 O           2.1410    3.1514   -1.1142 O.2     1  UNL1       -0.1530
     14 N           0.4236    1.1183   -1.3727 N.3     1  UNL1       -0.1780
     15 C          -0.4092    1.6240   -0.3042 C.3     1  UNL1        0.1051
     16 C          -1.3352    2.7161   -0.8622 C.3     1  UNL1       -0.0246
     17 C          -2.2304    3.2875    0.1874 C.3     1  UNL1       -0.0203
     18 C          -3.1612    4.3641   -0.3187 C.3     1  UNL1        0.0647
     19 N          -2.5518    5.5051   -0.8948 N.pl3   1  UNL1       -0.2761
     20 C          -1.8883    5.4450   -2.1559 C.cat   1  UNL1        0.3762
     21 N          -2.3828    4.7217   -3.1166 N.pl3   1  UNL1       -0.1298
     22 N          -0.6893    6.1603   -2.4080 N.pl3   1  UNL1       -0.2893
     23 C          -1.1244    0.6836    0.5162 C.2     1  UNL1        0.2349
     24 O          -1.5534    1.0416    1.6860 O.2     1  UNL1       -0.2738
     25 N          -1.4323   -0.6507    0.1825 N.am    1  UNL1       -0.2867
     26 C          -1.1119   -1.1850   -1.1100 C.3     1  UNL1        0.0158
     27 C          -2.0726   -2.3002   -1.4657 C.3     1  UNL1       -0.0345
     28 C          -2.1338   -3.3381   -0.4112 C.3     1  UNL1       -0.0403
     29 C          -1.3207   -4.5456   -0.8717 C.3     1  UNL1       -0.0623
     30 C          -1.6363   -2.9243    0.9301 C.3     1  UNL1       -0.0213
     31 C          -2.0633   -1.5155    1.1790 C.3     1  UNL1        0.1230
     32 C          -3.5091   -1.3375    1.1133 C.2     1  UNL1        0.3255
     33 O          -4.1053   -0.4727    0.4012 O.2     1  UNL1       -0.2489
     34 O          -4.3674   -2.1583    1.8760 O.3     1  UNL1       -0.4793
     35 C           3.4842   -2.2816    1.8841 C.3     1  UNL1       -0.0219
     36 H           4.6618   -4.8443    1.1338 H       1  UNL1        0.0233
     37 H           2.9278   -4.7091    1.6315 H       1  UNL1        0.0233
     38 H           3.3842   -5.0291   -0.0992 H       1  UNL1        0.0233
     39 H           4.7674   -2.7829    0.1901 H       1  UNL1        0.0316
     40 H           3.2182   -2.9179   -1.4763 H       1  UNL1        0.0464
     41 H           1.8166   -3.1686   -0.4252 H       1  UNL1        0.0464
     42 H           2.2005   -0.7763   -1.5009 H       1  UNL1        0.1461
     43 H           3.9417   -0.3834    3.6732 H       1  UNL1        0.0621
     44 H           3.6507    2.0347    3.4022 H       1  UNL1        0.0618
     45 H           2.8439    2.9441    1.2752 H       1  UNL1        0.0638
     46 H           0.0593    1.4461   -2.3169 H       1  UNL1        0.1489
     47 H           0.2830    2.2186    0.3688 H       1  UNL1        0.0573
     48 H          -0.7158    3.5519   -1.2561 H       1  UNL1        0.0286
     49 H          -1.9646    2.2176   -1.6221 H       1  UNL1        0.0286
     50 H          -2.8845    2.4265    0.5428 H       1  UNL1        0.0296
     51 H          -1.6854    3.6244    1.0970 H       1  UNL1        0.0296
     52 H          -3.8990    4.6326    0.4978 H       1  UNL1        0.0655
     53 H          -3.8382    3.8772   -1.0899 H       1  UNL1        0.0655
     54 H          -2.5729    6.4227   -0.4064 H       1  UNL1        0.2579
     55 H          -1.8946    4.6831   -4.0301 H       1  UNL1        0.3062
     56 H           0.1389    5.5879   -2.7003 H       1  UNL1        0.2546
     57 H          -0.5857    7.1788   -2.3250 H       1  UNL1        0.2546
     58 H          -0.0665   -1.4867   -1.2292 H       1  UNL1        0.0465
     59 H          -1.2590   -0.3803   -1.9062 H       1  UNL1        0.0465
     60 H          -1.7279   -2.7200   -2.4596 H       1  UNL1        0.0283
     61 H          -3.0600   -1.8392   -1.6590 H       1  UNL1        0.0283
     62 H          -3.2132   -3.6488   -0.2573 H       1  UNL1        0.0299
     63 H          -0.9406   -4.4050   -1.9010 H       1  UNL1        0.0232
     64 H          -1.9834   -5.4324   -0.8788 H       1  UNL1        0.0232
     65 H          -0.4460   -4.6992   -0.1998 H       1  UNL1        0.0232
     66 H          -2.1090   -3.5917    1.6944 H       1  UNL1        0.0291
     67 H          -0.5432   -3.0635    1.0588 H       1  UNL1        0.0291
     68 H          -1.6860   -1.2415    2.2056 H       1  UNL1        0.0616
     69 H          -5.2763   -2.3963    1.4935 H       1  UNL1        0.2951
     70 H           2.6322   -2.7531    2.4286 H       1  UNL1        0.0317
     71 H           4.3761   -2.4530    2.5196 H       1  UNL1        0.0317
@<TRIPOS>BOND
     1     1     2    1
     2     2     3    1
     3     3     4    1
     4     4     5    1
     5     5     6   ar
     6     6     7   ar
     7     7     8   ar
     8     8     9   ar
     9     9    10   ar
    10    10    11    1
    11    11    12    2
    12    11    13    2
    13    11    14    1
    14    14    15    1
    15    15    16    1
    16    16    17    1
    17    17    18    1
    18    18    19    1
    19    19    20    1
    20    20    21    2
    21    20    22    1
    22    15    23    1
    23    23    24    2
    24    23    25   am
    25    25    26    1
    26    26    27    1
    27    27    28    1
    28    28    29    1
    29    28    30    1
    30    30    31    1
    31    31    32    1
    32    32    33    2
    33    32    34    1
    34     6    35    1
    35    35     2    1
    36    10     5   ar
    37    31    25    1
    38     1    36    1
    39     1    37    1
    40     1    38    1
    41     2    39    1
    42     3    40    1
    43     3    41    1
    44     4    42    1
    45     7    43    1
    46     8    44    1
    47     9    45    1
    48    14    46    1
    49    15    47    1
    50    16    48    1
    51    16    49    1
    52    17    50    1
    53    17    51    1
    54    18    52    1
    55    18    53    1
    56    19    54    1
    57    21    55    1
    58    22    56    1
    59    22    57    1
    60    26    58    1
    61    26    59    1
    62    27    60    1
    63    27    61    1
    64    28    62    1
    65    29    63    1
    66    29    64    1
    67    29    65    1
    68    30    66    1
    69    30    67    1
    70    31    68    1
    71    34    69    1
    72    35    70    1
    73    35    71    1
