
     RDKit          3D

 71 73  0  0  0  0  0  0  0  0999 V2000
    3.6480   -4.4726    0.8179 C   0  0  0  0  0  0  0  0  0  0  0  0
    3.7510   -2.9822    0.5677 C   0  0  0  0  0  0  0  0  0  0  0  0
    2.7694   -2.6021   -0.4887 C   0  0  0  0  0  0  0  0  0  0  0  0
    2.5645   -1.1817   -0.5934 N   0  0  0  0  0  0  0  0  0  0  0  0
    2.8473   -0.3436    0.5038 C   0  0  0  0  0  0  0  0  0  0  0  0
    3.3011   -0.8317    1.7063 C   0  0  0  0  0  0  0  0  0  0  0  0
    3.5906    0.0076    2.7461 C   0  0  0  0  0  0  0  0  0  0  0  0
    3.4171    1.3587    2.5628 C   0  0  0  0  0  0  0  0  0  0  0  0
    2.9634    1.8792    1.3695 C   0  0  0  0  0  0  0  0  0  0  0  0
    2.6704    1.0213    0.3163 C   0  0  0  0  0  0  0  0  0  0  0  0
    2.0647    1.6569   -1.1893 S   0  0  0  0  0  6  0  0  0  0  0  0
    2.8917    1.2570   -2.3749 O   0  0  0  0  0  0  0  0  0  0  0  0
    2.1410    3.1514   -1.1142 O   0  0  0  0  0  0  0  0  0  0  0  0
    0.4236    1.1183   -1.3727 N   0  0  0  0  0  0  0  0  0  0  0  0
   -0.4092    1.6240   -0.3042 C   0  0  1  0  0  0  0  0  0  0  0  0
   -1.3352    2.7161   -0.8622 C   0  0  0  0  0  0  0  0  0  0  0  0
   -2.2304    3.2875    0.1874 C   0  0  0  0  0  0  0  0  0  0  0  0
   -3.1612    4.3641   -0.3187 C   0  0  0  0  0  0  0  0  0  0  0  0
   -2.5518    5.5051   -0.8948 N   0  0  0  0  0  0  0  0  0  0  0  0
   -1.8883    5.4450   -2.1559 C   0  0  0  0  0  0  0  0  0  0  0  0
   -2.3828    4.7217   -3.1166 N   0  0  0  0  0  0  0  0  0  0  0  0
   -0.6893    6.1603   -2.4080 N   0  0  0  0  0  0  0  0  0  0  0  0
   -1.1244    0.6836    0.5162 C   0  0  0  0  0  0  0  0  0  0  0  0
   -1.5534    1.0416    1.6860 O   0  0  0  0  0  0  0  0  0  0  0  0
   -1.4323   -0.6507    0.1825 N   0  0  0  0  0  0  0  0  0  0  0  0
   -1.1119   -1.1850   -1.1100 C   0  0  0  0  0  0  0  0  0  0  0  0
   -2.0726   -2.3002   -1.4657 C   0  0  0  0  0  0  0  0  0  0  0  0
   -2.1338   -3.3381   -0.4112 C   0  0  1  0  0  0  0  0  0  0  0  0
   -1.3207   -4.5456   -0.8717 C   0  0  0  0  0  0  0  0  0  0  0  0
   -1.6363   -2.9243    0.9301 C   0  0  0  0  0  0  0  0  0  0  0  0
   -2.0633   -1.5155    1.1790 C   0  0  2  0  0  0  0  0  0  0  0  0
   -3.5091   -1.3375    1.1133 C   0  0  0  0  0  0  0  0  0  0  0  0
   -4.1053   -0.4727    0.4012 O   0  0  0  0  0  0  0  0  0  0  0  0
   -4.3674   -2.1583    1.8760 O   0  0  0  0  0  0  0  0  0  0  0  0
    3.4842   -2.2816    1.8841 C   0  0  0  0  0  0  0  0  0  0  0  0
    4.6618   -4.8443    1.1338 H   0  0  0  0  0  0  0  0  0  0  0  0
    2.9278   -4.7091    1.6315 H   0  0  0  0  0  0  0  0  0  0  0  0
    3.3842   -5.0291   -0.0992 H   0  0  0  0  0  0  0  0  0  0  0  0
    4.7674   -2.7829    0.1901 H   0  0  0  0  0  0  0  0  0  0  0  0
    3.2182   -2.9179   -1.4763 H   0  0  0  0  0  0  0  0  0  0  0  0
    1.8166   -3.1686   -0.4252 H   0  0  0  0  0  0  0  0  0  0  0  0
    2.2005   -0.7763   -1.5009 H   0  0  0  0  0  0  0  0  0  0  0  0
    3.9417   -0.3834    3.6732 H   0  0  0  0  0  0  0  0  0  0  0  0
    3.6507    2.0347    3.4022 H   0  0  0  0  0  0  0  0  0  0  0  0
    2.8439    2.9441    1.2752 H   0  0  0  0  0  0  0  0  0  0  0  0
    0.0593    1.4461   -2.3169 H   0  0  0  0  0  0  0  0  0  0  0  0
    0.2830    2.2186    0.3688 H   0  0  0  0  0  0  0  0  0  0  0  0
   -0.7158    3.5519   -1.2561 H   0  0  0  0  0  0  0  0  0  0  0  0
   -1.9646    2.2176   -1.6221 H   0  0  0  0  0  0  0  0  0  0  0  0
   -2.8845    2.4265    0.5428 H   0  0  0  0  0  0  0  0  0  0  0  0
   -1.6854    3.6244    1.0970 H   0  0  0  0  0  0  0  0  0  0  0  0
   -3.8990    4.6326    0.4978 H   0  0  0  0  0  0  0  0  0  0  0  0
   -3.8382    3.8772   -1.0899 H   0  0  0  0  0  0  0  0  0  0  0  0
   -2.5729    6.4227   -0.4064 H   0  0  0  0  0  0  0  0  0  0  0  0
   -1.8946    4.6831   -4.0301 H   0  0  0  0  0  0  0  0  0  0  0  0
    0.1389    5.5879   -2.7003 H   0  0  0  0  0  0  0  0  0  0  0  0
   -0.5857    7.1788   -2.3250 H   0  0  0  0  0  0  0  0  0  0  0  0
   -0.0665   -1.4867   -1.2292 H   0  0  0  0  0  0  0  0  0  0  0  0
   -1.2590   -0.3803   -1.9062 H   0  0  0  0  0  0  0  0  0  0  0  0
   -1.7279   -2.7200   -2.4596 H   0  0  0  0  0  0  0  0  0  0  0  0
   -3.0600   -1.8392   -1.6590 H   0  0  0  0  0  0  0  0  0  0  0  0
   -3.2132   -3.6488   -0.2573 H   0  0  0  0  0  0  0  0  0  0  0  0
   -0.9406   -4.4050   -1.9010 H   0  0  0  0  0  0  0  0  0  0  0  0
   -1.9834   -5.4324   -0.8788 H   0  0  0  0  0  0  0  0  0  0  0  0
   -0.4460   -4.6992   -0.1998 H   0  0  0  0  0  0  0  0  0  0  0  0
   -2.1090   -3.5917    1.6944 H   0  0  0  0  0  0  0  0  0  0  0  0
   -0.5432   -3.0635    1.0588 H   0  0  0  0  0  0  0  0  0  0  0  0
   -1.6860   -1.2415    2.2056 H   0  0  0  0  0  0  0  0  0  0  0  0
   -5.2763   -2.3963    1.4935 H   0  0  0  0  0  0  0  0  0  0  0  0
    2.6322   -2.7531    2.4286 H   0  0  0  0  0  0  0  0  0  0  0  0
    4.3761   -2.4530    2.5196 H   0  0  0  0  0  0  0  0  0  0  0  0
  1  2  1  0
  2  3  1  0
  3  4  1  0
  4  5  1  0
  5  6  2  0
  6  7  1  0
  7  8  2  0
  8  9  1  0
  9 10  2  0
 10 11  1  0
 11 12  2  0
 11 13  2  0
 11 14  1  0
 14 15  1  0
 15 16  1  0
 16 17  1  0
 17 18  1  0
 18 19  1  0
 19 20  1  0
 20 21  2  3
 20 22  1  0
 15 23  1  0
 23 24  2  0
 23 25  1  0
 25 26  1  0
 26 27  1  0
 27 28  1  0
 28 29  1  0
 28 30  1  0
 30 31  1  0
 31 32  1  0
 32 33  2  0
 32 34  1  0
  6 35  1  0
 35  2  1  0
 10  5  1  0
 31 25  1  0
  1 36  1  0
  1 37  1  0
  1 38  1  0
  2 39  1  0
  3 40  1  0
  3 41  1  0
  4 42  1  0
  7 43  1  0
  8 44  1  0
  9 45  1  0
 14 46  1  0
 15 47  1  1
 16 48  1  0
 16 49  1  0
 17 50  1  0
 17 51  1  0
 18 52  1  0
 18 53  1  0
 19 54  1  0
 21 55  1  0
 22 56  1  0
 22 57  1  0
 26 58  1  0
 26 59  1  0
 27 60  1  0
 27 61  1  0
 28 62  1  1
 29 63  1  0
 29 64  1  0
 29 65  1  0
 30 66  1  0
 30 67  1  0
 31 68  1  1
 34 69  1  0
 35 70  1  0
 35 71  1  0
M  END
$$$$
