
     RDKit          3D

 31 33  0  0  0  0  0  0  0  0999 V2000
   -5.2739    1.1367    0.7236 C   0  0  0  0  0  0  0  0  0  0  0  0
   -3.9663    0.4281    0.7580 C   0  0  0  0  0  0  0  0  0  0  0  0
   -4.0079   -0.9539    0.6464 C   0  0  0  0  0  0  0  0  0  0  0  0
   -2.8641   -1.6974    0.6667 C   0  0  0  0  0  0  0  0  0  0  0  0
   -1.6469   -1.0169    0.8040 C   0  0  0  0  0  0  0  0  0  0  0  0
   -0.4667   -1.8508    0.8432 C   0  0  0  0  0  0  0  0  0  0  0  0
   -0.5468   -3.0205    1.3345 O   0  0  0  0  0  0  0  0  0  0  0  0
    0.8410   -1.3896    0.3271 C   0  0  0  0  0  0  0  0  0  0  0  0
    1.9798   -1.6920    0.2818 N   0  0  0  0  0  0  0  0  0  0  0  0
    2.9845   -1.0963   -0.2943 C   0  0  0  0  0  0  0  0  0  0  0  0
    4.3296   -1.4767   -0.3326 C   0  0  0  0  0  0  0  0  0  0  0  0
    5.2357   -0.6932   -1.0047 C   0  0  0  0  0  0  0  0  0  0  0  0
    4.9285    0.4669   -1.6629 C   0  0  0  0  0  0  0  0  0  0  0  0
    5.8917    1.1880   -2.3077 O   0  0  0  0  0  0  0  0  0  0  0  0
    3.5942    0.8573   -1.6330 C   0  0  0  0  0  0  0  0  0  0  0  0
    2.6654    0.0775   -0.9585 C   0  0  0  0  0  0  0  0  0  0  0  0
    0.9093    0.2119   -0.6824 S   0  0  0  0  0  0  0  0  0  0  0  0
   -1.6145    0.3511    0.9144 C   0  0  0  0  0  0  0  0  0  0  0  0
   -2.7780    1.0999    0.8929 C   0  0  0  0  0  0  0  0  0  0  0  0
   -2.7807    2.4846    1.0017 O   0  0  0  0  0  0  0  0  0  0  0  0
   -5.8304    0.8198   -0.1912 H   0  0  0  0  0  0  0  0  0  0  0  0
   -5.1419    2.2412    0.6453 H   0  0  0  0  0  0  0  0  0  0  0  0
   -5.8314    0.8593    1.6411 H   0  0  0  0  0  0  0  0  0  0  0  0
   -4.9534   -1.4822    0.5397 H   0  0  0  0  0  0  0  0  0  0  0  0
   -2.8940   -2.7704    0.5802 H   0  0  0  0  0  0  0  0  0  0  0  0
    4.6855   -2.3875    0.1607 H   0  0  0  0  0  0  0  0  0  0  0  0
    6.2821   -1.0486   -0.9975 H   0  0  0  0  0  0  0  0  0  0  0  0
    6.6657    1.5826   -1.7814 H   0  0  0  0  0  0  0  0  0  0  0  0
    3.2604    1.7522   -2.1211 H   0  0  0  0  0  0  0  0  0  0  0  0
   -0.6954    0.9003    1.0360 H   0  0  0  0  0  0  0  0  0  0  0  0
   -2.9612    3.0615    0.1701 H   0  0  0  0  0  0  0  0  0  0  0  0
  1  2  1  0
  2  3  2  0
  3  4  1  0
  4  5  2  0
  5  6  1  0
  6  7  2  0
  6  8  1  0
  8  9  2  0
  9 10  1  0
 10 11  2  0
 11 12  1  0
 12 13  2  0
 13 14  1  0
 13 15  1  0
 15 16  2  0
 16 17  1  0
  5 18  1  0
 18 19  2  0
 19 20  1  0
 19  2  1  0
 17  8  1  0
 16 10  1  0
  1 21  1  0
  1 22  1  0
  1 23  1  0
  3 24  1  0
  4 25  1  0
 11 26  1  0
 12 27  1  0
 14 28  1  0
 15 29  1  0
 18 30  1  0
 20 31  1  0
M  END
$$$$
