@<TRIPOS>MOLECULE
*****
 31 33 0 0 0
SMALL
GASTEIGER

@<TRIPOS>ATOM
      1 C          -5.2739    1.1367    0.7236 C.3     1  UNL1       -0.0363
      2 C          -3.9663    0.4281    0.7580 C.ar    1  UNL1       -0.0090
      3 C          -4.0079   -0.9539    0.6464 C.ar    1  UNL1       -0.0547
      4 C          -2.8641   -1.6974    0.6667 C.ar    1  UNL1       -0.0504
      5 C          -1.6469   -1.0169    0.8040 C.ar    1  UNL1        0.0278
      6 C          -0.4667   -1.8508    0.8432 C.2     1  UNL1        0.2181
      7 O          -0.5468   -3.0205    1.3345 O.2     1  UNL1       -0.2844
      8 C           0.8410   -1.3896    0.3271 C.ar    1  UNL1        0.1495
      9 N           1.9798   -1.6920    0.2818 N.ar    1  UNL1       -0.2357
     10 C           2.9845   -1.0963   -0.2943 C.ar    1  UNL1        0.0792
     11 C           4.3296   -1.4767   -0.3326 C.ar    1  UNL1       -0.0317
     12 C           5.2357   -0.6932   -1.0047 C.ar    1  UNL1       -0.0181
     13 C           4.9285    0.4669   -1.6629 C.ar    1  UNL1        0.1180
     14 O           5.8917    1.1880   -2.3077 O.3     1  UNL1       -0.5067
     15 C           3.5942    0.8573   -1.6330 C.ar    1  UNL1       -0.0043
     16 C           2.6654    0.0775   -0.9585 C.ar    1  UNL1        0.0431
     17 S           0.9093    0.2119   -0.6824 S.2     1  UNL1       -0.0639
     18 C          -1.6145    0.3511    0.9144 C.ar    1  UNL1       -0.0090
     19 C          -2.7780    1.0999    0.8929 C.ar    1  UNL1        0.1204
     20 O          -2.7807    2.4846    1.0017 O.3     1  UNL1       -0.5065
     21 H          -5.8304    0.8198   -0.1912 H       1  UNL1        0.0279
     22 H          -5.1419    2.2412    0.6453 H       1  UNL1        0.0279
     23 H          -5.8314    0.8593    1.6411 H       1  UNL1        0.0279
     24 H          -4.9534   -1.4822    0.5397 H       1  UNL1        0.0622
     25 H          -2.8940   -2.7704    0.5802 H       1  UNL1        0.0625
     26 H           4.6855   -2.3875    0.1607 H       1  UNL1        0.0640
     27 H           6.2821   -1.0486   -0.9975 H       1  UNL1        0.0655
     28 H           6.6657    1.5826   -1.7814 H       1  UNL1        0.2921
     29 H           3.2604    1.7522   -2.1211 H       1  UNL1        0.0666
     30 H          -0.6954    0.9003    1.0360 H       1  UNL1        0.0661
     31 H          -2.9612    3.0615    0.1701 H       1  UNL1        0.2921
@<TRIPOS>BOND
     1     1     2    1
     2     2     3   ar
     3     3     4   ar
     4     4     5   ar
     5     5     6    1
     6     6     7    2
     7     6     8    1
     8     8     9   ar
     9     9    10   ar
    10    10    11   ar
    11    11    12   ar
    12    12    13   ar
    13    13    14    1
    14    13    15   ar
    15    15    16   ar
    16    16    17   ar
    17     5    18   ar
    18    18    19   ar
    19    19    20    1
    20    19     2   ar
    21    17     8   ar
    22    16    10   ar
    23     1    21    1
    24     1    22    1
    25     1    23    1
    26     3    24    1
    27     4    25    1
    28    11    26    1
    29    12    27    1
    30    14    28    1
    31    15    29    1
    32    18    30    1
    33    20    31    1
