@<TRIPOS>MOLECULE
*****
 55 58 0 0 0
SMALL
GASTEIGER

@<TRIPOS>ATOM
      1 C           8.1130   -1.9997   -0.0923 C.3     1  UNL1        0.0790
      2 O           7.8464   -0.6436   -0.3755 O.3     1  UNL1       -0.4914
      3 C           6.5472   -0.1828   -0.5042 C.ar    1  UNL1        0.1618
      4 C           5.5101   -1.0760   -0.3508 C.ar    1  UNL1       -0.0123
      5 C           4.1862   -0.6409   -0.4751 C.ar    1  UNL1       -0.0292
      6 C           3.9019    0.6681   -0.7489 C.ar    1  UNL1        0.0282
      7 C           4.9474    1.5725   -0.9044 C.ar    1  UNL1       -0.0054
      8 C           6.2472    1.1334   -0.7799 C.ar    1  UNL1        0.1622
      9 O           7.2743    2.0381   -0.9359 O.3     1  UNL1       -0.4914
     10 C           6.9909    3.3880   -1.2182 C.3     1  UNL1        0.0790
     11 C           2.4701    0.8307   -0.8209 C.2     1  UNL1        0.2040
     12 O           1.7994    1.7393   -1.3277 O.2     1  UNL1       -0.2881
     13 C           1.8748   -0.3722   -0.1286 C.3     1  UNL1        0.1661
     14 O           0.6827   -0.7028   -0.7568 O.3     1  UNL1       -0.4807
     15 C          -0.5322   -0.8382   -0.1587 C.ar    1  UNL1        0.1216
     16 C          -0.7111   -0.6546    1.1789 C.ar    1  UNL1       -0.0197
     17 C          -1.9802   -0.8077    1.7315 C.ar    1  UNL1       -0.0551
     18 C          -3.0891   -1.1421    0.9816 C.ar    1  UNL1       -0.0459
     19 C          -4.3886   -1.2765    1.6871 C.3     1  UNL1       -0.0149
     20 C          -5.1033    0.0257    1.7450 C.3     1  UNL1        0.0029
     21 N          -5.4478    0.6456    0.5105 N.3     1  UNL1       -0.3020
     22 C          -6.0990    1.9184    0.8708 C.3     1  UNL1       -0.0011
     23 C          -7.2333    2.1304   -0.0688 C.3     1  UNL1       -0.0390
     24 C          -7.1472    1.0283   -1.0903 C.3     1  UNL1       -0.0390
     25 C          -6.3857   -0.0445   -0.3048 C.3     1  UNL1       -0.0011
     26 C          -2.9128   -1.3286   -0.3703 C.ar    1  UNL1       -0.0551
     27 C          -1.6611   -1.1797   -0.9281 C.ar    1  UNL1       -0.0197
     28 C           2.9317   -1.4473   -0.3456 C.3     1  UNL1        0.0177
     29 H           7.5225   -2.2939    0.8154 H       1  UNL1        0.0660
     30 H           7.7515   -2.5942   -0.9644 H       1  UNL1        0.0660
     31 H           9.1669   -2.1970    0.1104 H       1  UNL1        0.0660
     32 H           5.7189   -2.1098   -0.1345 H       1  UNL1        0.0658
     33 H           4.7099    2.6122   -1.1216 H       1  UNL1        0.0662
     34 H           6.3360    3.4709   -2.1174 H       1  UNL1        0.0660
     35 H           7.9476    3.9406   -1.3624 H       1  UNL1        0.0660
     36 H           6.4549    3.8841   -0.3785 H       1  UNL1        0.0660
     37 H           1.8366   -0.2048    0.9585 H       1  UNL1        0.0821
     38 H           0.0966   -0.3956    1.8214 H       1  UNL1        0.0654
     39 H          -2.0706   -0.6518    2.7969 H       1  UNL1        0.0621
     40 H          -4.1500   -1.5763    2.7285 H       1  UNL1        0.0326
     41 H          -4.9974   -2.1111    1.2835 H       1  UNL1        0.0326
     42 H          -6.0235   -0.0328    2.3643 H       1  UNL1        0.0430
     43 H          -4.4345    0.7437    2.2943 H       1  UNL1        0.0430
     44 H          -6.3608    1.9698    1.9299 H       1  UNL1        0.0426
     45 H          -5.3698    2.7667    0.7027 H       1  UNL1        0.0426
     46 H          -7.1808    3.0963   -0.6161 H       1  UNL1        0.0278
     47 H          -8.1874    2.0566    0.4976 H       1  UNL1        0.0278
     48 H          -8.1578    0.5851   -1.3252 H       1  UNL1        0.0278
     49 H          -6.5924    1.3059   -2.0016 H       1  UNL1        0.0278
     50 H          -6.0221   -0.7937   -0.9870 H       1  UNL1        0.0426
     51 H          -7.1440   -0.5164    0.3664 H       1  UNL1        0.0426
     52 H          -3.7742   -1.5904   -0.9540 H       1  UNL1        0.0621
     53 H          -1.4902   -1.3194   -1.9869 H       1  UNL1        0.0654
     54 H           2.7300   -2.0399   -1.2634 H       1  UNL1        0.0354
     55 H           3.0526   -2.1030    0.5239 H       1  UNL1        0.0354
@<TRIPOS>BOND
     1     1     2    1
     2     2     3    1
     3     3     4   ar
     4     4     5   ar
     5     5     6   ar
     6     6     7   ar
     7     7     8   ar
     8     8     9    1
     9     9    10    1
    10     6    11    1
    11    11    12    2
    12    11    13    1
    13    13    14    1
    14    14    15    1
    15    15    16   ar
    16    16    17   ar
    17    17    18   ar
    18    18    19    1
    19    19    20    1
    20    20    21    1
    21    21    22    1
    22    22    23    1
    23    23    24    1
    24    24    25    1
    25    18    26   ar
    26    26    27   ar
    27    13    28    1
    28     8     3   ar
    29    27    15   ar
    30    28     5    1
    31    25    21    1
    32     1    29    1
    33     1    30    1
    34     1    31    1
    35     4    32    1
    36     7    33    1
    37    10    34    1
    38    10    35    1
    39    10    36    1
    40    13    37    1
    41    16    38    1
    42    17    39    1
    43    19    40    1
    44    19    41    1
    45    20    42    1
    46    20    43    1
    47    22    44    1
    48    22    45    1
    49    23    46    1
    50    23    47    1
    51    24    48    1
    52    24    49    1
    53    25    50    1
    54    25    51    1
    55    26    52    1
    56    27    53    1
    57    28    54    1
    58    28    55    1
