
     RDKit          3D

 55 58  0  0  0  0  0  0  0  0999 V2000
    8.1130   -1.9997   -0.0923 C   0  0  0  0  0  0  0  0  0  0  0  0
    7.8464   -0.6436   -0.3755 O   0  0  0  0  0  0  0  0  0  0  0  0
    6.5472   -0.1828   -0.5042 C   0  0  0  0  0  0  0  0  0  0  0  0
    5.5101   -1.0760   -0.3508 C   0  0  0  0  0  0  0  0  0  0  0  0
    4.1862   -0.6409   -0.4751 C   0  0  0  0  0  0  0  0  0  0  0  0
    3.9019    0.6681   -0.7489 C   0  0  0  0  0  0  0  0  0  0  0  0
    4.9474    1.5725   -0.9044 C   0  0  0  0  0  0  0  0  0  0  0  0
    6.2472    1.1334   -0.7799 C   0  0  0  0  0  0  0  0  0  0  0  0
    7.2743    2.0381   -0.9359 O   0  0  0  0  0  0  0  0  0  0  0  0
    6.9909    3.3880   -1.2182 C   0  0  0  0  0  0  0  0  0  0  0  0
    2.4701    0.8307   -0.8209 C   0  0  0  0  0  0  0  0  0  0  0  0
    1.7994    1.7393   -1.3277 O   0  0  0  0  0  0  0  0  0  0  0  0
    1.8748   -0.3722   -0.1286 C   0  0  0  0  0  0  0  0  0  0  0  0
    0.6827   -0.7028   -0.7568 O   0  0  0  0  0  0  0  0  0  0  0  0
   -0.5322   -0.8382   -0.1587 C   0  0  0  0  0  0  0  0  0  0  0  0
   -0.7111   -0.6546    1.1789 C   0  0  0  0  0  0  0  0  0  0  0  0
   -1.9802   -0.8077    1.7315 C   0  0  0  0  0  0  0  0  0  0  0  0
   -3.0891   -1.1421    0.9816 C   0  0  0  0  0  0  0  0  0  0  0  0
   -4.3886   -1.2765    1.6871 C   0  0  0  0  0  0  0  0  0  0  0  0
   -5.1033    0.0257    1.7450 C   0  0  0  0  0  0  0  0  0  0  0  0
   -5.4478    0.6456    0.5105 N   0  0  0  0  0  0  0  0  0  0  0  0
   -6.0990    1.9184    0.8708 C   0  0  0  0  0  0  0  0  0  0  0  0
   -7.2333    2.1304   -0.0688 C   0  0  0  0  0  0  0  0  0  0  0  0
   -7.1472    1.0283   -1.0903 C   0  0  0  0  0  0  0  0  0  0  0  0
   -6.3857   -0.0445   -0.3048 C   0  0  0  0  0  0  0  0  0  0  0  0
   -2.9128   -1.3286   -0.3703 C   0  0  0  0  0  0  0  0  0  0  0  0
   -1.6611   -1.1797   -0.9281 C   0  0  0  0  0  0  0  0  0  0  0  0
    2.9317   -1.4473   -0.3456 C   0  0  0  0  0  0  0  0  0  0  0  0
    7.5225   -2.2939    0.8154 H   0  0  0  0  0  0  0  0  0  0  0  0
    7.7515   -2.5942   -0.9644 H   0  0  0  0  0  0  0  0  0  0  0  0
    9.1669   -2.1970    0.1104 H   0  0  0  0  0  0  0  0  0  0  0  0
    5.7189   -2.1098   -0.1345 H   0  0  0  0  0  0  0  0  0  0  0  0
    4.7099    2.6122   -1.1216 H   0  0  0  0  0  0  0  0  0  0  0  0
    6.3360    3.4709   -2.1174 H   0  0  0  0  0  0  0  0  0  0  0  0
    7.9476    3.9406   -1.3624 H   0  0  0  0  0  0  0  0  0  0  0  0
    6.4549    3.8841   -0.3785 H   0  0  0  0  0  0  0  0  0  0  0  0
    1.8366   -0.2048    0.9585 H   0  0  0  0  0  0  0  0  0  0  0  0
    0.0966   -0.3956    1.8214 H   0  0  0  0  0  0  0  0  0  0  0  0
   -2.0706   -0.6518    2.7969 H   0  0  0  0  0  0  0  0  0  0  0  0
   -4.1500   -1.5763    2.7285 H   0  0  0  0  0  0  0  0  0  0  0  0
   -4.9974   -2.1111    1.2835 H   0  0  0  0  0  0  0  0  0  0  0  0
   -6.0235   -0.0328    2.3643 H   0  0  0  0  0  0  0  0  0  0  0  0
   -4.4345    0.7437    2.2943 H   0  0  0  0  0  0  0  0  0  0  0  0
   -6.3608    1.9698    1.9299 H   0  0  0  0  0  0  0  0  0  0  0  0
   -5.3698    2.7667    0.7027 H   0  0  0  0  0  0  0  0  0  0  0  0
   -7.1808    3.0963   -0.6161 H   0  0  0  0  0  0  0  0  0  0  0  0
   -8.1874    2.0566    0.4976 H   0  0  0  0  0  0  0  0  0  0  0  0
   -8.1578    0.5851   -1.3252 H   0  0  0  0  0  0  0  0  0  0  0  0
   -6.5924    1.3059   -2.0016 H   0  0  0  0  0  0  0  0  0  0  0  0
   -6.0221   -0.7937   -0.9870 H   0  0  0  0  0  0  0  0  0  0  0  0
   -7.1440   -0.5164    0.3664 H   0  0  0  0  0  0  0  0  0  0  0  0
   -3.7742   -1.5904   -0.9540 H   0  0  0  0  0  0  0  0  0  0  0  0
   -1.4902   -1.3194   -1.9869 H   0  0  0  0  0  0  0  0  0  0  0  0
    2.7300   -2.0399   -1.2634 H   0  0  0  0  0  0  0  0  0  0  0  0
    3.0526   -2.1030    0.5239 H   0  0  0  0  0  0  0  0  0  0  0  0
  1  2  1  0
  2  3  1  0
  3  4  2  0
  4  5  1  0
  5  6  2  0
  6  7  1  0
  7  8  2  0
  8  9  1  0
  9 10  1  0
  6 11  1  0
 11 12  2  0
 11 13  1  0
 13 14  1  0
 14 15  1  0
 15 16  2  0
 16 17  1  0
 17 18  2  0
 18 19  1  0
 19 20  1  0
 20 21  1  0
 21 22  1  0
 22 23  1  0
 23 24  1  0
 24 25  1  0
 18 26  1  0
 26 27  2  0
 13 28  1  0
  8  3  1  0
 27 15  1  0
 28  5  1  0
 25 21  1  0
  1 29  1  0
  1 30  1  0
  1 31  1  0
  4 32  1  0
  7 33  1  0
 10 34  1  0
 10 35  1  0
 10 36  1  0
 13 37  1  0
 16 38  1  0
 17 39  1  0
 19 40  1  0
 19 41  1  0
 20 42  1  0
 20 43  1  0
 22 44  1  0
 22 45  1  0
 23 46  1  0
 23 47  1  0
 24 48  1  0
 24 49  1  0
 25 50  1  0
 25 51  1  0
 26 52  1  0
 27 53  1  0
 28 54  1  0
 28 55  1  0
M  END
$$$$
