@<TRIPOS>MOLECULE
*****
 60 63 0 0 0
SMALL
GASTEIGER

@<TRIPOS>ATOM
      1 C          -7.7161   -0.9428    2.3087 C.3     1  UNL1        0.0788
      2 O          -6.4886   -0.6099    1.7314 O.3     1  UNL1       -0.4948
      3 C          -6.2963    0.4719    0.8867 C.ar    1  UNL1        0.1245
      4 C          -7.4129    1.2711    0.6077 C.ar    1  UNL1       -0.0196
      5 C          -7.2868    2.3606   -0.2206 C.ar    1  UNL1       -0.0583
      6 C          -6.0722    2.6487   -0.7607 C.ar    1  UNL1       -0.0612
      7 C          -4.9758    1.8496   -0.4765 C.ar    1  UNL1       -0.0539
      8 C          -5.0666    0.7447    0.3530 C.ar    1  UNL1        0.0082
      9 C          -3.8739   -0.0890    0.6099 C.3     1  UNL1        0.0275
     10 N          -3.7498   -1.2734   -0.1336 N.3     1  UNL1       -0.2969
     11 C          -4.7351   -2.2769   -0.0407 C.3     1  UNL1       -0.0121
     12 C          -3.0435   -1.2299   -1.3655 C.3     1  UNL1        0.0241
     13 C          -1.6355   -0.8331   -1.2937 C.ar    1  UNL1       -0.0333
     14 C          -1.1783    0.4624   -1.3987 C.ar    1  UNL1       -0.0568
     15 C           0.1378    0.8275   -1.3315 C.ar    1  UNL1       -0.0535
     16 C           1.0914   -0.1463   -1.1469 C.ar    1  UNL1       -0.0110
     17 C           2.4893    0.1936   -1.0716 C.ar    1  UNL1        0.0672
     18 C           3.3038   -0.3649   -0.1088 C.ar    1  UNL1       -0.0364
     19 C           4.6502   -0.0273   -0.0516 C.ar    1  UNL1        0.0219
     20 C           5.4975   -0.5665    0.8987 C.ar    1  UNL1       -0.0056
     21 C           6.8327   -0.2527    0.9809 C.ar    1  UNL1        0.1623
     22 O           7.6420   -0.8214    1.9537 O.3     1  UNL1       -0.4914
     23 C           7.0850   -1.7273    2.8619 C.3     1  UNL1        0.0790
     24 C           7.3240    0.6512    0.0519 C.ar    1  UNL1        0.1650
     25 O           8.6653    0.9696    0.1306 O.3     1  UNL1       -0.4913
     26 C           9.2778    1.8792   -0.7630 C.3     1  UNL1        0.0790
     27 C           6.4931    1.1964   -0.9001 C.ar    1  UNL1        0.0267
     28 C           5.1708    0.8781   -0.9723 C.ar    1  UNL1        0.1428
     29 O           4.3481    1.3752   -1.8631 O.2     1  UNL1       -0.4216
     30 C           3.0740    1.0822   -1.9494 C.ar    1  UNL1        0.3451
     31 O           2.3987    1.6479   -2.8723 O.2     1  UNL1       -0.2445
     32 C           0.6911   -1.4669   -1.0344 C.ar    1  UNL1       -0.0535
     33 C          -0.6440   -1.8034   -1.1062 C.ar    1  UNL1       -0.0568
     34 H          -8.4379   -1.2107    1.4928 H       1  UNL1        0.0660
     35 H          -7.5717   -1.8900    2.8855 H       1  UNL1        0.0660
     36 H          -8.1397   -0.1615    2.9499 H       1  UNL1        0.0660
     37 H          -8.3754    1.0480    1.0319 H       1  UNL1        0.0654
     38 H          -8.1445    3.0076   -0.4588 H       1  UNL1        0.0619
     39 H          -6.0007    3.5142   -1.4103 H       1  UNL1        0.0618
     40 H          -4.0497    2.1460   -0.9438 H       1  UNL1        0.0622
     41 H          -3.8465   -0.3793    1.7109 H       1  UNL1        0.0477
     42 H          -2.9277    0.5033    0.4925 H       1  UNL1        0.0477
     43 H          -5.7359   -2.0198   -0.4556 H       1  UNL1        0.0391
     44 H          -4.8534   -2.6437    1.0060 H       1  UNL1        0.0391
     45 H          -4.3637   -3.1913   -0.5908 H       1  UNL1        0.0391
     46 H          -3.1642   -2.2503   -1.8386 H       1  UNL1        0.0476
     47 H          -3.5467   -0.5475   -2.1133 H       1  UNL1        0.0476
     48 H          -1.9186    1.2391   -1.5465 H       1  UNL1        0.0621
     49 H           0.4823    1.8601   -1.4166 H       1  UNL1        0.0624
     50 H           2.9551   -1.0718    0.6303 H       1  UNL1        0.0633
     51 H           5.0943   -1.2713    1.6163 H       1  UNL1        0.0662
     52 H           6.6988   -2.5905    2.2602 H       1  UNL1        0.0660
     53 H           7.9149   -2.1210    3.5168 H       1  UNL1        0.0660
     54 H           6.2668   -1.3295    3.4672 H       1  UNL1        0.0660
     55 H          10.3648    1.7846   -0.7785 H       1  UNL1        0.0660
     56 H           9.0484    2.9288   -0.4432 H       1  UNL1        0.0660
     57 H           8.9231    1.7548   -1.8060 H       1  UNL1        0.0660
     58 H           6.8982    1.9071   -1.6232 H       1  UNL1        0.0692
     59 H           1.4265   -2.2500   -0.8885 H       1  UNL1        0.0624
     60 H          -0.9938   -2.8430   -1.0202 H       1  UNL1        0.0621
@<TRIPOS>BOND
     1     1     2    1
     2     2     3    1
     3     3     4   ar
     4     4     5   ar
     5     5     6   ar
     6     6     7   ar
     7     7     8   ar
     8     8     9    1
     9     9    10    1
    10    10    11    1
    11    10    12    1
    12    12    13    1
    13    13    14   ar
    14    14    15   ar
    15    15    16   ar
    16    16    17    1
    17    17    18   ar
    18    18    19   ar
    19    19    20   ar
    20    20    21   ar
    21    21    22    1
    22    22    23    1
    23    21    24   ar
    24    24    25    1
    25    25    26    1
    26    24    27   ar
    27    27    28   ar
    28    28    29   ar
    29    29    30   ar
    30    30    31    2
    31    16    32   ar
    32    32    33   ar
    33     8     3   ar
    34    33    13   ar
    35    30    17   ar
    36    28    19   ar
    37     1    34    1
    38     1    35    1
    39     1    36    1
    40     4    37    1
    41     5    38    1
    42     6    39    1
    43     7    40    1
    44     9    41    1
    45     9    42    1
    46    11    43    1
    47    11    44    1
    48    11    45    1
    49    12    46    1
    50    12    47    1
    51    14    48    1
    52    15    49    1
    53    18    50    1
    54    20    51    1
    55    23    52    1
    56    23    53    1
    57    23    54    1
    58    26    55    1
    59    26    56    1
    60    26    57    1
    61    27    58    1
    62    32    59    1
    63    33    60    1
