
     RDKit          3D

 61 65  0  0  0  0  0  0  0  0999 V2000
   -0.7423    7.0015   -0.8395 C   0  0  0  0  0  0  0  0  0  0  0  0
    0.2846    6.2455   -0.2127 O   0  0  0  0  0  0  0  0  0  0  0  0
    0.1936    4.8605   -0.1975 C   0  0  0  0  0  0  0  0  0  0  0  0
    1.2239    4.1542    0.4286 C   0  0  0  0  0  0  0  0  0  0  0  0
    1.1734    2.7749    0.4666 C   0  0  0  0  0  0  0  0  0  0  0  0
    0.1386    2.0551   -0.0925 C   0  0  0  0  0  0  0  0  0  0  0  0
    0.1612    0.5704   -0.0084 C   0  0  0  0  0  0  0  0  0  0  0  0
    1.3059   -0.0010   -0.7641 C   0  0  0  0  0  0  0  0  0  0  0  0
    1.3844    0.1674   -2.1243 C   0  0  0  0  0  0  0  0  0  0  0  0
    2.4620   -0.3715   -2.8328 C   0  0  0  0  0  0  0  0  0  0  0  0
    3.4601   -1.0750   -2.2023 C   0  0  0  0  0  0  0  0  0  0  0  0
    3.3828   -1.2476   -0.8201 C   0  0  0  0  0  0  0  0  0  0  0  0
    4.4392   -1.9952   -0.1378 C   0  0  0  0  0  0  0  0  0  0  0  0
    5.7235   -1.9557   -0.6173 C   0  0  0  0  0  0  0  0  0  0  0  0
    6.7128   -2.6715    0.0429 C   0  0  0  0  0  0  0  0  0  0  0  0
    6.4403   -3.4222    1.1688 C   0  0  0  0  0  0  0  0  0  0  0  0
    5.1764   -3.4425    1.6149 N   0  0  0  0  0  0  0  0  0  0  0  0
    4.1903   -2.7515    0.9879 C   0  0  0  0  0  0  0  0  0  0  0  0
    2.3119   -0.7078   -0.1415 C   0  0  0  0  0  0  0  0  0  0  0  0
    0.2855    0.2394    1.3894 N   0  0  0  0  0  0  0  0  0  0  0  0
   -0.8239   -0.4924    1.8314 C   0  0  0  0  0  0  0  0  0  0  0  0
   -1.0049   -0.9207    3.0362 N   0  0  0  0  0  0  0  0  0  0  0  0
   -1.7327   -0.6908    0.7246 N   0  0  0  0  0  0  0  0  0  0  0  0
   -2.9598   -1.3992    0.8436 C   0  0  0  0  0  0  0  0  0  0  0  0
   -4.1687   -0.5836    0.4598 C   0  0  0  0  0  0  0  0  0  0  0  0
   -5.4270   -1.3267    0.7676 C   0  0  0  0  0  0  0  0  0  0  0  0
   -5.4568   -2.7383    0.3115 C   0  0  0  0  0  0  0  0  0  0  0  0
   -4.1568   -3.4748    0.4717 C   0  0  0  0  0  0  0  0  0  0  0  0
   -2.9991   -2.6447   -0.0470 C   0  0  0  0  0  0  0  0  0  0  0  0
   -1.1199   -0.0519   -0.3795 C   0  0  0  0  0  0  0  0  0  0  0  0
   -1.6555   -0.0456   -1.5355 O   0  0  0  0  0  0  0  0  0  0  0  0
   -0.8673    2.7706   -0.7049 C   0  0  0  0  0  0  0  0  0  0  0  0
   -0.8497    4.1580   -0.7624 C   0  0  0  0  0  0  0  0  0  0  0  0
   -0.5632    8.0787   -0.7199 H   0  0  0  0  0  0  0  0  0  0  0  0
   -1.7121    6.7527   -0.3936 H   0  0  0  0  0  0  0  0  0  0  0  0
   -0.7843    6.7020   -1.9054 H   0  0  0  0  0  0  0  0  0  0  0  0
    2.0546    4.6630    0.8810 H   0  0  0  0  0  0  0  0  0  0  0  0
    2.0120    2.2722    0.9726 H   0  0  0  0  0  0  0  0  0  0  0  0
    0.6323    0.7096   -2.6759 H   0  0  0  0  0  0  0  0  0  0  0  0
    2.5273   -0.2403   -3.9091 H   0  0  0  0  0  0  0  0  0  0  0  0
    4.3110   -1.5046   -2.7369 H   0  0  0  0  0  0  0  0  0  0  0  0
    5.9667   -1.3655   -1.5120 H   0  0  0  0  0  0  0  0  0  0  0  0
    7.7320   -2.6399   -0.3378 H   0  0  0  0  0  0  0  0  0  0  0  0
    7.2146   -3.9861    1.6904 H   0  0  0  0  0  0  0  0  0  0  0  0
    3.1628   -2.7663    1.3480 H   0  0  0  0  0  0  0  0  0  0  0  0
    2.2953   -0.8707    0.9488 H   0  0  0  0  0  0  0  0  0  0  0  0
    1.1231    0.5346    1.9586 H   0  0  0  0  0  0  0  0  0  0  0  0
   -0.2763   -0.7119    3.7448 H   0  0  0  0  0  0  0  0  0  0  0  0
   -3.1142   -1.7635    1.8684 H   0  0  0  0  0  0  0  0  0  0  0  0
   -4.1444   -0.3718   -0.6220 H   0  0  0  0  0  0  0  0  0  0  0  0
   -4.2104    0.3922    0.9799 H   0  0  0  0  0  0  0  0  0  0  0  0
   -6.2630   -0.7856    0.2328 H   0  0  0  0  0  0  0  0  0  0  0  0
   -5.6986   -1.2428    1.8503 H   0  0  0  0  0  0  0  0  0  0  0  0
   -5.7740   -2.8672   -0.7503 H   0  0  0  0  0  0  0  0  0  0  0  0
   -6.2217   -3.2838    0.9125 H   0  0  0  0  0  0  0  0  0  0  0  0
   -4.2370   -4.4228   -0.1060 H   0  0  0  0  0  0  0  0  0  0  0  0
   -3.9473   -3.7656    1.5184 H   0  0  0  0  0  0  0  0  0  0  0  0
   -2.0566   -3.1730    0.1181 H   0  0  0  0  0  0  0  0  0  0  0  0
   -3.1745   -2.3107   -1.0795 H   0  0  0  0  0  0  0  0  0  0  0  0
   -1.7011    2.2519   -1.1580 H   0  0  0  0  0  0  0  0  0  0  0  0
   -1.6391    4.7278   -1.2436 H   0  0  0  0  0  0  0  0  0  0  0  0
  1  2  1  0
  2  3  1  0
  3  4  2  0
  4  5  1  0
  5  6  2  0
  6  7  1  0
  7  8  1  0
  8  9  2  0
  9 10  1  0
 10 11  2  0
 11 12  1  0
 12 13  1  0
 13 14  2  0
 14 15  1  0
 15 16  2  0
 16 17  1  0
 17 18  2  0
 12 19  2  0
  7 20  1  0
 20 21  1  0
 21 22  2  3
 21 23  1  0
 23 24  1  0
 24 25  1  0
 25 26  1  0
 26 27  1  0
 27 28  1  0
 28 29  1  0
 23 30  1  0
 30 31  2  0
  6 32  1  0
 32 33  2  0
 33  3  1  0
 30  7  1  0
 19  8  1  0
 29 24  1  0
 18 13  1  0
  1 34  1  0
  1 35  1  0
  1 36  1  0
  4 37  1  0
  5 38  1  0
  9 39  1  0
 10 40  1  0
 11 41  1  0
 14 42  1  0
 15 43  1  0
 16 44  1  0
 18 45  1  0
 19 46  1  0
 20 47  1  0
 22 48  1  0
 24 49  1  0
 25 50  1  0
 25 51  1  0
 26 52  1  0
 26 53  1  0
 27 54  1  0
 27 55  1  0
 28 56  1  0
 28 57  1  0
 29 58  1  0
 29 59  1  0
 32 60  1  0
 33 61  1  0
M  END
$$$$
