@<TRIPOS>MOLECULE
*****
 61 65 0 0 0
SMALL
GASTEIGER

@<TRIPOS>ATOM
      1 C          -0.7423    7.0015   -0.8395 C.3     1  UNL1        0.0788
      2 O           0.2846    6.2455   -0.2127 O.3     1  UNL1       -0.4951
      3 C           0.1936    4.8605   -0.1975 C.ar    1  UNL1        0.1201
      4 C           1.2239    4.1542    0.4286 C.ar    1  UNL1       -0.0196
      5 C           1.1734    2.7749    0.4666 C.ar    1  UNL1       -0.0509
      6 C           0.1386    2.0551   -0.0925 C.ar    1  UNL1        0.0055
      7 C           0.1612    0.5704   -0.0084 C.3     1  UNL1        0.2215
      8 C           1.3059   -0.0010   -0.7641 C.ar    1  UNL1        0.0058
      9 C           1.3844    0.1674   -2.1243 C.ar    1  UNL1       -0.0543
     10 C           2.4620   -0.3715   -2.8328 C.ar    1  UNL1       -0.0608
     11 C           3.4601   -1.0750   -2.2023 C.ar    1  UNL1       -0.0540
     12 C           3.3828   -1.2476   -0.8201 C.ar    1  UNL1       -0.0160
     13 C           4.4392   -1.9952   -0.1378 C.ar    1  UNL1        0.0002
     14 C           5.7235   -1.9557   -0.6173 C.ar    1  UNL1       -0.0512
     15 C           6.7128   -2.6715    0.0429 C.ar    1  UNL1       -0.0430
     16 C           6.4403   -3.4222    1.1688 C.ar    1  UNL1        0.0276
     17 N           5.1764   -3.4425    1.6149 N.ar    1  UNL1       -0.2627
     18 C           4.1903   -2.7515    0.9879 C.ar    1  UNL1        0.0352
     19 C           2.3119   -0.7078   -0.1415 C.ar    1  UNL1       -0.0465
     20 N           0.2855    0.2394    1.3894 N.pl3   1  UNL1       -0.2151
     21 C          -0.8239   -0.4924    1.8314 C.2     1  UNL1        0.3729
     22 N          -1.0049   -0.9207    3.0362 N.2     1  UNL1       -0.1329
     23 N          -1.7327   -0.6908    0.7246 N.am    1  UNL1       -0.1561
     24 C          -2.9598   -1.3992    0.8436 C.3     1  UNL1        0.0795
     25 C          -4.1687   -0.5836    0.4598 C.3     1  UNL1       -0.0205
     26 C          -5.4270   -1.3267    0.7676 C.3     1  UNL1       -0.0501
     27 C          -5.4568   -2.7383    0.3115 C.3     1  UNL1       -0.0529
     28 C          -4.1568   -3.4748    0.4717 C.3     1  UNL1       -0.0501
     29 C          -2.9991   -2.6447   -0.0470 C.3     1  UNL1       -0.0205
     30 C          -1.1199   -0.0519   -0.3795 C.2     1  UNL1        0.3252
     31 O          -1.6555   -0.0456   -1.5355 O.2     1  UNL1       -0.2524
     32 C          -0.8673    2.7706   -0.7049 C.ar    1  UNL1       -0.0509
     33 C          -0.8497    4.1580   -0.7624 C.ar    1  UNL1       -0.0196
     34 H          -0.5632    8.0787   -0.7199 H       1  UNL1        0.0660
     35 H          -1.7121    6.7527   -0.3936 H       1  UNL1        0.0660
     36 H          -0.7843    6.7020   -1.9054 H       1  UNL1        0.0660
     37 H           2.0546    4.6630    0.8810 H       1  UNL1        0.0654
     38 H           2.0120    2.2722    0.9726 H       1  UNL1        0.0623
     39 H           0.6323    0.7096   -2.6759 H       1  UNL1        0.0622
     40 H           2.5273   -0.2403   -3.9091 H       1  UNL1        0.0618
     41 H           4.3110   -1.5046   -2.7369 H       1  UNL1        0.0624
     42 H           5.9667   -1.3655   -1.5120 H       1  UNL1        0.0625
     43 H           7.7320   -2.6399   -0.3378 H       1  UNL1        0.0633
     44 H           7.2146   -3.9861    1.6904 H       1  UNL1        0.0829
     45 H           3.1628   -2.7663    1.3480 H       1  UNL1        0.0836
     46 H           2.2953   -0.8707    0.9488 H       1  UNL1        0.0628
     47 H           1.1231    0.5346    1.9586 H       1  UNL1        0.2462
     48 H          -0.2763   -0.7119    3.7448 H       1  UNL1        0.3058
     49 H          -3.1142   -1.7635    1.8684 H       1  UNL1        0.0675
     50 H          -4.1444   -0.3718   -0.6220 H       1  UNL1        0.0297
     51 H          -4.2104    0.3922    0.9799 H       1  UNL1        0.0297
     52 H          -6.2630   -0.7856    0.2328 H       1  UNL1        0.0266
     53 H          -5.6986   -1.2428    1.8503 H       1  UNL1        0.0266
     54 H          -5.7740   -2.8672   -0.7503 H       1  UNL1        0.0265
     55 H          -6.2217   -3.2838    0.9125 H       1  UNL1        0.0265
     56 H          -4.2370   -4.4228   -0.1060 H       1  UNL1        0.0266
     57 H          -3.9473   -3.7656    1.5184 H       1  UNL1        0.0266
     58 H          -2.0566   -3.1730    0.1181 H       1  UNL1        0.0297
     59 H          -3.1745   -2.3107   -1.0795 H       1  UNL1        0.0297
     60 H          -1.7011    2.2519   -1.1580 H       1  UNL1        0.0623
     61 H          -1.6391    4.7278   -1.2436 H       1  UNL1        0.0654
@<TRIPOS>BOND
     1     1     2    1
     2     2     3    1
     3     3     4   ar
     4     4     5   ar
     5     5     6   ar
     6     6     7    1
     7     7     8    1
     8     8     9   ar
     9     9    10   ar
    10    10    11   ar
    11    11    12   ar
    12    12    13    1
    13    13    14   ar
    14    14    15   ar
    15    15    16   ar
    16    16    17   ar
    17    17    18   ar
    18    12    19   ar
    19     7    20    1
    20    20    21    1
    21    21    22    2
    22    21    23    1
    23    23    24    1
    24    24    25    1
    25    25    26    1
    26    26    27    1
    27    27    28    1
    28    28    29    1
    29    23    30   am
    30    30    31    2
    31     6    32   ar
    32    32    33   ar
    33    33     3   ar
    34    30     7    1
    35    19     8   ar
    36    29    24    1
    37    18    13   ar
    38     1    34    1
    39     1    35    1
    40     1    36    1
    41     4    37    1
    42     5    38    1
    43     9    39    1
    44    10    40    1
    45    11    41    1
    46    14    42    1
    47    15    43    1
    48    16    44    1
    49    18    45    1
    50    19    46    1
    51    20    47    1
    52    22    48    1
    53    24    49    1
    54    25    50    1
    55    25    51    1
    56    26    52    1
    57    26    53    1
    58    27    54    1
    59    27    55    1
    60    28    56    1
    61    28    57    1
    62    29    58    1
    63    29    59    1
    64    32    60    1
    65    33    61    1
