@<TRIPOS>MOLECULE
*****
 61 65 0 0 0
SMALL
GASTEIGER

@<TRIPOS>ATOM
      1 O           7.4383   -0.7255   -2.9078 O.2     1  UNL1       -0.2451
      2 C           7.0815   -0.5995   -1.7152 C.2     1  UNL1        0.3368
      3 O           7.9454   -0.8428   -0.6663 O.3     1  UNL1       -0.4771
      4 C           5.7179   -0.1850   -1.4368 C.ar    1  UNL1        0.0603
      5 C           4.8102    0.0723   -2.4683 C.ar    1  UNL1       -0.0459
      6 C           3.5213    0.4633   -2.2463 C.ar    1  UNL1       -0.0383
      7 C           3.1044    0.6085   -0.9417 C.ar    1  UNL1        0.0520
      8 N           1.7614    1.0175   -0.6668 N.am    1  UNL1       -0.2826
      9 C           0.7449    0.0454   -0.5172 C.2     1  UNL1        0.2405
     10 O           1.0919   -1.1637   -0.6454 O.2     1  UNL1       -0.2732
     11 C          -0.6456    0.3664   -0.2329 C.3     1  UNL1        0.1154
     12 C          -0.9225    0.9660    1.1200 C.3     1  UNL1       -0.0116
     13 C          -2.4283    1.2275    1.2279 C.3     1  UNL1       -0.0479
     14 C          -2.7892    2.5361    0.5717 C.3     1  UNL1       -0.0527
     15 C          -2.3182    3.7086    1.4198 C.3     1  UNL1       -0.0530
     16 C          -1.1106    3.1994    2.1931 C.3     1  UNL1       -0.0527
     17 C          -0.2859    2.3380    1.2140 C.3     1  UNL1       -0.0479
     18 N          -1.5666   -0.6938   -0.6034 N.ar    1  UNL1       -0.3112
     19 C          -1.9679   -1.7562    0.1071 C.ar    1  UNL1        0.1425
     20 C          -1.6020   -2.1559    1.4515 C.ar    1  UNL1        0.0176
     21 C          -2.3675   -1.8301    2.5426 C.ar    1  UNL1       -0.0497
     22 C          -1.9944   -2.2468    3.8285 C.ar    1  UNL1       -0.0427
     23 C          -0.8483   -2.9928    4.0154 C.ar    1  UNL1        0.0410
     24 CL         -0.3761   -3.5198    5.6440 Cl      1  UNL1       -0.0835
     25 C          -0.0910   -3.3135    2.9225 C.ar    1  UNL1       -0.0427
     26 C          -0.4801   -2.8923    1.6738 C.ar    1  UNL1       -0.0497
     27 N          -2.8476   -2.4773   -0.6801 N.ar    1  UNL1       -0.2274
     28 C          -2.9967   -1.8802   -1.8627 C.ar    1  UNL1        0.0926
     29 C          -3.7449   -2.1900   -2.9762 C.ar    1  UNL1        0.0039
     30 C          -3.6734   -1.3454   -4.0599 C.ar    1  UNL1        0.1605
     31 F          -4.3813   -1.6032   -5.1647 F       1  UNL1       -0.2024
     32 C          -2.8686   -0.2065   -4.0385 C.ar    1  UNL1        0.1605
     33 F          -2.8450    0.5850   -5.1449 F       1  UNL1       -0.2024
     34 C          -2.1405    0.0661   -2.9128 C.ar    1  UNL1        0.0021
     35 C          -2.1993   -0.7710   -1.8135 C.ar    1  UNL1        0.0727
     36 C           3.9411    0.3727    0.1025 C.ar    1  UNL1        0.0629
     37 CL          3.4400    0.5487    1.7665 Cl      1  UNL1       -0.0816
     38 C           5.2538   -0.0259   -0.1507 C.ar    1  UNL1       -0.0276
     39 H           8.7934   -1.3810   -0.7979 H       1  UNL1        0.2954
     40 H           5.1574   -0.0477   -3.4988 H       1  UNL1        0.0626
     41 H           2.8276    0.6594   -3.0665 H       1  UNL1        0.0637
     42 H           1.6222    2.0433   -0.6053 H       1  UNL1        0.1549
     43 H          -0.8858    1.2297   -0.9527 H       1  UNL1        0.0627
     44 H          -0.5797    0.3092    1.9361 H       1  UNL1        0.0325
     45 H          -2.7342    1.2333    2.2902 H       1  UNL1        0.0269
     46 H          -2.9754    0.4062    0.7265 H       1  UNL1        0.0269
     47 H          -2.3329    2.5598   -0.4354 H       1  UNL1        0.0265
     48 H          -3.8801    2.5902    0.4249 H       1  UNL1        0.0265
     49 H          -1.9552    4.4924    0.7029 H       1  UNL1        0.0265
     50 H          -3.0978    4.1124    2.0653 H       1  UNL1        0.0265
     51 H          -0.4361    4.0246    2.4971 H       1  UNL1        0.0265
     52 H          -1.4031    2.6328    3.0783 H       1  UNL1        0.0265
     53 H           0.7587    2.2846    1.5490 H       1  UNL1        0.0269
     54 H          -0.4101    2.8491    0.2430 H       1  UNL1        0.0269
     55 H          -3.2670   -1.2549    2.4671 H       1  UNL1        0.0625
     56 H          -2.5728   -2.0065    4.6948 H       1  UNL1        0.0632
     57 H           0.8144   -3.8984    3.0387 H       1  UNL1        0.0632
     58 H           0.1409   -3.1782    0.8454 H       1  UNL1        0.0625
     59 H          -4.3510   -3.0804   -2.9446 H       1  UNL1        0.0669
     60 H          -1.5194    0.9316   -2.8769 H       1  UNL1        0.0668
     61 H           5.9251   -0.2154    0.6696 H       1  UNL1        0.0641
@<TRIPOS>BOND
     1     1     2    2
     2     2     3    1
     3     2     4    1
     4     4     5   ar
     5     5     6   ar
     6     6     7   ar
     7     7     8    1
     8     8     9   am
     9     9    10    2
    10     9    11    1
    11    11    12    1
    12    12    13    1
    13    13    14    1
    14    14    15    1
    15    15    16    1
    16    16    17    1
    17    11    18    1
    18    18    19   ar
    19    19    20    1
    20    20    21   ar
    21    21    22   ar
    22    22    23   ar
    23    23    24    1
    24    23    25   ar
    25    25    26   ar
    26    19    27   ar
    27    27    28   ar
    28    28    29   ar
    29    29    30   ar
    30    30    31    1
    31    30    32   ar
    32    32    33    1
    33    32    34   ar
    34    34    35   ar
    35     7    36   ar
    36    36    37    1
    37    36    38   ar
    38    38     4   ar
    39    17    12    1
    40    35    18   ar
    41    26    20   ar
    42    35    28   ar
    43     3    39    1
    44     5    40    1
    45     6    41    1
    46     8    42    1
    47    11    43    1
    48    12    44    1
    49    13    45    1
    50    13    46    1
    51    14    47    1
    52    14    48    1
    53    15    49    1
    54    15    50    1
    55    16    51    1
    56    16    52    1
    57    17    53    1
    58    17    54    1
    59    21    55    1
    60    22    56    1
    61    25    57    1
    62    26    58    1
    63    29    59    1
    64    34    60    1
    65    38    61    1
