
     RDKit          3D

 61 65  0  0  0  0  0  0  0  0999 V2000
    7.4383   -0.7255   -2.9078 O   0  0  0  0  0  0  0  0  0  0  0  0
    7.0815   -0.5995   -1.7152 C   0  0  0  0  0  0  0  0  0  0  0  0
    7.9454   -0.8428   -0.6663 O   0  0  0  0  0  0  0  0  0  0  0  0
    5.7179   -0.1850   -1.4368 C   0  0  0  0  0  0  0  0  0  0  0  0
    4.8102    0.0723   -2.4683 C   0  0  0  0  0  0  0  0  0  0  0  0
    3.5213    0.4633   -2.2463 C   0  0  0  0  0  0  0  0  0  0  0  0
    3.1044    0.6085   -0.9417 C   0  0  0  0  0  0  0  0  0  0  0  0
    1.7614    1.0175   -0.6668 N   0  0  0  0  0  0  0  0  0  0  0  0
    0.7449    0.0454   -0.5172 C   0  0  0  0  0  0  0  0  0  0  0  0
    1.0919   -1.1637   -0.6454 O   0  0  0  0  0  0  0  0  0  0  0  0
   -0.6456    0.3664   -0.2329 C   0  0  2  0  0  0  0  0  0  0  0  0
   -0.9225    0.9660    1.1200 C   0  0  0  0  0  0  0  0  0  0  0  0
   -2.4283    1.2275    1.2279 C   0  0  0  0  0  0  0  0  0  0  0  0
   -2.7892    2.5361    0.5717 C   0  0  0  0  0  0  0  0  0  0  0  0
   -2.3182    3.7086    1.4198 C   0  0  0  0  0  0  0  0  0  0  0  0
   -1.1106    3.1994    2.1931 C   0  0  0  0  0  0  0  0  0  0  0  0
   -0.2859    2.3380    1.2140 C   0  0  0  0  0  0  0  0  0  0  0  0
   -1.5666   -0.6938   -0.6034 N   0  0  0  0  0  0  0  0  0  0  0  0
   -1.9679   -1.7562    0.1071 C   0  0  0  0  0  0  0  0  0  0  0  0
   -1.6020   -2.1559    1.4515 C   0  0  0  0  0  0  0  0  0  0  0  0
   -2.3675   -1.8301    2.5426 C   0  0  0  0  0  0  0  0  0  0  0  0
   -1.9944   -2.2468    3.8285 C   0  0  0  0  0  0  0  0  0  0  0  0
   -0.8483   -2.9928    4.0154 C   0  0  0  0  0  0  0  0  0  0  0  0
   -0.3761   -3.5198    5.6440 Cl  0  0  0  0  0  0  0  0  0  0  0  0
   -0.0910   -3.3135    2.9225 C   0  0  0  0  0  0  0  0  0  0  0  0
   -0.4801   -2.8923    1.6738 C   0  0  0  0  0  0  0  0  0  0  0  0
   -2.8476   -2.4773   -0.6801 N   0  0  0  0  0  0  0  0  0  0  0  0
   -2.9967   -1.8802   -1.8627 C   0  0  0  0  0  0  0  0  0  0  0  0
   -3.7449   -2.1900   -2.9762 C   0  0  0  0  0  0  0  0  0  0  0  0
   -3.6734   -1.3454   -4.0599 C   0  0  0  0  0  0  0  0  0  0  0  0
   -4.3813   -1.6032   -5.1647 F   0  0  0  0  0  0  0  0  0  0  0  0
   -2.8686   -0.2065   -4.0385 C   0  0  0  0  0  0  0  0  0  0  0  0
   -2.8450    0.5850   -5.1449 F   0  0  0  0  0  0  0  0  0  0  0  0
   -2.1405    0.0661   -2.9128 C   0  0  0  0  0  0  0  0  0  0  0  0
   -2.1993   -0.7710   -1.8135 C   0  0  0  0  0  0  0  0  0  0  0  0
    3.9411    0.3727    0.1025 C   0  0  0  0  0  0  0  0  0  0  0  0
    3.4400    0.5487    1.7665 Cl  0  0  0  0  0  0  0  0  0  0  0  0
    5.2538   -0.0259   -0.1507 C   0  0  0  0  0  0  0  0  0  0  0  0
    8.7934   -1.3810   -0.7979 H   0  0  0  0  0  0  0  0  0  0  0  0
    5.1574   -0.0477   -3.4988 H   0  0  0  0  0  0  0  0  0  0  0  0
    2.8276    0.6594   -3.0665 H   0  0  0  0  0  0  0  0  0  0  0  0
    1.6222    2.0433   -0.6053 H   0  0  0  0  0  0  0  0  0  0  0  0
   -0.8858    1.2297   -0.9527 H   0  0  0  0  0  0  0  0  0  0  0  0
   -0.5797    0.3092    1.9361 H   0  0  0  0  0  0  0  0  0  0  0  0
   -2.7342    1.2333    2.2902 H   0  0  0  0  0  0  0  0  0  0  0  0
   -2.9754    0.4062    0.7265 H   0  0  0  0  0  0  0  0  0  0  0  0
   -2.3329    2.5598   -0.4354 H   0  0  0  0  0  0  0  0  0  0  0  0
   -3.8801    2.5902    0.4249 H   0  0  0  0  0  0  0  0  0  0  0  0
   -1.9552    4.4924    0.7029 H   0  0  0  0  0  0  0  0  0  0  0  0
   -3.0978    4.1124    2.0653 H   0  0  0  0  0  0  0  0  0  0  0  0
   -0.4361    4.0246    2.4971 H   0  0  0  0  0  0  0  0  0  0  0  0
   -1.4031    2.6328    3.0783 H   0  0  0  0  0  0  0  0  0  0  0  0
    0.7587    2.2846    1.5490 H   0  0  0  0  0  0  0  0  0  0  0  0
   -0.4101    2.8491    0.2430 H   0  0  0  0  0  0  0  0  0  0  0  0
   -3.2670   -1.2549    2.4671 H   0  0  0  0  0  0  0  0  0  0  0  0
   -2.5728   -2.0065    4.6948 H   0  0  0  0  0  0  0  0  0  0  0  0
    0.8144   -3.8984    3.0387 H   0  0  0  0  0  0  0  0  0  0  0  0
    0.1409   -3.1782    0.8454 H   0  0  0  0  0  0  0  0  0  0  0  0
   -4.3510   -3.0804   -2.9446 H   0  0  0  0  0  0  0  0  0  0  0  0
   -1.5194    0.9316   -2.8769 H   0  0  0  0  0  0  0  0  0  0  0  0
    5.9251   -0.2154    0.6696 H   0  0  0  0  0  0  0  0  0  0  0  0
  1  2  2  0
  2  3  1  0
  2  4  1  0
  4  5  2  0
  5  6  1  0
  6  7  2  0
  7  8  1  0
  8  9  1  0
  9 10  2  0
  9 11  1  0
 11 12  1  0
 12 13  1  0
 13 14  1  0
 14 15  1  0
 15 16  1  0
 16 17  1  0
 11 18  1  0
 18 19  1  0
 19 20  1  0
 20 21  2  0
 21 22  1  0
 22 23  2  0
 23 24  1  0
 23 25  1  0
 25 26  2  0
 19 27  2  0
 27 28  1  0
 28 29  2  0
 29 30  1  0
 30 31  1  0
 30 32  2  0
 32 33  1  0
 32 34  1  0
 34 35  2  0
  7 36  1  0
 36 37  1  0
 36 38  2  0
 38  4  1  0
 17 12  1  0
 35 18  1  0
 26 20  1  0
 35 28  1  0
  3 39  1  0
  5 40  1  0
  6 41  1  0
  8 42  1  0
 11 43  1  6
 12 44  1  0
 13 45  1  0
 13 46  1  0
 14 47  1  0
 14 48  1  0
 15 49  1  0
 15 50  1  0
 16 51  1  0
 16 52  1  0
 17 53  1  0
 17 54  1  0
 21 55  1  0
 22 56  1  0
 25 57  1  0
 26 58  1  0
 29 59  1  0
 34 60  1  0
 38 61  1  0
M  END
$$$$
