@<TRIPOS>MOLECULE
*****
 54 56 0 0 0
SMALL
GASTEIGER

@<TRIPOS>ATOM
      1 C           6.8760    2.0589    3.4131 C.3     1  UNL1        0.0789
      2 O           6.7782    1.8314    2.0173 O.3     1  UNL1       -0.4936
      3 C           5.6438    1.2802    1.4622 C.ar    1  UNL1        0.1384
      4 C           4.5818    0.9385    2.2487 C.ar    1  UNL1        0.0700
      5 N           3.4797    0.4021    1.7025 N.ar    1  UNL1       -0.2465
      6 C           3.3672    0.1778    0.3776 C.ar    1  UNL1        0.1288
      7 C           2.1332   -0.4123   -0.1550 C.2     1  UNL1        0.2668
      8 O           2.0557   -0.6110   -1.3992 O.2     1  UNL1       -0.2682
      9 N           1.0705   -0.7414    0.7283 N.am    1  UNL1       -0.2802
     10 C          -0.0963   -1.3073    0.1661 C.ar    1  UNL1        0.0345
     11 C          -0.2402   -2.6705    0.0225 C.ar    1  UNL1       -0.0348
     12 C          -1.3762   -3.2302   -0.5250 C.ar    1  UNL1       -0.0132
     13 C          -1.4901   -4.7013   -0.6614 C.3     1  UNL1       -0.0369
     14 C          -2.3993   -2.3725   -0.9397 C.ar    1  UNL1        0.1319
     15 F          -3.5129   -2.9461   -1.4602 F       1  UNL1       -0.2048
     16 C          -2.3046   -0.9957   -0.8180 C.ar    1  UNL1        0.0198
     17 C          -3.3849   -0.0850   -1.2858 C.3     1  UNL1        0.1258
     18 C          -3.5324   -0.3206   -2.7976 C.3     1  UNL1        0.1196
     19 F          -4.5252    0.5078   -3.3015 F       1  UNL1       -0.2462
     20 C          -3.0213    1.3708   -1.0475 C.3     1  UNL1        0.0251
     21 C          -3.3046    1.7109    0.3927 C.3     1  UNL1        0.1998
     22 C          -2.8272    3.1036    0.7362 C.3     1  UNL1        0.4266
     23 F          -3.4556    4.0265   -0.0464 F       1  UNL1       -0.1669
     24 F          -3.0128    3.3027    2.0840 F       1  UNL1       -0.1669
     25 F          -1.4708    3.1389    0.4755 F       1  UNL1       -0.1669
     26 O          -4.7344    1.6247    0.5138 O.2     1  UNL1       -0.4534
     27 C          -5.2709    0.4011    0.1434 C.2     1  UNL1        0.2766
     28 N          -6.5499   -0.0201    0.6829 N.pl3   1  UNL1       -0.3134
     29 N          -4.6284   -0.3336   -0.6677 N.2     1  UNL1       -0.2228
     30 C          -1.1559   -0.5070   -0.2689 C.ar    1  UNL1       -0.0321
     31 C           4.4137    0.5068   -0.4550 C.ar    1  UNL1       -0.0165
     32 C           4.3313    0.2768   -1.9179 C.3     1  UNL1       -0.0374
     33 C           5.5531    1.0622    0.1156 C.ar    1  UNL1       -0.0134
     34 H           7.8913    2.4248    3.6550 H       1  UNL1        0.0660
     35 H           6.7392    1.0701    3.9088 H       1  UNL1        0.0660
     36 H           6.1002    2.7797    3.7480 H       1  UNL1        0.0660
     37 H           4.6335    1.1047    3.3307 H       1  UNL1        0.0867
     38 H           1.2085   -0.5482    1.7404 H       1  UNL1        0.1552
     39 H           0.5598   -3.3275    0.3477 H       1  UNL1        0.0640
     40 H          -1.0370   -5.2160    0.2274 H       1  UNL1        0.0278
     41 H          -0.8708   -4.9814   -1.5618 H       1  UNL1        0.0278
     42 H          -2.5150   -5.0250   -0.8623 H       1  UNL1        0.0278
     43 H          -3.9072   -1.3475   -2.9363 H       1  UNL1        0.0643
     44 H          -2.5905   -0.1911   -3.3290 H       1  UNL1        0.0643
     45 H          -2.0394    1.6600   -1.4118 H       1  UNL1        0.0331
     46 H          -3.7955    1.9666   -1.6330 H       1  UNL1        0.0331
     47 H          -2.9173    0.9712    1.1133 H       1  UNL1        0.0826
     48 H          -6.5518   -0.2367    1.6918 H       1  UNL1        0.1466
     49 H          -7.3821   -0.0845    0.0545 H       1  UNL1        0.1466
     50 H          -0.9963    0.5412   -0.1437 H       1  UNL1        0.0640
     51 H           3.5511    0.8698   -2.4139 H       1  UNL1        0.0278
     52 H           5.3016    0.6056   -2.3784 H       1  UNL1        0.0278
     53 H           4.2689   -0.8130   -2.1200 H       1  UNL1        0.0278
     54 H           6.3585    1.3103   -0.5630 H       1  UNL1        0.0658
@<TRIPOS>BOND
     1     1     2    1
     2     2     3    1
     3     3     4   ar
     4     4     5   ar
     5     5     6   ar
     6     6     7    1
     7     7     8    2
     8     7     9   am
     9     9    10    1
    10    10    11   ar
    11    11    12   ar
    12    12    13    1
    13    12    14   ar
    14    14    15    1
    15    14    16   ar
    16    16    17    1
    17    17    18    1
    18    18    19    1
    19    17    20    1
    20    20    21    1
    21    21    22    1
    22    22    23    1
    23    22    24    1
    24    22    25    1
    25    21    26    1
    26    26    27    1
    27    27    28    1
    28    27    29    2
    29    16    30   ar
    30     6    31   ar
    31    31    32    1
    32    31    33   ar
    33    33     3   ar
    34    30    10   ar
    35    29    17    1
    36     1    34    1
    37     1    35    1
    38     1    36    1
    39     4    37    1
    40     9    38    1
    41    11    39    1
    42    13    40    1
    43    13    41    1
    44    13    42    1
    45    18    43    1
    46    18    44    1
    47    20    45    1
    48    20    46    1
    49    21    47    1
    50    28    48    1
    51    28    49    1
    52    30    50    1
    53    32    51    1
    54    32    52    1
    55    32    53    1
    56    33    54    1
