
     RDKit          3D

 29 31  0  0  0  0  0  0  0  0999 V2000
    4.1888    0.4610    1.1592 O   0  0  0  0  0  0  0  0  0  0  0  0
    3.0938    0.1368    0.6438 C   0  0  0  0  0  0  0  0  0  0  0  0
    2.4834    0.8860   -0.3911 C   0  0  0  0  0  0  0  0  0  0  0  0
    2.9885    2.0045   -0.9431 C   0  0  0  0  0  0  0  0  0  0  0  0
    2.2582    2.6052   -1.9543 C   0  0  0  0  0  0  0  0  0  0  0  0
    0.8153    1.4894   -2.0737 S   0  0  0  0  0  0  0  0  0  0  0  0
    1.3113    0.3941   -0.8256 C   0  0  0  0  0  0  0  0  0  0  0  0
    0.7239   -0.7312   -0.3363 N   0  0  0  0  0  0  0  0  0  0  0  0
   -0.5249   -1.1490   -0.8778 C   0  0  0  0  0  0  0  0  0  0  0  0
   -1.7272   -0.6373   -0.2141 C   0  0  0  0  0  0  0  0  0  0  0  0
   -2.3069   -1.2037    0.9146 C   0  0  0  0  0  0  0  0  0  0  0  0
   -3.4525   -0.6876    1.5017 C   0  0  0  0  0  0  0  0  0  0  0  0
   -4.0563    0.4264    0.9644 C   0  0  0  0  0  0  0  0  0  0  0  0
   -3.5163    1.0113   -0.1452 C   0  0  0  0  0  0  0  0  0  0  0  0
   -2.3585    0.4734   -0.7223 C   0  0  0  0  0  0  0  0  0  0  0  0
    1.3244   -1.4225    0.6440 C   0  0  0  0  0  0  0  0  0  0  0  0
    0.7987   -2.4442    1.0909 O   0  0  0  0  0  0  0  0  0  0  0  0
    2.5070   -0.9595    1.1094 N   0  0  0  0  0  0  0  0  0  0  0  0
    3.0971   -1.6929    2.1168 O   0  0  0  0  0  0  0  0  0  0  0  0
    3.9685    2.5006   -0.6483 H   0  0  0  0  0  0  0  0  0  0  0  0
    2.4171    3.4940   -2.5661 H   0  0  0  0  0  0  0  0  0  0  0  0
   -0.5792   -0.9211   -1.9840 H   0  0  0  0  0  0  0  0  0  0  0  0
   -0.6165   -2.2784   -0.8484 H   0  0  0  0  0  0  0  0  0  0  0  0
   -1.8627   -2.0778    1.3570 H   0  0  0  0  0  0  0  0  0  0  0  0
   -3.8966   -1.1317    2.3769 H   0  0  0  0  0  0  0  0  0  0  0  0
   -4.9576    0.8347    1.4242 H   0  0  0  0  0  0  0  0  0  0  0  0
   -3.9940    1.8972   -0.5749 H   0  0  0  0  0  0  0  0  0  0  0  0
   -2.0290    1.0160   -1.6018 H   0  0  0  0  0  0  0  0  0  0  0  0
    3.9024   -2.2938    1.8840 H   0  0  0  0  0  0  0  0  0  0  0  0
  1  2  2  0
  2  3  1  0
  3  4  1  0
  4  5  2  0
  5  6  1  0
  6  7  1  0
  7  8  1  0
  8  9  1  0
  9 10  1  0
 10 11  2  0
 11 12  1  0
 12 13  2  0
 13 14  1  0
 14 15  2  0
  8 16  1  0
 16 17  2  0
 16 18  1  0
 18 19  1  0
 18  2  1  0
  7  3  2  0
 15 10  1  0
  4 20  1  0
  5 21  1  0
  9 22  1  0
  9 23  1  0
 11 24  1  0
 12 25  1  0
 13 26  1  0
 14 27  1  0
 15 28  1  0
 19 29  1  0
M  END
$$$$
