@<TRIPOS>MOLECULE
*****
 29 31 0 0 0
SMALL
GASTEIGER

@<TRIPOS>ATOM
      1 O           4.1888    0.4610    1.1592 O.2     1  UNL1       -0.2638
      2 C           3.0938    0.1368    0.6438 C.ar    1  UNL1        0.2976
      3 C           2.4834    0.8860   -0.3911 C.ar    1  UNL1        0.0734
      4 C           2.9885    2.0045   -0.9431 C.ar    1  UNL1       -0.0402
      5 C           2.2582    2.6052   -1.9543 C.ar    1  UNL1       -0.0216
      6 S           0.8153    1.4894   -2.0737 S.2     1  UNL1       -0.0786
      7 C           1.3113    0.3941   -0.8256 C.ar    1  UNL1        0.0970
      8 N           0.7239   -0.7312   -0.3363 N.ar    1  UNL1       -0.2805
      9 C          -0.5249   -1.1490   -0.8778 C.3     1  UNL1        0.0537
     10 C          -1.7272   -0.6373   -0.2141 C.ar    1  UNL1       -0.0276
     11 C          -2.3069   -1.2037    0.9146 C.ar    1  UNL1       -0.0569
     12 C          -3.4525   -0.6876    1.5017 C.ar    1  UNL1       -0.0614
     13 C          -4.0563    0.4264    0.9644 C.ar    1  UNL1       -0.0617
     14 C          -3.5163    1.0113   -0.1452 C.ar    1  UNL1       -0.0614
     15 C          -2.3585    0.4734   -0.7223 C.ar    1  UNL1       -0.0569
     16 C           1.3244   -1.4225    0.6440 C.ar    1  UNL1        0.3661
     17 O           0.7987   -2.4442    1.0909 O.2     1  UNL1       -0.2431
     18 N           2.5070   -0.9595    1.1094 N.ar    1  UNL1       -0.0912
     19 O           3.0971   -1.6929    2.1168 O.3     1  UNL1       -0.4194
     20 H           3.9685    2.5006   -0.6483 H       1  UNL1        0.0631
     21 H           2.4171    3.4940   -2.5661 H       1  UNL1        0.0694
     22 H          -0.5792   -0.9211   -1.9840 H       1  UNL1        0.0543
     23 H          -0.6165   -2.2784   -0.8484 H       1  UNL1        0.0543
     24 H          -1.8627   -2.0778    1.3570 H       1  UNL1        0.0621
     25 H          -3.8966   -1.1317    2.3769 H       1  UNL1        0.0618
     26 H          -4.9576    0.8347    1.4242 H       1  UNL1        0.0618
     27 H          -3.9940    1.8972   -0.5749 H       1  UNL1        0.0618
     28 H          -2.0290    1.0160   -1.6018 H       1  UNL1        0.0621
     29 H           3.9024   -2.2938    1.8840 H       1  UNL1        0.3261
@<TRIPOS>BOND
     1     1     2    2
     2     2     3   ar
     3     3     4   ar
     4     4     5   ar
     5     5     6   ar
     6     6     7   ar
     7     7     8   ar
     8     8     9    1
     9     9    10    1
    10    10    11   ar
    11    11    12   ar
    12    12    13   ar
    13    13    14   ar
    14    14    15   ar
    15     8    16   ar
    16    16    17    2
    17    16    18   ar
    18    18    19    1
    19    18     2   ar
    20     7     3   ar
    21    15    10   ar
    22     4    20    1
    23     5    21    1
    24     9    22    1
    25     9    23    1
    26    11    24    1
    27    12    25    1
    28    13    26    1
    29    14    27    1
    30    15    28    1
    31    19    29    1
