
     RDKit          3D

 47 50  0  0  0  0  0  0  0  0999 V2000
    5.6165    1.3257   -0.1210 C   0  0  0  0  0  0  0  0  0  0  0  0
    5.6740    0.0104    0.2819 C   0  0  0  0  0  0  0  0  0  0  0  0
    4.6245   -0.8610    0.1287 C   0  0  0  0  0  0  0  0  0  0  0  0
    3.4686   -0.3736   -0.4587 C   0  0  0  0  0  0  0  0  0  0  0  0
    2.3106   -1.2715   -0.6673 C   0  0  0  0  0  0  0  0  0  0  0  0
    1.4850   -1.3073    0.4874 N   0  0  0  0  0  0  0  0  0  0  0  0
    0.3376   -2.1797    0.3327 C   0  0  0  0  0  0  0  0  0  0  0  0
   -0.9225   -1.6766    0.9330 C   0  0  0  0  0  0  0  0  0  0  0  0
   -1.2862   -0.2579    0.5808 C   0  0  0  0  0  0  0  0  0  0  0  0
   -1.7893    0.4008    1.8505 C   0  0  0  0  0  0  0  0  0  0  0  0
   -2.1730    1.8265    1.6223 C   0  0  0  0  0  0  0  0  0  0  0  0
   -3.4182    1.8428    0.7639 C   0  0  0  0  0  0  0  0  0  0  0  0
   -3.4122    0.7917   -0.2761 C   0  0  0  0  0  0  0  0  0  0  0  0
   -4.4718    0.8366   -1.1782 C   0  0  0  0  0  0  0  0  0  0  0  0
   -4.5721   -0.0943   -2.1923 C   0  0  0  0  0  0  0  0  0  0  0  0
   -3.6284   -1.0697   -2.3178 C   0  0  0  0  0  0  0  0  0  0  0  0
   -2.5781   -1.0921   -1.4017 C   0  0  0  0  0  0  0  0  0  0  0  0
   -2.4419   -0.1882   -0.3824 C   0  0  0  0  0  0  0  0  0  0  0  0
   -0.0618    0.4178    0.0245 C   0  0  0  0  0  0  0  0  0  0  0  0
    1.0936    0.0096    0.9131 C   0  0  0  0  0  0  0  0  0  0  0  0
    3.4006    0.9494   -0.8678 C   0  0  0  0  0  0  0  0  0  0  0  0
    4.4531    1.8229   -0.7141 C   0  0  0  0  0  0  0  0  0  0  0  0
    6.4545    1.9793    0.0135 H   0  0  0  0  0  0  0  0  0  0  0  0
    6.5821   -0.3498    0.7367 H   0  0  0  0  0  0  0  0  0  0  0  0
    4.7028   -1.8667    0.4500 H   0  0  0  0  0  0  0  0  0  0  0  0
    2.7486   -2.2967   -0.8322 H   0  0  0  0  0  0  0  0  0  0  0  0
    1.7776   -1.0166   -1.6080 H   0  0  0  0  0  0  0  0  0  0  0  0
    0.6074   -3.1167    0.8949 H   0  0  0  0  0  0  0  0  0  0  0  0
    0.3021   -2.4774   -0.7173 H   0  0  0  0  0  0  0  0  0  0  0  0
   -1.7530   -2.3291    0.5458 H   0  0  0  0  0  0  0  0  0  0  0  0
   -0.8843   -1.8334    2.0310 H   0  0  0  0  0  0  0  0  0  0  0  0
   -1.1347    0.2423    2.7157 H   0  0  0  0  0  0  0  0  0  0  0  0
   -2.7461   -0.1491    2.1014 H   0  0  0  0  0  0  0  0  0  0  0  0
   -2.3834    2.3415    2.5869 H   0  0  0  0  0  0  0  0  0  0  0  0
   -1.4252    2.4472    1.1157 H   0  0  0  0  0  0  0  0  0  0  0  0
   -4.2650    1.5767    1.4632 H   0  0  0  0  0  0  0  0  0  0  0  0
   -3.5955    2.8557    0.3510 H   0  0  0  0  0  0  0  0  0  0  0  0
   -5.2366    1.5872   -1.1161 H   0  0  0  0  0  0  0  0  0  0  0  0
   -5.3885   -0.0807   -2.9083 H   0  0  0  0  0  0  0  0  0  0  0  0
   -3.6993   -1.8050   -3.1115 H   0  0  0  0  0  0  0  0  0  0  0  0
   -1.8562   -1.8880   -1.5466 H   0  0  0  0  0  0  0  0  0  0  0  0
   -0.1363    1.4920   -0.1200 H   0  0  0  0  0  0  0  0  0  0  0  0
    0.1203   -0.0247   -0.9758 H   0  0  0  0  0  0  0  0  0  0  0  0
    1.8800    0.7501    0.9808 H   0  0  0  0  0  0  0  0  0  0  0  0
    0.7289   -0.1213    1.9805 H   0  0  0  0  0  0  0  0  0  0  0  0
    2.5046    1.3596   -1.3326 H   0  0  0  0  0  0  0  0  0  0  0  0
    4.3871    2.8612   -1.0401 H   0  0  0  0  0  0  0  0  0  0  0  0
  1  2  2  0
  2  3  1  0
  3  4  2  0
  4  5  1  0
  5  6  1  0
  6  7  1  0
  7  8  1  0
  8  9  1  0
  9 10  1  0
 10 11  1  0
 11 12  1  0
 12 13  1  0
 13 14  2  0
 14 15  1  0
 15 16  2  0
 16 17  1  0
 17 18  2  0
  9 19  1  0
 19 20  1  0
  4 21  1  0
 21 22  2  0
 22  1  1  0
 20  6  1  0
 18  9  1  0
 18 13  1  0
  1 23  1  0
  2 24  1  0
  3 25  1  0
  5 26  1  0
  5 27  1  0
  7 28  1  0
  7 29  1  0
  8 30  1  0
  8 31  1  0
 10 32  1  0
 10 33  1  0
 11 34  1  0
 11 35  1  0
 12 36  1  0
 12 37  1  0
 14 38  1  0
 15 39  1  0
 16 40  1  0
 17 41  1  0
 19 42  1  0
 19 43  1  0
 20 44  1  0
 20 45  1  0
 21 46  1  0
 22 47  1  0
M  END
$$$$
