@<TRIPOS>MOLECULE
*****
 47 50 0 0 0
SMALL
GASTEIGER

@<TRIPOS>ATOM
      1 C           5.6165    1.3257   -0.1210 C.ar    1  UNL1       -0.0617
      2 C           5.6740    0.0104    0.2819 C.ar    1  UNL1       -0.0615
      3 C           4.6245   -0.8610    0.1287 C.ar    1  UNL1       -0.0573
      4 C           3.4686   -0.3736   -0.4587 C.ar    1  UNL1       -0.0334
      5 C           2.3106   -1.2715   -0.6673 C.3     1  UNL1        0.0240
      6 N           1.4850   -1.3073    0.4874 N.3     1  UNL1       -0.2981
      7 C           0.3376   -2.1797    0.3327 C.3     1  UNL1        0.0000
      8 C          -0.9225   -1.6766    0.9330 C.3     1  UNL1       -0.0305
      9 C          -1.2862   -0.2579    0.5808 C.3     1  UNL1       -0.0016
     10 C          -1.7893    0.4008    1.8505 C.3     1  UNL1       -0.0430
     11 C          -2.1730    1.8265    1.6223 C.3     1  UNL1       -0.0483
     12 C          -3.4182    1.8428    0.7639 C.3     1  UNL1       -0.0274
     13 C          -3.4122    0.7917   -0.2761 C.ar    1  UNL1       -0.0436
     14 C          -4.4718    0.8366   -1.1782 C.ar    1  UNL1       -0.0583
     15 C          -4.5721   -0.0943   -2.1923 C.ar    1  UNL1       -0.0615
     16 C          -3.6284   -1.0697   -2.3178 C.ar    1  UNL1       -0.0615
     17 C          -2.5781   -1.0921   -1.4017 C.ar    1  UNL1       -0.0578
     18 C          -2.4419   -0.1882   -0.3824 C.ar    1  UNL1       -0.0379
     19 C          -0.0618    0.4178    0.0245 C.3     1  UNL1       -0.0305
     20 C           1.0936    0.0096    0.9131 C.3     1  UNL1        0.0000
     21 C           3.4006    0.9494   -0.8678 C.ar    1  UNL1       -0.0573
     22 C           4.4531    1.8229   -0.7141 C.ar    1  UNL1       -0.0615
     23 H           6.4545    1.9793    0.0135 H       1  UNL1        0.0618
     24 H           6.5821   -0.3498    0.7367 H       1  UNL1        0.0618
     25 H           4.7028   -1.8667    0.4500 H       1  UNL1        0.0621
     26 H           2.7486   -2.2967   -0.8322 H       1  UNL1        0.0476
     27 H           1.7776   -1.0166   -1.6080 H       1  UNL1        0.0476
     28 H           0.6074   -3.1167    0.8949 H       1  UNL1        0.0427
     29 H           0.3021   -2.4774   -0.7173 H       1  UNL1        0.0427
     30 H          -1.7530   -2.3291    0.5458 H       1  UNL1        0.0286
     31 H          -0.8843   -1.8334    2.0310 H       1  UNL1        0.0286
     32 H          -1.1347    0.2423    2.7157 H       1  UNL1        0.0274
     33 H          -2.7461   -0.1491    2.1014 H       1  UNL1        0.0274
     34 H          -2.3834    2.3415    2.5869 H       1  UNL1        0.0269
     35 H          -1.4252    2.4472    1.1157 H       1  UNL1        0.0269
     36 H          -4.2650    1.5767    1.4632 H       1  UNL1        0.0313
     37 H          -3.5955    2.8557    0.3510 H       1  UNL1        0.0313
     38 H          -5.2366    1.5872   -1.1161 H       1  UNL1        0.0620
     39 H          -5.3885   -0.0807   -2.9083 H       1  UNL1        0.0618
     40 H          -3.6993   -1.8050   -3.1115 H       1  UNL1        0.0618
     41 H          -1.8562   -1.8880   -1.5466 H       1  UNL1        0.0621
     42 H          -0.1363    1.4920   -0.1200 H       1  UNL1        0.0286
     43 H           0.1203   -0.0247   -0.9758 H       1  UNL1        0.0286
     44 H           1.8800    0.7501    0.9808 H       1  UNL1        0.0427
     45 H           0.7289   -0.1213    1.9805 H       1  UNL1        0.0427
     46 H           2.5046    1.3596   -1.3326 H       1  UNL1        0.0621
     47 H           4.3871    2.8612   -1.0401 H       1  UNL1        0.0618
@<TRIPOS>BOND
     1     1     2   ar
     2     2     3   ar
     3     3     4   ar
     4     4     5    1
     5     5     6    1
     6     6     7    1
     7     7     8    1
     8     8     9    1
     9     9    10    1
    10    10    11    1
    11    11    12    1
    12    12    13    1
    13    13    14   ar
    14    14    15   ar
    15    15    16   ar
    16    16    17   ar
    17    17    18   ar
    18     9    19    1
    19    19    20    1
    20     4    21   ar
    21    21    22   ar
    22    22     1   ar
    23    20     6    1
    24    18     9    1
    25    18    13   ar
    26     1    23    1
    27     2    24    1
    28     3    25    1
    29     5    26    1
    30     5    27    1
    31     7    28    1
    32     7    29    1
    33     8    30    1
    34     8    31    1
    35    10    32    1
    36    10    33    1
    37    11    34    1
    38    11    35    1
    39    12    36    1
    40    12    37    1
    41    14    38    1
    42    15    39    1
    43    16    40    1
    44    17    41    1
    45    19    42    1
    46    19    43    1
    47    20    44    1
    48    20    45    1
    49    21    46    1
    50    22    47    1
