
     RDKit          3D

 45 47  0  0  0  0  0  0  0  0999 V2000
    6.5708    0.7147    0.3516 C   0  0  0  0  0  0  0  0  0  0  0  0
    5.1211    1.1276    0.3529 C   0  0  0  0  0  0  0  0  0  0  0  0
    4.2253   -0.0006    0.2306 N   0  0  0  0  0  0  0  0  0  0  0  0
    2.8174    0.2326    0.2061 C   0  0  0  0  0  0  0  0  0  0  0  0
    2.4635    1.4564    0.2957 O   0  0  0  0  0  0  0  0  0  0  0  0
    1.8806   -0.8594    0.0871 C   0  0  0  0  0  0  0  0  0  0  0  0
    2.1807   -2.1845    0.0197 N   0  0  0  0  0  0  0  0  0  0  0  0
    1.0609   -2.8859   -0.0897 N   0  0  0  0  0  0  0  0  0  0  0  0
    0.0178   -2.0454   -0.0962 C   0  0  0  0  0  0  0  0  0  0  0  0
    0.5094   -0.7579    0.0141 C   0  0  0  0  0  0  0  0  0  0  0  0
   -0.2256    0.5066    0.0492 C   0  0  0  0  0  0  0  0  0  0  0  0
   -1.0728    0.9929    0.9970 C   0  0  0  0  0  0  0  0  0  0  0  0
   -1.6628    2.2161    0.7985 C   0  0  0  0  0  0  0  0  0  0  0  0
   -1.4832    3.0284   -0.2886 C   0  0  0  0  0  0  0  0  0  0  0  0
   -2.0589    4.2613   -0.5208 O   0  0  0  0  0  0  0  0  0  0  0  0
   -2.9476    4.9438    0.3024 C   0  0  0  0  0  0  0  0  0  0  0  0
   -0.6121    2.5287   -1.2631 C   0  0  0  0  0  0  0  0  0  0  0  0
   -0.0006    1.2901   -1.0870 C   0  0  0  0  0  0  0  0  0  0  0  0
   -1.3846   -2.4228   -0.2015 C   0  0  0  0  0  0  0  0  0  0  0  0
   -1.7040   -2.6773   -1.5370 C   0  0  0  0  0  0  0  0  0  0  0  0
   -3.0059   -3.0584   -1.8858 C   0  0  0  0  0  0  0  0  0  0  0  0
   -3.4829   -3.3957   -3.5494 Cl  0  0  0  0  0  0  0  0  0  0  0  0
   -3.9600   -3.1766   -0.8895 C   0  0  0  0  0  0  0  0  0  0  0  0
   -5.2595   -3.5515   -1.2010 O   0  0  0  0  0  0  0  0  0  0  0  0
   -3.6432   -2.9237    0.4423 C   0  0  0  0  0  0  0  0  0  0  0  0
   -2.3589   -2.5506    0.7640 C   0  0  0  0  0  0  0  0  0  0  0  0
   -1.8995   -2.2688    2.0403 O   0  0  0  0  0  0  0  0  0  0  0  0
    6.8087   -0.0686   -0.4005 H   0  0  0  0  0  0  0  0  0  0  0  0
    6.8260    0.2976    1.3438 H   0  0  0  0  0  0  0  0  0  0  0  0
    7.2136    1.5968    0.1202 H   0  0  0  0  0  0  0  0  0  0  0  0
    4.9639    1.9050   -0.4221 H   0  0  0  0  0  0  0  0  0  0  0  0
    4.9265    1.6114    1.3524 H   0  0  0  0  0  0  0  0  0  0  0  0
    4.6354   -0.9592    0.1632 H   0  0  0  0  0  0  0  0  0  0  0  0
    0.9744   -3.9296   -0.1614 H   0  0  0  0  0  0  0  0  0  0  0  0
   -1.2148    0.3607    1.8542 H   0  0  0  0  0  0  0  0  0  0  0  0
   -2.3291    2.5717    1.5712 H   0  0  0  0  0  0  0  0  0  0  0  0
   -2.4931    5.9574    0.4907 H   0  0  0  0  0  0  0  0  0  0  0  0
   -3.0215    4.4544    1.2846 H   0  0  0  0  0  0  0  0  0  0  0  0
   -3.9734    5.0381   -0.1106 H   0  0  0  0  0  0  0  0  0  0  0  0
   -0.4312    3.1281   -2.1456 H   0  0  0  0  0  0  0  0  0  0  0  0
    0.6553    1.0014   -1.9057 H   0  0  0  0  0  0  0  0  0  0  0  0
   -1.0561   -2.6220   -2.4013 H   0  0  0  0  0  0  0  0  0  0  0  0
   -5.7284   -4.2218   -0.5976 H   0  0  0  0  0  0  0  0  0  0  0  0
   -4.3515   -3.0013    1.2592 H   0  0  0  0  0  0  0  0  0  0  0  0
   -2.4899   -1.6601    2.6230 H   0  0  0  0  0  0  0  0  0  0  0  0
  1  2  1  0
  2  3  1  0
  3  4  1  0
  4  5  2  0
  4  6  1  0
  6  7  2  0
  7  8  1  0
  8  9  1  0
  9 10  2  0
 10 11  1  0
 11 12  2  0
 12 13  1  0
 13 14  2  0
 14 15  1  0
 15 16  1  0
 14 17  1  0
 17 18  2  0
  9 19  1  0
 19 20  2  0
 20 21  1  0
 21 22  1  0
 21 23  2  0
 23 24  1  0
 23 25  1  0
 25 26  2  0
 26 27  1  0
 10  6  1  0
 18 11  1  0
 26 19  1  0
  1 28  1  0
  1 29  1  0
  1 30  1  0
  2 31  1  0
  2 32  1  0
  3 33  1  0
  8 34  1  0
 12 35  1  0
 13 36  1  0
 16 37  1  0
 16 38  1  0
 16 39  1  0
 17 40  1  0
 18 41  1  0
 20 42  1  0
 24 43  1  0
 25 44  1  0
 27 45  1  0
M  END
$$$$
