@<TRIPOS>MOLECULE
*****
 32 33 0 0 0
SMALL
GASTEIGER

@<TRIPOS>ATOM
      1 C          -3.6156    1.7692   -0.0304 C.3     1  UNL1        0.0789
      2 O          -2.8228    0.6128   -0.1497 O.3     1  UNL1       -0.4930
      3 C          -1.4420    0.6550   -0.0197 C.ar    1  UNL1        0.1444
      4 C          -0.6472   -0.4922   -0.1373 C.ar    1  UNL1        0.0975
      5 N          -1.2627   -1.6723   -0.3859 N.ar    1  UNL1       -0.3080
      6 C          -2.6943   -1.8023   -0.5349 C.3     1  UNL1        0.0154
      7 C          -0.4235   -2.7205   -0.4833 C.ar    1  UNL1        0.2518
      8 O          -0.9677   -3.8453   -0.7165 O.2     1  UNL1       -0.2677
      9 C           0.9284   -2.7366   -0.3655 C.ar    1  UNL1        0.0066
     10 C           1.5430   -1.5218   -0.1112 C.ar    1  UNL1       -0.0326
     11 C           3.0085   -1.4374    0.0333 C.3     1  UNL1       -0.0388
     12 C           0.7445   -0.4027    0.0014 C.ar    1  UNL1        0.0468
     13 C           1.3563    0.8120    0.2555 C.ar    1  UNL1        0.1297
     14 O           2.6998    0.9880    0.4041 O.3     1  UNL1       -0.4944
     15 C           3.2474    2.2561    0.6612 C.3     1  UNL1        0.0788
     16 C           0.5099    1.8968    0.3582 C.ar    1  UNL1       -0.0158
     17 C          -0.8527    1.8793    0.2339 C.ar    1  UNL1       -0.0144
     18 H          -3.5515    2.2171    0.9707 H       1  UNL1        0.0660
     19 H          -4.6636    1.4988   -0.2269 H       1  UNL1        0.0660
     20 H          -3.2751    2.4610   -0.8351 H       1  UNL1        0.0660
     21 H          -2.8876   -2.8993   -0.7329 H       1  UNL1        0.0457
     22 H          -3.1057   -1.3067   -1.4353 H       1  UNL1        0.0457
     23 H          -3.2566   -1.6069    0.3996 H       1  UNL1        0.0457
     24 H           1.5041   -3.6454   -0.4634 H       1  UNL1        0.0674
     25 H           3.5187   -0.8605   -0.7580 H       1  UNL1        0.0278
     26 H           3.4383   -2.4776   -0.0833 H       1  UNL1        0.0278
     27 H           3.3124   -1.1619    1.0679 H       1  UNL1        0.0278
     28 H           3.0748    2.9886   -0.1749 H       1  UNL1        0.0660
     29 H           4.3465    2.2095    0.8221 H       1  UNL1        0.0660
     30 H           2.7267    2.7013    1.5507 H       1  UNL1        0.0660
     31 H           0.9530    2.8637    0.5564 H       1  UNL1        0.0655
     32 H          -1.4437    2.7804    0.3292 H       1  UNL1        0.0656
@<TRIPOS>BOND
     1     1     2    1
     2     2     3    1
     3     3     4   ar
     4     4     5   ar
     5     5     6    1
     6     5     7   ar
     7     7     8    2
     8     7     9   ar
     9     9    10   ar
    10    10    11    1
    11    10    12   ar
    12    12    13   ar
    13    13    14    1
    14    14    15    1
    15    13    16   ar
    16    16    17   ar
    17    17     3   ar
    18    12     4   ar
    19     1    18    1
    20     1    19    1
    21     1    20    1
    22     6    21    1
    23     6    22    1
    24     6    23    1
    25     9    24    1
    26    11    25    1
    27    11    26    1
    28    11    27    1
    29    15    28    1
    30    15    29    1
    31    15    30    1
    32    16    31    1
    33    17    32    1
