
     RDKit          3D

 32 33  0  0  0  0  0  0  0  0999 V2000
   -3.6156    1.7692   -0.0304 C   0  0  0  0  0  0  0  0  0  0  0  0
   -2.8228    0.6128   -0.1497 O   0  0  0  0  0  0  0  0  0  0  0  0
   -1.4420    0.6550   -0.0197 C   0  0  0  0  0  0  0  0  0  0  0  0
   -0.6472   -0.4922   -0.1373 C   0  0  0  0  0  0  0  0  0  0  0  0
   -1.2627   -1.6723   -0.3859 N   0  0  0  0  0  0  0  0  0  0  0  0
   -2.6943   -1.8023   -0.5349 C   0  0  0  0  0  0  0  0  0  0  0  0
   -0.4235   -2.7205   -0.4833 C   0  0  0  0  0  0  0  0  0  0  0  0
   -0.9677   -3.8453   -0.7165 O   0  0  0  0  0  0  0  0  0  0  0  0
    0.9284   -2.7366   -0.3655 C   0  0  0  0  0  0  0  0  0  0  0  0
    1.5430   -1.5218   -0.1112 C   0  0  0  0  0  0  0  0  0  0  0  0
    3.0085   -1.4374    0.0333 C   0  0  0  0  0  0  0  0  0  0  0  0
    0.7445   -0.4027    0.0014 C   0  0  0  0  0  0  0  0  0  0  0  0
    1.3563    0.8120    0.2555 C   0  0  0  0  0  0  0  0  0  0  0  0
    2.6998    0.9880    0.4041 O   0  0  0  0  0  0  0  0  0  0  0  0
    3.2474    2.2561    0.6612 C   0  0  0  0  0  0  0  0  0  0  0  0
    0.5099    1.8968    0.3582 C   0  0  0  0  0  0  0  0  0  0  0  0
   -0.8527    1.8793    0.2339 C   0  0  0  0  0  0  0  0  0  0  0  0
   -3.5515    2.2171    0.9707 H   0  0  0  0  0  0  0  0  0  0  0  0
   -4.6636    1.4988   -0.2269 H   0  0  0  0  0  0  0  0  0  0  0  0
   -3.2751    2.4610   -0.8351 H   0  0  0  0  0  0  0  0  0  0  0  0
   -2.8876   -2.8993   -0.7329 H   0  0  0  0  0  0  0  0  0  0  0  0
   -3.1057   -1.3067   -1.4353 H   0  0  0  0  0  0  0  0  0  0  0  0
   -3.2566   -1.6069    0.3996 H   0  0  0  0  0  0  0  0  0  0  0  0
    1.5041   -3.6454   -0.4634 H   0  0  0  0  0  0  0  0  0  0  0  0
    3.5187   -0.8605   -0.7580 H   0  0  0  0  0  0  0  0  0  0  0  0
    3.4383   -2.4776   -0.0833 H   0  0  0  0  0  0  0  0  0  0  0  0
    3.3124   -1.1619    1.0679 H   0  0  0  0  0  0  0  0  0  0  0  0
    3.0748    2.9886   -0.1749 H   0  0  0  0  0  0  0  0  0  0  0  0
    4.3465    2.2095    0.8221 H   0  0  0  0  0  0  0  0  0  0  0  0
    2.7267    2.7013    1.5507 H   0  0  0  0  0  0  0  0  0  0  0  0
    0.9530    2.8637    0.5564 H   0  0  0  0  0  0  0  0  0  0  0  0
   -1.4437    2.7804    0.3292 H   0  0  0  0  0  0  0  0  0  0  0  0
  1  2  1  0
  2  3  1  0
  3  4  2  0
  4  5  1  0
  5  6  1  0
  5  7  1  0
  7  8  2  0
  7  9  1  0
  9 10  2  0
 10 11  1  0
 10 12  1  0
 12 13  2  0
 13 14  1  0
 14 15  1  0
 13 16  1  0
 16 17  2  0
 17  3  1  0
 12  4  1  0
  1 18  1  0
  1 19  1  0
  1 20  1  0
  6 21  1  0
  6 22  1  0
  6 23  1  0
  9 24  1  0
 11 25  1  0
 11 26  1  0
 11 27  1  0
 15 28  1  0
 15 29  1  0
 15 30  1  0
 16 31  1  0
 17 32  1  0
M  END
$$$$
