@<TRIPOS>MOLECULE
*****
 58 62 0 0 0
SMALL
GASTEIGER

@<TRIPOS>ATOM
      1 O           3.6092    4.1057   -0.0797 O.2     1  UNL1       -0.2817
      2 C           3.8397    2.9059   -0.3547 C.2     1  UNL1        0.2496
      3 C           5.0640    2.2957   -0.8322 C.2     1  UNL1        0.2915
      4 O           6.1558    2.8716   -1.0669 O.2     1  UNL1       -0.2661
      5 N           4.7692    0.8983   -0.9808 N.am    1  UNL1       -0.2598
      6 C           5.7157   -0.0944   -1.4417 C.3     1  UNL1        0.0452
      7 C           6.5125   -0.6894   -0.3414 C.ar    1  UNL1       -0.0295
      8 C           6.0769   -1.8225    0.3035 C.ar    1  UNL1       -0.0543
      9 C           6.8442   -2.3508    1.3272 C.ar    1  UNL1       -0.0261
     10 C           8.0107   -1.7359    1.6701 C.ar    1  UNL1        0.1234
     11 F           8.7565   -2.2682    2.6814 F       1  UNL1       -0.2055
     12 C           8.4907   -0.6011    1.0568 C.ar    1  UNL1       -0.0261
     13 C           7.7170   -0.0809    0.0353 C.ar    1  UNL1       -0.0543
     14 C           3.4261    0.6266   -0.6177 C.ar    1  UNL1        0.0481
     15 C           2.6781   -0.5260   -0.5879 C.ar    1  UNL1       -0.0377
     16 C           1.3660   -0.4651   -0.1784 C.ar    1  UNL1       -0.0335
     17 C           0.7623    0.7104    0.2066 C.ar    1  UNL1        0.1063
     18 S          -0.9047    0.6642    0.7058 S.O2    1  UNL1        0.0612
     19 O          -1.1592   -0.7210    1.2684 O.2     1  UNL1       -0.1528
     20 O          -1.1872    1.6196    1.8224 O.2     1  UNL1       -0.1528
     21 N          -1.8811    0.9008   -0.6558 N.3     1  UNL1       -0.1703
     22 C          -1.7402   -0.1026   -1.6699 C.3     1  UNL1        0.0210
     23 C          -3.1501   -0.4069   -2.2036 C.3     1  UNL1       -0.0370
     24 C          -3.8471    0.8912   -1.7678 C.3     1  UNL1       -0.0313
     25 C          -3.3092    1.0212   -0.3836 C.3     1  UNL1        0.0659
     26 C          -3.7686    0.0904    0.6612 C.3     1  UNL1        0.1067
     27 O          -5.0443    0.0249    1.0465 O.3     1  UNL1       -0.4904
     28 C          -6.2879   -0.3027    0.6849 C.ar    1  UNL1        0.1206
     29 C          -7.3657   -0.0989    1.5803 C.ar    1  UNL1       -0.0199
     30 C          -8.6550   -0.4170    1.2722 C.ar    1  UNL1       -0.0583
     31 C          -8.9787   -0.9626    0.0517 C.ar    1  UNL1       -0.0615
     32 C          -7.9592   -1.1741   -0.8392 C.ar    1  UNL1       -0.0583
     33 C          -6.6544   -0.8521   -0.5256 C.ar    1  UNL1       -0.0199
     34 C           1.5227    1.8543    0.1712 C.ar    1  UNL1       -0.0226
     35 C           2.8461    1.8423   -0.2333 C.ar    1  UNL1        0.0502
     36 H           6.4358    0.3645   -2.1641 H       1  UNL1        0.0518
     37 H           5.1245   -0.8707   -1.9955 H       1  UNL1        0.0518
     38 H           5.1491   -2.3192    0.0353 H       1  UNL1        0.0622
     39 H           6.4635   -3.2556    1.8178 H       1  UNL1        0.0646
     40 H           9.4228   -0.1462    1.3618 H       1  UNL1        0.0646
     41 H           8.0626    0.7988   -0.4596 H       1  UNL1        0.0622
     42 H           3.1311   -1.4494   -0.8862 H       1  UNL1        0.0637
     43 H           0.8157   -1.4196   -0.1739 H       1  UNL1        0.0638
     44 H          -1.2438   -1.0202   -1.3315 H       1  UNL1        0.0444
     45 H          -1.1893    0.3379   -2.5299 H       1  UNL1        0.0444
     46 H          -3.4957   -1.2741   -1.6223 H       1  UNL1        0.0279
     47 H          -3.1564   -0.5371   -3.2845 H       1  UNL1        0.0279
     48 H          -3.3303    1.6806   -2.3995 H       1  UNL1        0.0282
     49 H          -4.9113    0.9075   -1.9070 H       1  UNL1        0.0282
     50 H          -3.4416    2.0876   -0.0566 H       1  UNL1        0.0513
     51 H          -3.1692    0.4073    1.6069 H       1  UNL1        0.0713
     52 H          -3.3706   -0.9543    0.4028 H       1  UNL1        0.0713
     53 H          -7.0902    0.3294    2.5308 H       1  UNL1        0.0654
     54 H          -9.4836   -0.2521    1.9808 H       1  UNL1        0.0619
     55 H         -10.0099   -1.2003   -0.1551 H       1  UNL1        0.0618
     56 H          -8.1909   -1.6065   -1.8152 H       1  UNL1        0.0619
     57 H          -5.8538   -1.0628   -1.2549 H       1  UNL1        0.0654
     58 H           1.0607    2.8033    0.4742 H       1  UNL1        0.0645
@<TRIPOS>BOND
     1     1     2    2
     2     2     3    1
     3     3     4    2
     4     3     5   am
     5     5     6    1
     6     6     7    1
     7     7     8   ar
     8     8     9   ar
     9     9    10   ar
    10    10    11    1
    11    10    12   ar
    12    12    13   ar
    13     5    14    1
    14    14    15   ar
    15    15    16   ar
    16    16    17   ar
    17    17    18    1
    18    18    19    2
    19    18    20    2
    20    18    21    1
    21    21    22    1
    22    22    23    1
    23    23    24    1
    24    24    25    1
    25    25    26    1
    26    26    27    1
    27    27    28    1
    28    28    29   ar
    29    29    30   ar
    30    30    31   ar
    31    31    32   ar
    32    32    33   ar
    33    17    34   ar
    34    34    35   ar
    35    35     2    1
    36    13     7   ar
    37    35    14   ar
    38    25    21    1
    39    33    28   ar
    40     6    36    1
    41     6    37    1
    42     8    38    1
    43     9    39    1
    44    12    40    1
    45    13    41    1
    46    15    42    1
    47    16    43    1
    48    22    44    1
    49    22    45    1
    50    23    46    1
    51    23    47    1
    52    24    48    1
    53    24    49    1
    54    25    50    1
    55    26    51    1
    56    26    52    1
    57    29    53    1
    58    30    54    1
    59    31    55    1
    60    32    56    1
    61    33    57    1
    62    34    58    1
