
     RDKit          3D

 58 62  0  0  0  0  0  0  0  0999 V2000
    3.6092    4.1057   -0.0797 O   0  0  0  0  0  0  0  0  0  0  0  0
    3.8397    2.9059   -0.3547 C   0  0  0  0  0  0  0  0  0  0  0  0
    5.0640    2.2957   -0.8322 C   0  0  0  0  0  0  0  0  0  0  0  0
    6.1558    2.8716   -1.0669 O   0  0  0  0  0  0  0  0  0  0  0  0
    4.7692    0.8983   -0.9808 N   0  0  0  0  0  0  0  0  0  0  0  0
    5.7157   -0.0944   -1.4417 C   0  0  0  0  0  0  0  0  0  0  0  0
    6.5125   -0.6894   -0.3414 C   0  0  0  0  0  0  0  0  0  0  0  0
    6.0769   -1.8225    0.3035 C   0  0  0  0  0  0  0  0  0  0  0  0
    6.8442   -2.3508    1.3272 C   0  0  0  0  0  0  0  0  0  0  0  0
    8.0107   -1.7359    1.6701 C   0  0  0  0  0  0  0  0  0  0  0  0
    8.7565   -2.2682    2.6814 F   0  0  0  0  0  0  0  0  0  0  0  0
    8.4907   -0.6011    1.0568 C   0  0  0  0  0  0  0  0  0  0  0  0
    7.7170   -0.0809    0.0353 C   0  0  0  0  0  0  0  0  0  0  0  0
    3.4261    0.6266   -0.6177 C   0  0  0  0  0  0  0  0  0  0  0  0
    2.6781   -0.5260   -0.5879 C   0  0  0  0  0  0  0  0  0  0  0  0
    1.3660   -0.4651   -0.1784 C   0  0  0  0  0  0  0  0  0  0  0  0
    0.7623    0.7104    0.2066 C   0  0  0  0  0  0  0  0  0  0  0  0
   -0.9047    0.6642    0.7058 S   0  0  0  0  0  6  0  0  0  0  0  0
   -1.1592   -0.7210    1.2684 O   0  0  0  0  0  0  0  0  0  0  0  0
   -1.1872    1.6196    1.8224 O   0  0  0  0  0  0  0  0  0  0  0  0
   -1.8811    0.9008   -0.6558 N   0  0  0  0  0  0  0  0  0  0  0  0
   -1.7402   -0.1026   -1.6699 C   0  0  0  0  0  0  0  0  0  0  0  0
   -3.1501   -0.4069   -2.2036 C   0  0  0  0  0  0  0  0  0  0  0  0
   -3.8471    0.8912   -1.7678 C   0  0  0  0  0  0  0  0  0  0  0  0
   -3.3092    1.0212   -0.3836 C   0  0  1  0  0  0  0  0  0  0  0  0
   -3.7686    0.0904    0.6612 C   0  0  0  0  0  0  0  0  0  0  0  0
   -5.0443    0.0249    1.0465 O   0  0  0  0  0  0  0  0  0  0  0  0
   -6.2879   -0.3027    0.6849 C   0  0  0  0  0  0  0  0  0  0  0  0
   -7.3657   -0.0989    1.5803 C   0  0  0  0  0  0  0  0  0  0  0  0
   -8.6550   -0.4170    1.2722 C   0  0  0  0  0  0  0  0  0  0  0  0
   -8.9787   -0.9626    0.0517 C   0  0  0  0  0  0  0  0  0  0  0  0
   -7.9592   -1.1741   -0.8392 C   0  0  0  0  0  0  0  0  0  0  0  0
   -6.6544   -0.8521   -0.5256 C   0  0  0  0  0  0  0  0  0  0  0  0
    1.5227    1.8543    0.1712 C   0  0  0  0  0  0  0  0  0  0  0  0
    2.8461    1.8423   -0.2333 C   0  0  0  0  0  0  0  0  0  0  0  0
    6.4358    0.3645   -2.1641 H   0  0  0  0  0  0  0  0  0  0  0  0
    5.1245   -0.8707   -1.9955 H   0  0  0  0  0  0  0  0  0  0  0  0
    5.1491   -2.3192    0.0353 H   0  0  0  0  0  0  0  0  0  0  0  0
    6.4635   -3.2556    1.8178 H   0  0  0  0  0  0  0  0  0  0  0  0
    9.4228   -0.1462    1.3618 H   0  0  0  0  0  0  0  0  0  0  0  0
    8.0626    0.7988   -0.4596 H   0  0  0  0  0  0  0  0  0  0  0  0
    3.1311   -1.4494   -0.8862 H   0  0  0  0  0  0  0  0  0  0  0  0
    0.8157   -1.4196   -0.1739 H   0  0  0  0  0  0  0  0  0  0  0  0
   -1.2438   -1.0202   -1.3315 H   0  0  0  0  0  0  0  0  0  0  0  0
   -1.1893    0.3379   -2.5299 H   0  0  0  0  0  0  0  0  0  0  0  0
   -3.4957   -1.2741   -1.6223 H   0  0  0  0  0  0  0  0  0  0  0  0
   -3.1564   -0.5371   -3.2845 H   0  0  0  0  0  0  0  0  0  0  0  0
   -3.3303    1.6806   -2.3995 H   0  0  0  0  0  0  0  0  0  0  0  0
   -4.9113    0.9075   -1.9070 H   0  0  0  0  0  0  0  0  0  0  0  0
   -3.4416    2.0876   -0.0566 H   0  0  0  0  0  0  0  0  0  0  0  0
   -3.1692    0.4073    1.6069 H   0  0  0  0  0  0  0  0  0  0  0  0
   -3.3706   -0.9543    0.4028 H   0  0  0  0  0  0  0  0  0  0  0  0
   -7.0902    0.3294    2.5308 H   0  0  0  0  0  0  0  0  0  0  0  0
   -9.4836   -0.2521    1.9808 H   0  0  0  0  0  0  0  0  0  0  0  0
  -10.0099   -1.2003   -0.1551 H   0  0  0  0  0  0  0  0  0  0  0  0
   -8.1909   -1.6065   -1.8152 H   0  0  0  0  0  0  0  0  0  0  0  0
   -5.8538   -1.0628   -1.2549 H   0  0  0  0  0  0  0  0  0  0  0  0
    1.0607    2.8033    0.4742 H   0  0  0  0  0  0  0  0  0  0  0  0
  1  2  2  0
  2  3  1  0
  3  4  2  0
  3  5  1  0
  5  6  1  0
  6  7  1  0
  7  8  2  0
  8  9  1  0
  9 10  2  0
 10 11  1  0
 10 12  1  0
 12 13  2  0
  5 14  1  0
 14 15  2  0
 15 16  1  0
 16 17  2  0
 17 18  1  0
 18 19  2  0
 18 20  2  0
 18 21  1  0
 21 22  1  0
 22 23  1  0
 23 24  1  0
 24 25  1  0
 25 26  1  0
 26 27  1  0
 27 28  1  0
 28 29  2  0
 29 30  1  0
 30 31  2  0
 31 32  1  0
 32 33  2  0
 17 34  1  0
 34 35  2  0
 35  2  1  0
 13  7  1  0
 35 14  1  0
 25 21  1  0
 33 28  1  0
  6 36  1  0
  6 37  1  0
  8 38  1  0
  9 39  1  0
 12 40  1  0
 13 41  1  0
 15 42  1  0
 16 43  1  0
 22 44  1  0
 22 45  1  0
 23 46  1  0
 23 47  1  0
 24 48  1  0
 24 49  1  0
 25 50  1  1
 26 51  1  0
 26 52  1  0
 29 53  1  0
 30 54  1  0
 31 55  1  0
 32 56  1  0
 33 57  1  0
 34 58  1  0
M  END
$$$$
