
     RDKit          3D

 71 76  0  0  0  0  0  0  0  0999 V2000
    8.6321   -5.1043   -0.4783 C   0  0  0  0  0  0  0  0  0  0  0  0
    7.6381   -4.1805   -0.1303 O   0  0  0  0  0  0  0  0  0  0  0  0
    7.1829   -3.2054   -0.9996 C   0  0  0  0  0  0  0  0  0  0  0  0
    7.7066   -3.1731   -2.1505 O   0  0  0  0  0  0  0  0  0  0  0  0
    6.1910   -2.2694   -0.6786 N   0  0  0  0  0  0  0  0  0  0  0  0
    5.5459   -2.2493    0.6283 C   0  0  0  0  0  0  0  0  0  0  0  0
    4.3038   -1.3826    0.6066 C   0  0  0  0  0  0  0  0  0  0  0  0
    3.4767   -1.6607   -0.6480 C   0  0  0  0  0  0  0  0  0  0  0  0
    2.3155   -0.8244   -0.6206 N   0  0  0  0  0  0  0  0  0  0  0  0
    1.0691   -1.2476   -0.6392 N   0  0  0  0  0  0  0  0  0  0  0  0
    0.2187   -0.2083   -0.6033 C   0  0  0  0  0  0  0  0  0  0  0  0
   -1.2483   -0.2573   -0.6083 C   0  0  0  0  0  0  0  0  0  0  0  0
   -2.0008    0.2230   -1.6535 C   0  0  0  0  0  0  0  0  0  0  0  0
   -3.3787    0.1515   -1.6043 C   0  0  0  0  0  0  0  0  0  0  0  0
   -4.0221   -0.3833   -0.5463 N   0  0  0  0  0  0  0  0  0  0  0  0
   -3.3451   -0.8590    0.4839 C   0  0  0  0  0  0  0  0  0  0  0  0
   -4.0070   -1.4251    1.6066 N   0  0  0  0  0  0  0  0  0  0  0  0
   -5.4310   -1.5270    1.7350 C   0  0  0  0  0  0  0  0  0  0  0  0
   -6.0229   -0.1388    1.7404 C   0  0  0  0  0  0  0  0  0  0  0  0
   -7.5161   -0.3060    1.9389 C   0  0  0  0  0  0  0  0  0  0  0  0
   -8.0547   -1.1204    0.9658 O   0  0  0  0  0  0  0  0  0  0  0  0
   -7.1533   -1.4719   -0.0372 C   0  0  0  0  0  0  0  0  0  0  0  0
   -5.9788   -2.2482    0.5361 C   0  0  0  0  0  0  0  0  0  0  0  0
   -1.9431   -0.7942    0.4503 C   0  0  0  0  0  0  0  0  0  0  0  0
    0.9547    0.9065   -0.5608 N   0  0  0  0  0  0  0  0  0  0  0  0
    0.4327    2.2411   -0.5132 C   0  0  0  0  0  0  0  0  0  0  0  0
    0.4690    3.0396   -1.6175 C   0  0  0  0  0  0  0  0  0  0  0  0
   -0.0302    4.3134   -1.5690 C   0  0  0  0  0  0  0  0  0  0  0  0
   -0.5685    4.7682   -0.3817 C   0  0  0  0  0  0  0  0  0  0  0  0
   -1.0805    6.0629   -0.3165 C   0  0  0  0  0  0  0  0  0  0  0  0
   -1.6221    6.5422    0.8520 C   0  0  0  0  0  0  0  0  0  0  0  0
   -1.6567    5.7435    1.9513 C   0  0  0  0  0  0  0  0  0  0  0  0
   -1.1684    4.4556    1.9543 C   0  0  0  0  0  0  0  0  0  0  0  0
   -0.6264    3.9928    0.7642 C   0  0  0  0  0  0  0  0  0  0  0  0
   -0.1069    2.7150    0.6549 C   0  0  0  0  0  0  0  0  0  0  0  0
    2.2421    0.5218   -0.5716 C   0  0  0  0  0  0  0  0  0  0  0  0
    3.2438    1.2902   -0.5410 O   0  0  0  0  0  0  0  0  0  0  0  0
    4.2976   -1.4891   -1.8999 C   0  0  0  0  0  0  0  0  0  0  0  0
    5.7541   -1.2729   -1.6289 C   0  0  0  0  0  0  0  0  0  0  0  0
    9.1552   -5.5103    0.4134 H   0  0  0  0  0  0  0  0  0  0  0  0
    9.3855   -4.6381   -1.1740 H   0  0  0  0  0  0  0  0  0  0  0  0
    8.1873   -5.9862   -1.0091 H   0  0  0  0  0  0  0  0  0  0  0  0
    6.2614   -1.7561    1.3224 H   0  0  0  0  0  0  0  0  0  0  0  0
    5.3460   -3.2795    0.9380 H   0  0  0  0  0  0  0  0  0  0  0  0
    3.6959   -1.6426    1.4854 H   0  0  0  0  0  0  0  0  0  0  0  0
    4.5672   -0.3275    0.6578 H   0  0  0  0  0  0  0  0  0  0  0  0
    3.1655   -2.7198   -0.5610 H   0  0  0  0  0  0  0  0  0  0  0  0
   -1.5507    0.6596   -2.5229 H   0  0  0  0  0  0  0  0  0  0  0  0
   -4.0102    0.5202   -2.4103 H   0  0  0  0  0  0  0  0  0  0  0  0
   -3.4096   -1.7970    2.4018 H   0  0  0  0  0  0  0  0  0  0  0  0
   -5.7235   -2.0569    2.6820 H   0  0  0  0  0  0  0  0  0  0  0  0
   -5.7688    0.3585    0.8103 H   0  0  0  0  0  0  0  0  0  0  0  0
   -5.6162    0.4017    2.6303 H   0  0  0  0  0  0  0  0  0  0  0  0
   -7.6677   -0.7104    2.9584 H   0  0  0  0  0  0  0  0  0  0  0  0
   -7.9507    0.7307    1.9341 H   0  0  0  0  0  0  0  0  0  0  0  0
   -7.7097   -2.2086   -0.6868 H   0  0  0  0  0  0  0  0  0  0  0  0
   -6.8082   -0.6264   -0.6412 H   0  0  0  0  0  0  0  0  0  0  0  0
   -5.2487   -2.3880   -0.2828 H   0  0  0  0  0  0  0  0  0  0  0  0
   -6.3637   -3.2623    0.8511 H   0  0  0  0  0  0  0  0  0  0  0  0
   -1.4072   -1.1901    1.3059 H   0  0  0  0  0  0  0  0  0  0  0  0
    0.8949    2.6670   -2.5403 H   0  0  0  0  0  0  0  0  0  0  0  0
   -0.0085    4.9724   -2.4545 H   0  0  0  0  0  0  0  0  0  0  0  0
   -1.0246    6.6479   -1.2201 H   0  0  0  0  0  0  0  0  0  0  0  0
   -2.0047    7.5648    0.8321 H   0  0  0  0  0  0  0  0  0  0  0  0
   -2.1016    6.1791    2.8597 H   0  0  0  0  0  0  0  0  0  0  0  0
   -1.1923    3.8245    2.8118 H   0  0  0  0  0  0  0  0  0  0  0  0
   -0.1536    2.0987    1.5667 H   0  0  0  0  0  0  0  0  0  0  0  0
    3.8611   -0.6793   -2.5408 H   0  0  0  0  0  0  0  0  0  0  0  0
    4.2188   -2.4143   -2.5287 H   0  0  0  0  0  0  0  0  0  0  0  0
    6.2959   -1.3170   -2.5815 H   0  0  0  0  0  0  0  0  0  0  0  0
    5.9723   -0.2831   -1.1779 H   0  0  0  0  0  0  0  0  0  0  0  0
  1  2  1  0
  2  3  1  0
  3  4  2  0
  3  5  1  0
  5  6  1  0
  6  7  1  0
  7  8  1  0
  8  9  1  0
  9 10  1  0
 10 11  2  0
 11 12  1  0
 12 13  2  0
 13 14  1  0
 14 15  2  0
 15 16  1  0
 16 17  1  0
 17 18  1  0
 18 19  1  0
 19 20  1  0
 20 21  1  0
 21 22  1  0
 22 23  1  0
 16 24  2  0
 11 25  1  0
 25 26  1  0
 26 27  2  0
 27 28  1  0
 28 29  2  0
 29 30  1  0
 30 31  2  0
 31 32  1  0
 32 33  2  0
 33 34  1  0
 34 35  2  0
 25 36  1  0
 36 37  2  0
  8 38  1  0
 38 39  1  0
 39  5  1  0
 36  9  1  0
 24 12  1  0
 35 26  1  0
 23 18  1  0
 34 29  1  0
  1 40  1  0
  1 41  1  0
  1 42  1  0
  6 43  1  0
  6 44  1  0
  7 45  1  0
  7 46  1  0
  8 47  1  0
 13 48  1  0
 14 49  1  0
 17 50  1  0
 18 51  1  0
 19 52  1  0
 19 53  1  0
 20 54  1  0
 20 55  1  0
 22 56  1  0
 22 57  1  0
 23 58  1  0
 23 59  1  0
 24 60  1  0
 27 61  1  0
 28 62  1  0
 30 63  1  0
 31 64  1  0
 32 65  1  0
 33 66  1  0
 35 67  1  0
 38 68  1  0
 38 69  1  0
 39 70  1  0
 39 71  1  0
M  END
$$$$
