@<TRIPOS>MOLECULE
*****
 71 76 0 0 0
SMALL
GASTEIGER

@<TRIPOS>ATOM
      1 C           8.6321   -5.1043   -0.4783 C.3     1  UNL1        0.0833
      2 O           7.6381   -4.1805   -0.1303 O.3     1  UNL1       -0.4536
      3 C           7.1829   -3.2054   -0.9996 C.2     1  UNL1        0.4026
      4 O           7.7066   -3.1731   -2.1505 O.2     1  UNL1       -0.2263
      5 N           6.1910   -2.2694   -0.6786 N.am    1  UNL1       -0.2673
      6 C           5.5459   -2.2493    0.6283 C.3     1  UNL1        0.0197
      7 C           4.3038   -1.3826    0.6066 C.3     1  UNL1       -0.0143
      8 C           3.4767   -1.6607   -0.6480 C.3     1  UNL1        0.0608
      9 N           2.3155   -0.8244   -0.6206 N.ar    1  UNL1       -0.2091
     10 N           1.0691   -1.2476   -0.6392 N.ar    1  UNL1       -0.1479
     11 C           0.2187   -0.2083   -0.6033 C.ar    1  UNL1        0.1696
     12 C          -1.2483   -0.2573   -0.6083 C.ar    1  UNL1        0.0243
     13 C          -2.0008    0.2230   -1.6535 C.ar    1  UNL1       -0.0327
     14 C          -3.3787    0.1515   -1.6043 C.ar    1  UNL1        0.0304
     15 N          -4.0221   -0.3833   -0.5463 N.ar    1  UNL1       -0.2405
     16 C          -3.3451   -0.8590    0.4839 C.ar    1  UNL1        0.1195
     17 N          -4.0070   -1.4251    1.6066 N.pl3   1  UNL1       -0.3261
     18 C          -5.4310   -1.5270    1.7350 C.3     1  UNL1        0.0261
     19 C          -6.0229   -0.1388    1.7404 C.3     1  UNL1       -0.0109
     20 C          -7.5161   -0.3060    1.9389 C.3     1  UNL1        0.0493
     21 O          -8.0547   -1.1204    0.9658 O.3     1  UNL1       -0.3796
     22 C          -7.1533   -1.4719   -0.0372 C.3     1  UNL1        0.0493
     23 C          -5.9788   -2.2482    0.5361 C.3     1  UNL1       -0.0109
     24 C          -1.9431   -0.7942    0.4503 C.ar    1  UNL1       -0.0112
     25 N           0.9547    0.9065   -0.5608 N.ar    1  UNL1       -0.2435
     26 C           0.4327    2.2411   -0.5132 C.ar    1  UNL1        0.0535
     27 C           0.4690    3.0396   -1.6175 C.ar    1  UNL1       -0.0370
     28 C          -0.0302    4.3134   -1.5690 C.ar    1  UNL1       -0.0521
     29 C          -0.5685    4.7682   -0.3817 C.ar    1  UNL1       -0.0178
     30 C          -1.0805    6.0629   -0.3165 C.ar    1  UNL1       -0.0540
     31 C          -1.6221    6.5422    0.8520 C.ar    1  UNL1       -0.0612
     32 C          -1.6567    5.7435    1.9513 C.ar    1  UNL1       -0.0612
     33 C          -1.1684    4.4556    1.9543 C.ar    1  UNL1       -0.0540
     34 C          -0.6264    3.9928    0.7642 C.ar    1  UNL1       -0.0159
     35 C          -0.1069    2.7150    0.6549 C.ar    1  UNL1       -0.0299
     36 C           2.2421    0.5218   -0.5716 C.ar    1  UNL1        0.3518
     37 O           3.2438    1.2902   -0.5410 O.2     1  UNL1       -0.2444
     38 C           4.2976   -1.4891   -1.8999 C.3     1  UNL1       -0.0143
     39 C           5.7541   -1.2729   -1.6289 C.3     1  UNL1        0.0197
     40 H           9.1552   -5.5103    0.4134 H       1  UNL1        0.0661
     41 H           9.3855   -4.6381   -1.1740 H       1  UNL1        0.0661
     42 H           8.1873   -5.9862   -1.0091 H       1  UNL1        0.0661
     43 H           6.2614   -1.7561    1.3224 H       1  UNL1        0.0466
     44 H           5.3460   -3.2795    0.9380 H       1  UNL1        0.0466
     45 H           3.6959   -1.6426    1.4854 H       1  UNL1        0.0301
     46 H           4.5672   -0.3275    0.6578 H       1  UNL1        0.0301
     47 H           3.1655   -2.7198   -0.5610 H       1  UNL1        0.0547
     48 H          -1.5507    0.6596   -2.5229 H       1  UNL1        0.0640
     49 H          -4.0102    0.5202   -2.4103 H       1  UNL1        0.0830
     50 H          -3.4096   -1.7970    2.4018 H       1  UNL1        0.1477
     51 H          -5.7235   -2.0569    2.6820 H       1  UNL1        0.0499
     52 H          -5.7688    0.3585    0.8103 H       1  UNL1        0.0305
     53 H          -5.6162    0.4017    2.6303 H       1  UNL1        0.0305
     54 H          -7.6677   -0.7104    2.9584 H       1  UNL1        0.0560
     55 H          -7.9507    0.7307    1.9341 H       1  UNL1        0.0560
     56 H          -7.7097   -2.2086   -0.6868 H       1  UNL1        0.0560
     57 H          -6.8082   -0.6264   -0.6412 H       1  UNL1        0.0560
     58 H          -5.2487   -2.3880   -0.2828 H       1  UNL1        0.0305
     59 H          -6.3637   -3.2623    0.8511 H       1  UNL1        0.0305
     60 H          -1.4072   -1.1901    1.3059 H       1  UNL1        0.0659
     61 H           0.8949    2.6670   -2.5403 H       1  UNL1        0.0638
     62 H          -0.0085    4.9724   -2.4545 H       1  UNL1        0.0624
     63 H          -1.0246    6.6479   -1.2201 H       1  UNL1        0.0624
     64 H          -2.0047    7.5648    0.8321 H       1  UNL1        0.0618
     65 H          -2.1016    6.1791    2.8597 H       1  UNL1        0.0618
     66 H          -1.1923    3.8245    2.8118 H       1  UNL1        0.0624
     67 H          -0.1536    2.0987    1.5667 H       1  UNL1        0.0644
     68 H           3.8611   -0.6793   -2.5408 H       1  UNL1        0.0301
     69 H           4.2188   -2.4143   -2.5287 H       1  UNL1        0.0301
     70 H           6.2959   -1.3170   -2.5815 H       1  UNL1        0.0466
     71 H           5.9723   -0.2831   -1.1779 H       1  UNL1        0.0466
@<TRIPOS>BOND
     1     1     2    1
     2     2     3    1
     3     3     4    2
     4     3     5   am
     5     5     6    1
     6     6     7    1
     7     7     8    1
     8     8     9    1
     9     9    10   ar
    10    10    11   ar
    11    11    12    1
    12    12    13   ar
    13    13    14   ar
    14    14    15   ar
    15    15    16   ar
    16    16    17    1
    17    17    18    1
    18    18    19    1
    19    19    20    1
    20    20    21    1
    21    21    22    1
    22    22    23    1
    23    16    24   ar
    24    11    25   ar
    25    25    26    1
    26    26    27   ar
    27    27    28   ar
    28    28    29   ar
    29    29    30   ar
    30    30    31   ar
    31    31    32   ar
    32    32    33   ar
    33    33    34   ar
    34    34    35   ar
    35    25    36   ar
    36    36    37    2
    37     8    38    1
    38    38    39    1
    39    39     5    1
    40    36     9   ar
    41    24    12   ar
    42    35    26   ar
    43    23    18    1
    44    34    29   ar
    45     1    40    1
    46     1    41    1
    47     1    42    1
    48     6    43    1
    49     6    44    1
    50     7    45    1
    51     7    46    1
    52     8    47    1
    53    13    48    1
    54    14    49    1
    55    17    50    1
    56    18    51    1
    57    19    52    1
    58    19    53    1
    59    20    54    1
    60    20    55    1
    61    22    56    1
    62    22    57    1
    63    23    58    1
    64    23    59    1
    65    24    60    1
    66    27    61    1
    67    28    62    1
    68    30    63    1
    69    31    64    1
    70    32    65    1
    71    33    66    1
    72    35    67    1
    73    38    68    1
    74    38    69    1
    75    39    70    1
    76    39    71    1
