@<TRIPOS>MOLECULE
*****
 35 37 0 0 0
SMALL
GASTEIGER

@<TRIPOS>ATOM
      1 O5*        -2.6119    2.5318    0.6694 O.3     1  UNL1       -0.3924
      2 C5*        -3.0854    1.2233    0.6524 C.3     1  UNL1        0.0729
      3 C4*        -2.8097    0.5311   -0.6818 C.3     1  UNL1        0.1100
      4 O4*        -1.4645    0.4865   -0.9335 O.3     1  UNL1       -0.3484
      5 C1*        -1.0729   -0.8182   -1.1013 C.3     1  UNL1        0.1408
      6 C2*        -2.0224   -1.5949   -0.2003 C.3     1  UNL1        0.0213
      7 C3*        -3.3250   -0.8744   -0.5676 C.3     1  UNL1        0.0876
      8 O3*        -3.6703   -1.3517   -1.8328 O.3     1  UNL1       -0.3890
      9 N           0.3001   -1.0688   -0.8460 N.ar    1  UNL1       -0.2882
     10 C           1.0568   -2.0827   -1.3038 C.ar    1  UNL1        0.0999
     11 N           2.3154   -1.9739   -0.8383 N.ar    1  UNL1       -0.2357
     12 C           2.4002   -0.8684   -0.0564 C.ar    1  UNL1        0.1152
     13 C           1.1247   -0.3254   -0.0816 C.ar    1  UNL1        0.1621
     14 N           0.7672    0.8760    0.6284 N.2     1  UNL1       -0.2209
     15 C           1.5356    1.8703    0.9876 C.2     1  UNL1        0.0837
     16 N           2.9415    1.9679    0.7373 N.pl3   1  UNL1       -0.3321
     17 C           3.9494    1.0235    0.4063 C.3     1  UNL1        0.0416
     18 C           3.6228   -0.4154    0.6332 C.3     1  UNL1        0.1158
     19 O           3.5119   -0.6037    2.0268 O.3     1  UNL1       -0.3840
     20 H5*        -2.1086    2.7395    1.4924 H       1  UNL1        0.2095
     21 H5*1       -4.1636    1.2519    0.8606 H       1  UNL1        0.0584
     22 H5*2       -2.5693    0.6857    1.4848 H       1  UNL1        0.0584
     23 H4*        -3.3786    1.0954   -1.4479 H       1  UNL1        0.0646
     24 H1*        -1.3485   -1.1127   -2.1491 H       1  UNL1        0.0840
     25 H2*1       -2.0319   -2.6353   -0.5228 H       1  UNL1        0.0335
     26 H2*2       -1.7699   -1.4773    0.8728 H       1  UNL1        0.0335
     27 H3*        -4.1040   -1.0238    0.1908 H       1  UNL1        0.0621
     28 H3*        -4.1359   -0.6662   -2.3769 H       1  UNL1        0.2099
     29 H           0.6507   -2.8626   -1.9630 H       1  UNL1        0.1030
     30 H           1.0793    2.6962    1.5209 H       1  UNL1        0.0998
     31 H           3.3422    2.9454    0.8079 H       1  UNL1        0.1470
     32 H           4.8320    1.2455    1.0709 H       1  UNL1        0.0491
     33 H           4.3383    1.1557   -0.6348 H       1  UNL1        0.0491
     34 H           4.4768   -1.0076    0.2709 H       1  UNL1        0.0676
     35 H           3.4274   -1.5625    2.2245 H       1  UNL1        0.2104
@<TRIPOS>BOND
     1     1     2    1
     2     2     3    1
     3     3     4    1
     4     4     5    1
     5     5     6    1
     6     6     7    1
     7     7     8    1
     8     5     9    1
     9     9    10   ar
    10    10    11   ar
    11    11    12   ar
    12    12    13   ar
    13    13    14    1
    14    14    15    2
    15    15    16    1
    16    16    17    1
    17    17    18    1
    18    18    19    1
    19     7     3    1
    20    13     9   ar
    21    18    12    1
    22     1    20    1
    23     2    21    1
    24     2    22    1
    25     3    23    1
    26     5    24    1
    27     6    25    1
    28     6    26    1
    29     7    27    1
    30     8    28    1
    31    10    29    1
    32    15    30    1
    33    16    31    1
    34    17    32    1
    35    17    33    1
    36    18    34    1
    37    19    35    1
