@<TRIPOS>MOLECULE
*****
 54 57 0 0 0
SMALL
GASTEIGER

@<TRIPOS>ATOM
      1 C          -4.6935   -2.3189    0.1916 C.3     1  UNL1       -0.0374
      2 C          -4.9725   -0.9038    0.4466 C.ar    1  UNL1       -0.0165
      3 C          -6.2847   -0.5106    0.7465 C.ar    1  UNL1       -0.0131
      4 C          -6.6119    0.8006    1.0461 C.ar    1  UNL1        0.1452
      5 O          -7.9267    1.1526    1.3388 O.3     1  UNL1       -0.4327
      6 C          -8.4083    2.4104    1.6553 C.3     1  UNL1        0.3893
      7 F          -9.3620    2.7686    0.7069 F       1  UNL1       -0.1663
      8 F          -9.1111    2.3124    2.8515 F       1  UNL1       -0.1663
      9 C          -5.5960    1.7028    1.0377 C.ar    1  UNL1        0.0703
     10 N          -4.3521    1.3222    0.7510 N.ar    1  UNL1       -0.2465
     11 C          -3.9961    0.0314    0.4490 C.ar    1  UNL1        0.1288
     12 C          -2.6076   -0.1627    0.1015 C.2     1  UNL1        0.2668
     13 O          -1.7798    0.6962    0.5904 O.2     1  UNL1       -0.2682
     14 N          -2.0296   -1.1513   -0.6975 N.am    1  UNL1       -0.2802
     15 C          -0.6565   -1.3452   -1.0271 C.ar    1  UNL1        0.0343
     16 C          -0.3949   -2.4453   -1.8621 C.ar    1  UNL1       -0.0377
     17 C           0.9073   -2.6943   -2.2215 C.ar    1  UNL1       -0.0243
     18 C           1.9753   -1.9218   -1.8070 C.ar    1  UNL1        0.1312
     19 F           3.2534   -2.2392   -2.1984 F       1  UNL1       -0.2050
     20 C           1.6689   -0.8592   -0.9938 C.ar    1  UNL1        0.0448
     21 C           2.8013   -0.0084   -0.5380 C.3     1  UNL1        0.2263
     22 C           2.3451    1.2071    0.2460 C.3     1  UNL1        0.1433
     23 F           1.5423    1.9562   -0.5902 F       1  UNL1       -0.2438
     24 C           3.4847    0.5972   -1.7626 C.3     1  UNL1        0.1212
     25 S           4.8300    1.5810   -1.1462 S.O2    1  UNL1       -0.0094
     26 O           5.9038    1.6074   -2.2268 O.2     1  UNL1       -0.1731
     27 O           4.4596    3.0057   -0.9164 O.2     1  UNL1       -0.1731
     28 C           5.4338    0.7604    0.2950 C.3     1  UNL1        0.1888
     29 C           6.9403    0.9327    0.4854 C.3     1  UNL1       -0.0139
     30 C           5.9536    1.5192    1.4532 C.3     1  UNL1       -0.0139
     31 C           4.8443   -0.5397    0.5595 C.2     1  UNL1        0.3073
     32 N           5.6108   -1.5023    1.2763 N.pl3   1  UNL1       -0.2488
     33 N           3.6861   -0.8602    0.1859 N.2     1  UNL1       -0.0697
     34 C           0.3821   -0.5610   -0.6002 C.ar    1  UNL1       -0.0300
     35 H          -4.8509   -2.6562   -0.8497 H       1  UNL1        0.0278
     36 H          -3.7832   -2.7164    0.6774 H       1  UNL1        0.0278
     37 H          -5.5210   -2.8940    0.7524 H       1  UNL1        0.0278
     38 H          -7.0955   -1.2292    0.7535 H       1  UNL1        0.0658
     39 H          -7.6784    3.2267    1.6803 H       1  UNL1        0.1520
     40 H          -5.7911    2.7604    1.2683 H       1  UNL1        0.0867
     41 H          -2.7340   -1.8238   -1.1339 H       1  UNL1        0.1552
     42 H          -1.2062   -3.0967   -2.2237 H       1  UNL1        0.0637
     43 H           1.1105   -3.5541   -2.8738 H       1  UNL1        0.0647
     44 H           1.7532    0.9553    1.1436 H       1  UNL1        0.0666
     45 H           3.2164    1.7670    0.6012 H       1  UNL1        0.0666
     46 H           3.9004   -0.1185   -2.4560 H       1  UNL1        0.0551
     47 H           2.7473    1.2147   -2.3171 H       1  UNL1        0.0551
     48 H           7.4561   -0.0040    0.7134 H       1  UNL1        0.0293
     49 H           7.4761    1.6830   -0.1177 H       1  UNL1        0.0293
     50 H           5.8094    2.6142    1.4762 H       1  UNL1        0.0293
     51 H           5.9387    1.0167    2.4453 H       1  UNL1        0.0293
     52 H           5.8177   -1.4611    2.2914 H       1  UNL1        0.2881
     53 H           5.9887   -2.3044    0.7358 H       1  UNL1        0.2881
     54 H           0.2067    0.2800    0.0423 H       1  UNL1        0.0641
@<TRIPOS>BOND
     1     1     2    1
     2     2     3   ar
     3     3     4   ar
     4     4     5    1
     5     5     6    1
     6     6     7    1
     7     6     8    1
     8     4     9   ar
     9     9    10   ar
    10    10    11   ar
    11    11    12    1
    12    12    13    2
    13    12    14   am
    14    14    15    1
    15    15    16   ar
    16    16    17   ar
    17    17    18   ar
    18    18    19    1
    19    18    20   ar
    20    20    21    1
    21    21    22    1
    22    22    23    1
    23    21    24    1
    24    24    25    1
    25    25    26    2
    26    25    27    2
    27    25    28    1
    28    28    29    1
    29    29    30    1
    30    28    31    1
    31    31    32    1
    32    31    33    2
    33    20    34   ar
    34    11     2   ar
    35    34    15   ar
    36    33    21    1
    37    30    28    1
    38     1    35    1
    39     1    36    1
    40     1    37    1
    41     3    38    1
    42     6    39    1
    43     9    40    1
    44    14    41    1
    45    16    42    1
    46    17    43    1
    47    22    44    1
    48    22    45    1
    49    24    46    1
    50    24    47    1
    51    29    48    1
    52    29    49    1
    53    30    50    1
    54    30    51    1
    55    32    52    1
    56    32    53    1
    57    34    54    1
