@<TRIPOS>MOLECULE
*****
 42 45 0 0 0
SMALL
GASTEIGER

@<TRIPOS>ATOM
      1 C           5.6017   -0.3787    1.2502 C.3     1  UNL1       -0.0155
      2 N           5.6674   -1.0498   -0.0010 N.3     1  UNL1       -0.3150
      3 C           5.0205   -0.3944   -1.0900 C.3     1  UNL1        0.0210
      4 C           3.5718   -0.1842   -0.8824 C.ar    1  UNL1       -0.0336
      5 C           3.1127    0.9658   -0.2850 C.ar    1  UNL1       -0.0567
      6 C           1.7710    1.1819   -0.0812 C.ar    1  UNL1       -0.0523
      7 C           0.7794    0.2606   -0.4610 C.ar    1  UNL1       -0.0014
      8 C          -0.6268    0.5929   -0.2754 C.ar    1  UNL1        0.0508
      9 N          -1.0439    1.8828   -0.1014 N.ar    1  UNL1       -0.3538
     10 C          -2.3580    1.9451    0.0698 C.ar    1  UNL1        0.0506
     11 C          -3.2442    3.0156    0.2682 C.ar    1  UNL1       -0.0025
     12 C          -4.5707    2.7399    0.3957 C.ar    1  UNL1        0.1261
     13 F          -5.4751    3.7419    0.5902 F       1  UNL1       -0.2054
     14 C          -5.0372    1.4436    0.3322 C.ar    1  UNL1       -0.0136
     15 C          -4.1633    0.3935    0.1376 C.ar    1  UNL1        0.0488
     16 C          -2.8160    0.6668    0.0084 C.ar    1  UNL1        0.0157
     17 C          -1.7443   -0.2022   -0.2050 C.ar    1  UNL1       -0.0122
     18 C          -1.7152   -1.6897   -0.2859 C.3     1  UNL1       -0.0094
     19 C          -2.7887   -2.3441    0.5938 C.3     1  UNL1        0.0160
     20 N          -4.1197   -2.1759    0.0995 N.am    1  UNL1       -0.3110
     21 C          -4.8143   -0.9084    0.0808 C.2     1  UNL1        0.2448
     22 O          -6.0452   -0.8845    0.0127 O.2     1  UNL1       -0.2702
     23 C           1.2408   -0.8784   -1.0551 C.ar    1  UNL1       -0.0523
     24 C           2.6209   -1.0971   -1.2618 C.ar    1  UNL1       -0.0567
     25 H           5.9259    0.6974    1.1387 H       1  UNL1        0.0388
     26 H           4.6222   -0.3671    1.7272 H       1  UNL1        0.0388
     27 H           6.3780   -0.8280    1.9289 H       1  UNL1        0.0388
     28 H           6.5292   -1.5425   -0.2254 H       1  UNL1        0.1219
     29 H           5.1925   -1.0115   -2.0037 H       1  UNL1        0.0473
     30 H           5.5602    0.5627   -1.2786 H       1  UNL1        0.0473
     31 H           3.8349    1.7120    0.0283 H       1  UNL1        0.0621
     32 H           1.4043    2.0941    0.3987 H       1  UNL1        0.0624
     33 H          -0.4263    2.7136   -0.1036 H       1  UNL1        0.1659
     34 H          -2.8351    4.0056    0.3105 H       1  UNL1        0.0667
     35 H          -6.0966    1.2397    0.4350 H       1  UNL1        0.0654
     36 H          -1.7405   -2.0542   -1.2987 H       1  UNL1        0.0329
     37 H          -0.7575   -2.0022    0.2273 H       1  UNL1        0.0329
     38 H          -2.6610   -1.8427    1.5982 H       1  UNL1        0.0465
     39 H          -2.5736   -3.4079    0.6798 H       1  UNL1        0.0465
     40 H          -4.6795   -2.9691   -0.2802 H       1  UNL1        0.1490
     41 H           0.5597   -1.6370   -1.4236 H       1  UNL1        0.0624
     42 H           2.9394   -2.0062   -1.7308 H       1  UNL1        0.0621
@<TRIPOS>BOND
     1     1     2    1
     2     2     3    1
     3     3     4    1
     4     4     5   ar
     5     5     6   ar
     6     6     7   ar
     7     7     8    1
     8     8     9   ar
     9     9    10   ar
    10    10    11   ar
    11    11    12   ar
    12    12    13    1
    13    12    14   ar
    14    14    15   ar
    15    15    16   ar
    16    16    17   ar
    17    17    18    1
    18    18    19    1
    19    19    20    1
    20    20    21   am
    21    21    22    2
    22     7    23   ar
    23    23    24   ar
    24    24     4   ar
    25    17     8   ar
    26    16    10   ar
    27    21    15    1
    28     1    25    1
    29     1    26    1
    30     1    27    1
    31     2    28    1
    32     3    29    1
    33     3    30    1
    34     5    31    1
    35     6    32    1
    36     9    33    1
    37    11    34    1
    38    14    35    1
    39    18    36    1
    40    18    37    1
    41    19    38    1
    42    19    39    1
    43    20    40    1
    44    23    41    1
    45    24    42    1
