
     RDKit          3D

 42 45  0  0  0  0  0  0  0  0999 V2000
    5.6017   -0.3787    1.2502 C   0  0  0  0  0  0  0  0  0  0  0  0
    5.6674   -1.0498   -0.0010 N   0  0  0  0  0  0  0  0  0  0  0  0
    5.0205   -0.3944   -1.0900 C   0  0  0  0  0  0  0  0  0  0  0  0
    3.5718   -0.1842   -0.8824 C   0  0  0  0  0  0  0  0  0  0  0  0
    3.1127    0.9658   -0.2850 C   0  0  0  0  0  0  0  0  0  0  0  0
    1.7710    1.1819   -0.0812 C   0  0  0  0  0  0  0  0  0  0  0  0
    0.7794    0.2606   -0.4610 C   0  0  0  0  0  0  0  0  0  0  0  0
   -0.6268    0.5929   -0.2754 C   0  0  0  0  0  0  0  0  0  0  0  0
   -1.0439    1.8828   -0.1014 N   0  0  0  0  0  0  0  0  0  0  0  0
   -2.3580    1.9451    0.0698 C   0  0  0  0  0  0  0  0  0  0  0  0
   -3.2442    3.0156    0.2682 C   0  0  0  0  0  0  0  0  0  0  0  0
   -4.5707    2.7399    0.3957 C   0  0  0  0  0  0  0  0  0  0  0  0
   -5.4751    3.7419    0.5902 F   0  0  0  0  0  0  0  0  0  0  0  0
   -5.0372    1.4436    0.3322 C   0  0  0  0  0  0  0  0  0  0  0  0
   -4.1633    0.3935    0.1376 C   0  0  0  0  0  0  0  0  0  0  0  0
   -2.8160    0.6668    0.0084 C   0  0  0  0  0  0  0  0  0  0  0  0
   -1.7443   -0.2022   -0.2050 C   0  0  0  0  0  0  0  0  0  0  0  0
   -1.7152   -1.6897   -0.2859 C   0  0  0  0  0  0  0  0  0  0  0  0
   -2.7887   -2.3441    0.5938 C   0  0  0  0  0  0  0  0  0  0  0  0
   -4.1197   -2.1759    0.0995 N   0  0  0  0  0  0  0  0  0  0  0  0
   -4.8143   -0.9084    0.0808 C   0  0  0  0  0  0  0  0  0  0  0  0
   -6.0452   -0.8845    0.0127 O   0  0  0  0  0  0  0  0  0  0  0  0
    1.2408   -0.8784   -1.0551 C   0  0  0  0  0  0  0  0  0  0  0  0
    2.6209   -1.0971   -1.2618 C   0  0  0  0  0  0  0  0  0  0  0  0
    5.9259    0.6974    1.1387 H   0  0  0  0  0  0  0  0  0  0  0  0
    4.6222   -0.3671    1.7272 H   0  0  0  0  0  0  0  0  0  0  0  0
    6.3780   -0.8280    1.9289 H   0  0  0  0  0  0  0  0  0  0  0  0
    6.5292   -1.5425   -0.2254 H   0  0  0  0  0  0  0  0  0  0  0  0
    5.1925   -1.0115   -2.0037 H   0  0  0  0  0  0  0  0  0  0  0  0
    5.5602    0.5627   -1.2786 H   0  0  0  0  0  0  0  0  0  0  0  0
    3.8349    1.7120    0.0283 H   0  0  0  0  0  0  0  0  0  0  0  0
    1.4043    2.0941    0.3987 H   0  0  0  0  0  0  0  0  0  0  0  0
   -0.4263    2.7136   -0.1036 H   0  0  0  0  0  0  0  0  0  0  0  0
   -2.8351    4.0056    0.3105 H   0  0  0  0  0  0  0  0  0  0  0  0
   -6.0966    1.2397    0.4350 H   0  0  0  0  0  0  0  0  0  0  0  0
   -1.7405   -2.0542   -1.2987 H   0  0  0  0  0  0  0  0  0  0  0  0
   -0.7575   -2.0022    0.2273 H   0  0  0  0  0  0  0  0  0  0  0  0
   -2.6610   -1.8427    1.5982 H   0  0  0  0  0  0  0  0  0  0  0  0
   -2.5736   -3.4079    0.6798 H   0  0  0  0  0  0  0  0  0  0  0  0
   -4.6795   -2.9691   -0.2802 H   0  0  0  0  0  0  0  0  0  0  0  0
    0.5597   -1.6370   -1.4236 H   0  0  0  0  0  0  0  0  0  0  0  0
    2.9394   -2.0062   -1.7308 H   0  0  0  0  0  0  0  0  0  0  0  0
  1  2  1  0
  2  3  1  0
  3  4  1  0
  4  5  2  0
  5  6  1  0
  6  7  2  0
  7  8  1  0
  8  9  1  0
  9 10  1  0
 10 11  2  0
 11 12  1  0
 12 13  1  0
 12 14  2  0
 14 15  1  0
 15 16  2  0
 16 17  1  0
 17 18  1  0
 18 19  1  0
 19 20  1  0
 20 21  1  0
 21 22  2  0
  7 23  1  0
 23 24  2  0
 24  4  1  0
 17  8  2  0
 16 10  1  0
 21 15  1  0
  1 25  1  0
  1 26  1  0
  1 27  1  0
  2 28  1  0
  3 29  1  0
  3 30  1  0
  5 31  1  0
  6 32  1  0
  9 33  1  0
 11 34  1  0
 14 35  1  0
 18 36  1  0
 18 37  1  0
 19 38  1  0
 19 39  1  0
 20 40  1  0
 23 41  1  0
 24 42  1  0
M  END
$$$$
