@<TRIPOS>MOLECULE
*****
 37 39 0 0 0
SMALL
GASTEIGER

@<TRIPOS>ATOM
      1 C          -1.1322   -1.7767    0.3138 C.3     1  UNL1        0.2084
      2 C           0.3641   -1.6821    0.2875 C.3     1  UNL1        0.0249
      3 C           0.9182   -0.3067    0.1539 C.3     1  UNL1        0.0175
      4 N           2.3782   -0.4367    0.1488 N.am    1  UNL1       -0.3111
      5 C           3.1898    0.7274    0.0317 C.2     1  UNL1        0.2471
      6 O           2.6420    1.8376   -0.0645 O.2     1  UNL1       -0.2701
      7 C           4.6464    0.5848    0.0278 C.ar    1  UNL1        0.0743
      8 C           5.3974   -0.5733    0.1260 C.ar    1  UNL1        0.1038
      9 O           6.6790   -0.2538    0.0814 O.2     1  UNL1       -0.4703
     10 C           6.8319    1.0478   -0.0407 C.ar    1  UNL1        0.0924
     11 C           5.5566    1.6129   -0.0780 C.ar    1  UNL1       -0.0118
     12 N          -1.7841   -1.2757   -0.8481 N.pl3   1  UNL1       -0.3000
     13 C          -2.8746   -0.3795   -0.9925 C.ar    1  UNL1        0.0836
     14 C          -3.3889    0.0067   -2.1906 C.ar    1  UNL1        0.1452
     15 F          -2.8516   -0.4745   -3.3417 F       1  UNL1       -0.2035
     16 C          -4.4522    0.8860   -2.1649 C.ar    1  UNL1       -0.0219
     17 C          -4.9827    1.3632   -0.9619 C.ar    1  UNL1       -0.0228
     18 C          -4.4398    0.9543    0.2614 C.ar    1  UNL1        0.1402
     19 F          -4.9157    1.3861    1.4541 F       1  UNL1       -0.2045
     20 C          -3.3812    0.0778    0.2050 C.ar    1  UNL1        0.1236
     21 C          -2.7210   -0.4291    1.3937 C.2     1  UNL1        0.3175
     22 N          -3.2378    0.0387    2.6551 N.pl3   1  UNL1       -0.2463
     23 N          -1.7307   -1.2441    1.4929 N.2     1  UNL1       -0.0595
     24 H          -1.3497   -2.8856    0.3343 H       1  UNL1        0.1047
     25 H           0.7539   -2.3272   -0.5109 H       1  UNL1        0.0340
     26 H           0.7243   -2.0833    1.2692 H       1  UNL1        0.0340
     27 H           0.6733    0.3498    0.9880 H       1  UNL1        0.0464
     28 H           0.5708    0.1546   -0.7862 H       1  UNL1        0.0464
     29 H           2.8745   -1.3591    0.2282 H       1  UNL1        0.1490
     30 H           4.9811   -1.5639    0.2225 H       1  UNL1        0.1037
     31 H           7.7838    1.5608   -0.0993 H       1  UNL1        0.1029
     32 H           5.3858    2.6765   -0.1743 H       1  UNL1        0.0656
     33 H          -1.3414   -1.6693   -1.7049 H       1  UNL1        0.1502
     34 H          -4.8954    1.2221   -3.0921 H       1  UNL1        0.0648
     35 H          -5.8168    2.0522   -0.9650 H       1  UNL1        0.0647
     36 H          -3.2119    0.8578    3.2930 H       1  UNL1        0.2884
     37 H          -3.8431   -0.7169    3.0476 H       1  UNL1        0.2884
@<TRIPOS>BOND
     1     1     2    1
     2     2     3    1
     3     3     4    1
     4     4     5   am
     5     5     6    2
     6     5     7    1
     7     7     8   ar
     8     8     9   ar
     9     9    10   ar
    10    10    11   ar
    11     1    12    1
    12    12    13    1
    13    13    14   ar
    14    14    15    1
    15    14    16   ar
    16    16    17   ar
    17    17    18   ar
    18    18    19    1
    19    18    20   ar
    20    20    21    1
    21    21    22    1
    22    21    23    2
    23    23     1    1
    24    11     7   ar
    25    20    13   ar
    26     1    24    1
    27     2    25    1
    28     2    26    1
    29     3    27    1
    30     3    28    1
    31     4    29    1
    32     8    30    1
    33    10    31    1
    34    11    32    1
    35    12    33    1
    36    16    34    1
    37    17    35    1
    38    22    36    1
    39    22    37    1
