
     RDKit          3D

 22 23  0  0  0  0  0  0  0  0999 V2000
    4.7819    0.5846    1.3268 Cl  0  0  0  0  0  0  0  0  0  0  0  0
    3.1949    0.3162    0.6643 C   0  0  0  0  0  0  0  0  0  0  0  0
    2.6643   -0.9582    0.4943 C   0  0  0  0  0  0  0  0  0  0  0  0
    1.4012   -1.1368   -0.0345 C   0  0  0  0  0  0  0  0  0  0  0  0
    0.6190   -0.0620   -0.4136 C   0  0  0  0  0  0  0  0  0  0  0  0
   -0.7204   -0.2256   -0.9755 C   0  0  0  0  0  0  0  0  0  0  0  0
   -1.7699   -0.2382    0.0113 N   0  0  0  0  0  0  0  0  0  0  0  0
   -2.4610    0.8072    0.4885 C   0  0  0  0  0  0  0  0  0  0  0  0
   -3.3747    0.3509    1.4207 C   0  0  0  0  0  0  0  0  0  0  0  0
   -3.2001   -0.9854    1.4757 N   0  0  0  0  0  0  0  0  0  0  0  0
   -2.2282   -1.3417    0.6221 C   0  0  0  0  0  0  0  0  0  0  0  0
    1.1393    1.2033   -0.2476 C   0  0  0  0  0  0  0  0  0  0  0  0
    2.4138    1.3894    0.2857 C   0  0  0  0  0  0  0  0  0  0  0  0
    3.2725   -1.8105    0.7898 H   0  0  0  0  0  0  0  0  0  0  0  0
    1.0311   -2.1436   -0.1480 H   0  0  0  0  0  0  0  0  0  0  0  0
   -0.9777    0.6105   -1.6894 H   0  0  0  0  0  0  0  0  0  0  0  0
   -0.7196   -1.1555   -1.5895 H   0  0  0  0  0  0  0  0  0  0  0  0
   -2.3736    1.8629    0.2336 H   0  0  0  0  0  0  0  0  0  0  0  0
   -4.0928    0.8791    2.0079 H   0  0  0  0  0  0  0  0  0  0  0  0
   -1.9077   -2.3846    0.4921 H   0  0  0  0  0  0  0  0  0  0  0  0
    0.5196    2.0371   -0.5471 H   0  0  0  0  0  0  0  0  0  0  0  0
    2.7881    2.4010    0.4007 H   0  0  0  0  0  0  0  0  0  0  0  0
  1  2  1  0
  2  3  2  0
  3  4  1  0
  4  5  2  0
  5  6  1  0
  6  7  1  0
  7  8  1  0
  8  9  2  0
  9 10  1  0
 10 11  2  0
  5 12  1  0
 12 13  2  0
 13  2  1  0
 11  7  1  0
  3 14  1  0
  4 15  1  0
  6 16  1  0
  6 17  1  0
  8 18  1  0
  9 19  1  0
 11 20  1  0
 12 21  1  0
 13 22  1  0
M  END
$$$$
