@<TRIPOS>MOLECULE
*****
 22 23 0 0 0
SMALL
GASTEIGER

@<TRIPOS>ATOM
      1 CL          4.7819    0.5846    1.3268 Cl      1  UNL1       -0.0835
      2 C           3.1949    0.3162    0.6643 C.ar    1  UNL1        0.0410
      3 C           2.6643   -0.9582    0.4943 C.ar    1  UNL1       -0.0431
      4 C           1.4012   -1.1368   -0.0345 C.ar    1  UNL1       -0.0555
      5 C           0.6190   -0.0620   -0.4136 C.ar    1  UNL1       -0.0276
      6 C          -0.7204   -0.2256   -0.9755 C.3     1  UNL1        0.0492
      7 N          -1.7699   -0.2382    0.0113 N.ar    1  UNL1       -0.3325
      8 C          -2.4610    0.8072    0.4885 C.ar    1  UNL1        0.0244
      9 C          -3.3747    0.3509    1.4207 C.ar    1  UNL1        0.0454
     10 N          -3.2001   -0.9854    1.4757 N.ar    1  UNL1       -0.2441
     11 C          -2.2282   -1.3417    0.6221 C.ar    1  UNL1        0.0962
     12 C           1.1393    1.2033   -0.2476 C.ar    1  UNL1       -0.0555
     13 C           2.4138    1.3894    0.2857 C.ar    1  UNL1       -0.0431
     14 H           3.2725   -1.8105    0.7898 H       1  UNL1        0.0632
     15 H           1.0311   -2.1436   -0.1480 H       1  UNL1        0.0621
     16 H          -0.9777    0.6105   -1.6894 H       1  UNL1        0.0541
     17 H          -0.7196   -1.1555   -1.5895 H       1  UNL1        0.0541
     18 H          -2.3736    1.8629    0.2336 H       1  UNL1        0.0825
     19 H          -4.0928    0.8791    2.0079 H       1  UNL1        0.0845
     20 H          -1.9077   -2.3846    0.4921 H       1  UNL1        0.1029
     21 H           0.5196    2.0371   -0.5471 H       1  UNL1        0.0621
     22 H           2.7881    2.4010    0.4007 H       1  UNL1        0.0632
@<TRIPOS>BOND
     1     1     2    1
     2     2     3   ar
     3     3     4   ar
     4     4     5   ar
     5     5     6    1
     6     6     7    1
     7     7     8   ar
     8     8     9   ar
     9     9    10   ar
    10    10    11   ar
    11     5    12   ar
    12    12    13   ar
    13    13     2   ar
    14    11     7   ar
    15     3    14    1
    16     4    15    1
    17     6    16    1
    18     6    17    1
    19     8    18    1
    20     9    19    1
    21    11    20    1
    22    12    21    1
    23    13    22    1
