@<TRIPOS>MOLECULE
*****
 46 49 0 0 0
SMALL
GASTEIGER

@<TRIPOS>ATOM
      1 C          -4.9343    3.3109    0.8012 C.3     1  UNL1        0.0124
      2 C          -5.3984    1.9139    0.7736 C.2     1  UNL1        0.2128
      3 O          -6.5897    1.5854    0.9926 O.2     1  UNL1       -0.2759
      4 N          -4.4622    0.8814    0.4866 N.am    1  UNL1       -0.2968
      5 C          -4.9255   -0.5175    0.4584 C.3     1  UNL1        0.0204
      6 C          -4.3681   -1.0574   -0.8683 C.3     1  UNL1        0.0055
      7 C          -2.9015   -1.0485   -0.7049 C.ar    1  UNL1        0.0469
      8 C          -2.2969    0.0555   -0.1714 C.ar    1  UNL1        0.0324
      9 C          -0.9028   -0.1880   -0.1165 C.ar    1  UNL1        0.1498
     10 N           0.0591    0.7161    0.3838 N.pl3   1  UNL1       -0.2978
     11 C           1.4363    0.4804    0.3984 C.ar    1  UNL1        0.0325
     12 C           2.2932    1.3055    1.1495 C.ar    1  UNL1       -0.0399
     13 C           3.6331    1.0606    1.1378 C.ar    1  UNL1       -0.0522
     14 C           4.2121    0.0317    0.4194 C.ar    1  UNL1       -0.0149
     15 C           5.6495   -0.2137    0.4205 C.ar    1  UNL1        0.0183
     16 C           6.1420   -1.4878    0.2770 C.ar    1  UNL1        0.0385
     17 N           7.4663   -1.7192    0.2774 N.ar    1  UNL1       -0.2431
     18 C           8.3684   -0.7302    0.4165 C.ar    1  UNL1        0.1159
     19 N           7.8795    0.5189    0.5570 N.ar    1  UNL1       -0.2431
     20 C           6.5740    0.8028    0.5632 C.ar    1  UNL1        0.0385
     21 C           3.3770   -0.7690   -0.3101 C.ar    1  UNL1       -0.0522
     22 C           1.9971   -0.5369   -0.3138 C.ar    1  UNL1       -0.0399
     23 N          -0.7930   -1.4228   -0.6246 N.ar    1  UNL1       -0.1557
     24 N          -1.9496   -1.9442   -0.9751 N.ar    1  UNL1       -0.2692
     25 C          -2.1409   -3.2823   -1.5609 C.3     1  UNL1        0.0306
     26 C          -3.0872    1.2387    0.2321 C.3     1  UNL1        0.0447
     27 H          -4.5711    3.6308   -0.1958 H       1  UNL1        0.0323
     28 H          -4.0347    3.3713    1.4720 H       1  UNL1        0.0323
     29 H          -5.7075    3.9446    1.2315 H       1  UNL1        0.0323
     30 H          -4.3818   -1.0413    1.2550 H       1  UNL1        0.0468
     31 H          -6.0109   -0.5664    0.5051 H       1  UNL1        0.0468
     32 H          -4.7659   -2.0816   -1.0257 H       1  UNL1        0.0343
     33 H          -4.7010   -0.3914   -1.6768 H       1  UNL1        0.0343
     34 H          -0.3165    1.6373    0.7729 H       1  UNL1        0.1536
     35 H           1.8327    2.1074    1.7084 H       1  UNL1        0.0636
     36 H           4.3176    1.6876    1.7130 H       1  UNL1        0.0624
     37 H           5.4251   -2.3099    0.1622 H       1  UNL1        0.0837
     38 H           9.4393   -0.9113    0.4176 H       1  UNL1        0.1047
     39 H           6.2035    1.8151    0.6778 H       1  UNL1        0.0837
     40 H           3.8054   -1.5881   -0.8864 H       1  UNL1        0.0624
     41 H           1.4335   -1.2333   -0.9358 H       1  UNL1        0.0636
     42 H          -1.3562   -3.4809   -2.3142 H       1  UNL1        0.0473
     43 H          -3.1578   -3.3230   -1.9815 H       1  UNL1        0.0473
     44 H          -2.1186   -4.0099   -0.7120 H       1  UNL1        0.0473
     45 H          -3.0630    2.0280   -0.5752 H       1  UNL1        0.0515
     46 H          -2.6097    1.7308    1.1041 H       1  UNL1        0.0515
@<TRIPOS>BOND
     1     1     2    1
     2     2     3    2
     3     2     4   am
     4     4     5    1
     5     5     6    1
     6     6     7    1
     7     7     8   ar
     8     8     9   ar
     9     9    10    1
    10    10    11    1
    11    11    12   ar
    12    12    13   ar
    13    13    14   ar
    14    14    15    1
    15    15    16   ar
    16    16    17   ar
    17    17    18   ar
    18    18    19   ar
    19    19    20   ar
    20    14    21   ar
    21    21    22   ar
    22     9    23   ar
    23    23    24   ar
    24    24    25    1
    25     8    26    1
    26    26     4    1
    27    24     7   ar
    28    22    11   ar
    29    20    15   ar
    30     1    27    1
    31     1    28    1
    32     1    29    1
    33     5    30    1
    34     5    31    1
    35     6    32    1
    36     6    33    1
    37    10    34    1
    38    12    35    1
    39    13    36    1
    40    16    37    1
    41    18    38    1
    42    20    39    1
    43    21    40    1
    44    22    41    1
    45    25    42    1
    46    25    43    1
    47    25    44    1
    48    26    45    1
    49    26    46    1
