
     RDKit          3D

 46 49  0  0  0  0  0  0  0  0999 V2000
   -4.9343    3.3109    0.8012 C   0  0  0  0  0  0  0  0  0  0  0  0
   -5.3984    1.9139    0.7736 C   0  0  0  0  0  0  0  0  0  0  0  0
   -6.5897    1.5854    0.9926 O   0  0  0  0  0  0  0  0  0  0  0  0
   -4.4622    0.8814    0.4866 N   0  0  0  0  0  0  0  0  0  0  0  0
   -4.9255   -0.5175    0.4584 C   0  0  0  0  0  0  0  0  0  0  0  0
   -4.3681   -1.0574   -0.8683 C   0  0  0  0  0  0  0  0  0  0  0  0
   -2.9015   -1.0485   -0.7049 C   0  0  0  0  0  0  0  0  0  0  0  0
   -2.2969    0.0555   -0.1714 C   0  0  0  0  0  0  0  0  0  0  0  0
   -0.9028   -0.1880   -0.1165 C   0  0  0  0  0  0  0  0  0  0  0  0
    0.0591    0.7161    0.3838 N   0  0  0  0  0  0  0  0  0  0  0  0
    1.4363    0.4804    0.3984 C   0  0  0  0  0  0  0  0  0  0  0  0
    2.2932    1.3055    1.1495 C   0  0  0  0  0  0  0  0  0  0  0  0
    3.6331    1.0606    1.1378 C   0  0  0  0  0  0  0  0  0  0  0  0
    4.2121    0.0317    0.4194 C   0  0  0  0  0  0  0  0  0  0  0  0
    5.6495   -0.2137    0.4205 C   0  0  0  0  0  0  0  0  0  0  0  0
    6.1420   -1.4878    0.2770 C   0  0  0  0  0  0  0  0  0  0  0  0
    7.4663   -1.7192    0.2774 N   0  0  0  0  0  0  0  0  0  0  0  0
    8.3684   -0.7302    0.4165 C   0  0  0  0  0  0  0  0  0  0  0  0
    7.8795    0.5189    0.5570 N   0  0  0  0  0  0  0  0  0  0  0  0
    6.5740    0.8028    0.5632 C   0  0  0  0  0  0  0  0  0  0  0  0
    3.3770   -0.7690   -0.3101 C   0  0  0  0  0  0  0  0  0  0  0  0
    1.9971   -0.5369   -0.3138 C   0  0  0  0  0  0  0  0  0  0  0  0
   -0.7930   -1.4228   -0.6246 N   0  0  0  0  0  0  0  0  0  0  0  0
   -1.9496   -1.9442   -0.9751 N   0  0  0  0  0  0  0  0  0  0  0  0
   -2.1409   -3.2823   -1.5609 C   0  0  0  0  0  0  0  0  0  0  0  0
   -3.0872    1.2387    0.2321 C   0  0  0  0  0  0  0  0  0  0  0  0
   -4.5711    3.6308   -0.1958 H   0  0  0  0  0  0  0  0  0  0  0  0
   -4.0347    3.3713    1.4720 H   0  0  0  0  0  0  0  0  0  0  0  0
   -5.7075    3.9446    1.2315 H   0  0  0  0  0  0  0  0  0  0  0  0
   -4.3818   -1.0413    1.2550 H   0  0  0  0  0  0  0  0  0  0  0  0
   -6.0109   -0.5664    0.5051 H   0  0  0  0  0  0  0  0  0  0  0  0
   -4.7659   -2.0816   -1.0257 H   0  0  0  0  0  0  0  0  0  0  0  0
   -4.7010   -0.3914   -1.6768 H   0  0  0  0  0  0  0  0  0  0  0  0
   -0.3165    1.6373    0.7729 H   0  0  0  0  0  0  0  0  0  0  0  0
    1.8327    2.1074    1.7084 H   0  0  0  0  0  0  0  0  0  0  0  0
    4.3176    1.6876    1.7130 H   0  0  0  0  0  0  0  0  0  0  0  0
    5.4251   -2.3099    0.1622 H   0  0  0  0  0  0  0  0  0  0  0  0
    9.4393   -0.9113    0.4176 H   0  0  0  0  0  0  0  0  0  0  0  0
    6.2035    1.8151    0.6778 H   0  0  0  0  0  0  0  0  0  0  0  0
    3.8054   -1.5881   -0.8864 H   0  0  0  0  0  0  0  0  0  0  0  0
    1.4335   -1.2333   -0.9358 H   0  0  0  0  0  0  0  0  0  0  0  0
   -1.3562   -3.4809   -2.3142 H   0  0  0  0  0  0  0  0  0  0  0  0
   -3.1578   -3.3230   -1.9815 H   0  0  0  0  0  0  0  0  0  0  0  0
   -2.1186   -4.0099   -0.7120 H   0  0  0  0  0  0  0  0  0  0  0  0
   -3.0630    2.0280   -0.5752 H   0  0  0  0  0  0  0  0  0  0  0  0
   -2.6097    1.7308    1.1041 H   0  0  0  0  0  0  0  0  0  0  0  0
  1  2  1  0
  2  3  2  0
  2  4  1  0
  4  5  1  0
  5  6  1  0
  6  7  1  0
  7  8  2  0
  8  9  1  0
  9 10  1  0
 10 11  1  0
 11 12  2  0
 12 13  1  0
 13 14  2  0
 14 15  1  0
 15 16  2  0
 16 17  1  0
 17 18  2  0
 18 19  1  0
 19 20  2  0
 14 21  1  0
 21 22  2  0
  9 23  2  0
 23 24  1  0
 24 25  1  0
  8 26  1  0
 26  4  1  0
 24  7  1  0
 22 11  1  0
 20 15  1  0
  1 27  1  0
  1 28  1  0
  1 29  1  0
  5 30  1  0
  5 31  1  0
  6 32  1  0
  6 33  1  0
 10 34  1  0
 12 35  1  0
 13 36  1  0
 16 37  1  0
 18 38  1  0
 20 39  1  0
 21 40  1  0
 22 41  1  0
 25 42  1  0
 25 43  1  0
 25 44  1  0
 26 45  1  0
 26 46  1  0
M  END
$$$$
