@<TRIPOS>MOLECULE
*****
 125 131 0 0 0
SMALL
GASTEIGER

@<TRIPOS>ATOM
      1 C           3.4619   -0.0468    0.9421 C.2     1  UNL1       -0.0802
      2 C           2.7810   -1.0850    0.4756 C.2     1  UNL1       -0.0591
      3 C           1.3653   -1.2069    0.0267 C.3     1  UNL1        0.0802
      4 C           0.6232   -2.2316    0.8963 C.3     1  UNL1       -0.0180
      5 C          -0.5694   -1.3833    1.3567 C.3     1  UNL1        0.0041
      6 C          -0.6510   -0.4398    0.1525 C.3     1  UNL1        0.1715
      7 C          -1.4762    0.7840    0.4322 C.3     1  UNL1        0.0039
      8 C          -2.7738    0.8338   -0.3398 C.3     1  UNL1       -0.0192
      9 C          -3.2211   -0.5816   -0.5165 C.3     1  UNL1        0.0887
     10 O          -4.4303   -0.5751   -1.2140 O.3     1  UNL1       -0.3638
     11 C          -5.0270   -1.8282   -1.2129 C.3     1  UNL1        0.1082
     12 C          -4.0278   -2.9130   -1.0020 C.2     1  UNL1       -0.0151
     13 C          -4.4503   -4.0596   -0.4891 C.2     1  UNL1       -0.0944
     14 C          -2.5948   -2.7901   -1.3243 C.3     1  UNL1        0.1071
     15 O          -2.2825   -3.3865   -2.5571 O.3     1  UNL1       -0.3848
     16 C          -2.2214   -1.3292   -1.3152 C.3     1  UNL1        0.1176
     17 O          -0.9098   -1.0649   -1.0235 O.3     1  UNL1       -0.3399
     18 C          -6.0915   -1.9476   -0.1762 C.3     1  UNL1        0.0855
     19 O          -5.5831   -1.7346    1.1231 O.3     1  UNL1       -0.3889
     20 C          -7.3513   -1.2158   -0.4187 C.3     1  UNL1       -0.0192
     21 C          -7.2146    0.2814   -0.5418 C.3     1  UNL1       -0.0148
     22 C          -6.6450    0.8019    0.7491 C.3     1  UNL1       -0.0600
     23 C          -8.5850    0.9026   -0.7238 C.3     1  UNL1        0.0671
     24 O          -9.3257    0.5746    0.3903 O.3     1  UNL1       -0.3449
     25 C         -10.3316    1.4630    0.6925 C.3     1  UNL1        0.1703
     26 C         -11.0537    0.9259    1.9177 C.3     1  UNL1        0.0015
     27 C         -11.5444   -0.4563    1.6266 C.3     1  UNL1       -0.0461
     28 C         -11.6743   -0.6659    0.1409 C.3     1  UNL1       -0.0292
     29 C         -11.9808    0.5775   -0.6351 C.3     1  UNL1        0.0509
     30 O         -11.2307    1.6796   -0.3159 O.3     1  UNL1       -0.3486
     31 C          -9.6763    2.7471    1.1236 C.3     1  UNL1        0.0017
     32 C          -8.9590    3.3066   -0.0521 C.3     1  UNL1       -0.0432
     33 C          -8.5817    2.3190   -1.1215 C.3     1  UNL1       -0.0170
     34 C          -7.2970    2.8109   -1.7584 C.3     1  UNL1       -0.0601
     35 O           0.6763   -0.0129    0.1327 O.3     1  UNL1       -0.3414
     36 C           4.8882   -0.0680    1.3594 C.3     1  UNL1        0.0011
     37 C           5.4583   -1.4262    1.5673 C.3     1  UNL1       -0.0566
     38 C           5.7631    0.8819    0.5653 C.3     1  UNL1        0.0719
     39 C           5.7929    0.6050   -0.9071 C.3     1  UNL1       -0.0048
     40 C           6.8251   -0.3676   -1.2826 C.2     1  UNL1       -0.0690
     41 C           6.7781   -1.3765   -2.3815 C.3     1  UNL1       -0.0435
     42 C           7.8976   -0.2715   -0.5053 C.2     1  UNL1       -0.0239
     43 C           8.1175    0.6712    0.6256 C.3     1  UNL1        0.2170
     44 O           8.8055    1.7288    0.1680 O.3     1  UNL1       -0.3398
     45 C          10.1834    1.8080    0.2735 C.3     1  UNL1        0.0656
     46 C          10.8973    1.4399   -0.9634 C.3     1  UNL1        0.0127
     47 C          12.3737    1.4986   -1.0558 C.3     1  UNL1        0.1614
     48 C          12.7525    1.0763   -2.5228 C.3     1  UNL1       -0.0255
     49 O          12.7929    2.8501   -1.0291 O.3     1  UNL1       -0.3776
     50 C          13.1738    0.6400   -0.1635 C.2     1  UNL1        0.3366
     51 O          14.2258    1.2792    0.5289 O.3     1  UNL1       -0.4786
     52 O          13.1320   -0.6048    0.1371 O.2     1  UNL1       -0.2478
     53 C          10.7128    1.2178    1.5230 C.3     1  UNL1       -0.0238
     54 C          10.2441   -0.2165    1.6009 C.3     1  UNL1       -0.0191
     55 C           8.7365   -0.1283    1.7562 C.3     1  UNL1        0.1130
     56 O           8.4320    0.4712    2.9531 O.3     1  UNL1       -0.3861
     57 O           6.9393    1.1680    1.1632 O.3     1  UNL1       -0.3390
     58 H           2.8547    0.8470    0.9908 H       1  UNL1        0.0573
     59 H           3.3051   -2.0455    0.3831 H       1  UNL1        0.0595
     60 H           1.3637   -1.5270   -1.0138 H       1  UNL1        0.0641
     61 H           0.2879   -3.0533    0.2503 H       1  UNL1        0.0295
     62 H           1.2499   -2.5471    1.7337 H       1  UNL1        0.0295
     63 H          -1.4596   -1.9853    1.5073 H       1  UNL1        0.0318
     64 H          -0.2195   -0.8233    2.2242 H       1  UNL1        0.0318
     65 H          -1.7643    0.7475    1.5122 H       1  UNL1        0.0318
     66 H          -0.9277    1.7393    0.2982 H       1  UNL1        0.0318
     67 H          -2.5359    1.2535   -1.3379 H       1  UNL1        0.0293
     68 H          -3.4886    1.4572    0.2326 H       1  UNL1        0.0293
     69 H          -3.3943   -1.0234    0.5012 H       1  UNL1        0.0623
     70 H          -5.4768   -1.9870   -2.2102 H       1  UNL1        0.0670
     71 H          -5.1183   -4.7785   -0.0884 H       1  UNL1        0.0536
     72 H          -3.8148   -4.9105   -0.2928 H       1  UNL1        0.0536
     73 H          -2.0252   -3.3769   -0.5758 H       1  UNL1        0.0668
     74 H          -1.3971   -3.8707   -2.5153 H       1  UNL1        0.2103
     75 H          -2.3563   -0.9928   -2.3868 H       1  UNL1        0.0652
     76 H          -6.3718   -3.0472   -0.1558 H       1  UNL1        0.0622
     77 H          -5.1905   -2.5313    1.5151 H       1  UNL1        0.2099
     78 H          -8.0786   -1.5104    0.3629 H       1  UNL1        0.0294
     79 H          -7.7706   -1.5955   -1.3932 H       1  UNL1        0.0294
     80 H          -6.5527    0.4609   -1.3993 H       1  UNL1        0.0324
     81 H          -7.2163    0.2626    1.5627 H       1  UNL1        0.0233
     82 H          -6.8289    1.8652    0.9442 H       1  UNL1        0.0233
     83 H          -5.6017    0.5859    0.9398 H       1  UNL1        0.0233
     84 H          -9.0591    0.2868   -1.5488 H       1  UNL1        0.0602
     85 H         -11.8833    1.6291    2.1919 H       1  UNL1        0.0317
     86 H         -10.3478    0.9821    2.7745 H       1  UNL1        0.0317
     87 H         -12.4706   -0.6757    2.1855 H       1  UNL1        0.0268
     88 H         -10.7770   -1.1786    1.9901 H       1  UNL1        0.0268
     89 H         -10.8118   -1.2536   -0.2639 H       1  UNL1        0.0287
     90 H         -12.5628   -1.3491    0.0169 H       1  UNL1        0.0287
     91 H         -13.0737    0.7898   -0.5183 H       1  UNL1        0.0561
     92 H         -11.7932    0.3326   -1.7149 H       1  UNL1        0.0561
     93 H          -8.9177    2.4791    1.9064 H       1  UNL1        0.0317
     94 H         -10.4079    3.4850    1.5152 H       1  UNL1        0.0317
     95 H          -9.5784    4.1566   -0.4525 H       1  UNL1        0.0270
     96 H          -8.0439    3.8444    0.3411 H       1  UNL1        0.0270
     97 H          -9.3647    2.4852   -1.9280 H       1  UNL1        0.0323
     98 H          -6.5271    3.1266   -1.0553 H       1  UNL1        0.0233
     99 H          -6.9291    2.1090   -2.5377 H       1  UNL1        0.0233
    100 H          -7.5685    3.7525   -2.3240 H       1  UNL1        0.0233
    101 H           4.8607    0.4043    2.3953 H       1  UNL1        0.0365
    102 H           4.5991   -2.0617    1.9417 H       1  UNL1        0.0236
    103 H           5.8461   -1.9393    0.6889 H       1  UNL1        0.0236
    104 H           6.1533   -1.4548    2.4615 H       1  UNL1        0.0236
    105 H           5.1754    1.8586    0.6267 H       1  UNL1        0.0606
    106 H           6.0311    1.5555   -1.4476 H       1  UNL1        0.0335
    107 H           4.7738    0.3290   -1.2367 H       1  UNL1        0.0335
    108 H           7.7303   -1.3666   -2.9727 H       1  UNL1        0.0274
    109 H           6.6267   -2.3812   -1.9731 H       1  UNL1        0.0274
    110 H           5.9344   -1.0707   -3.0516 H       1  UNL1        0.0274
    111 H           8.7378   -0.9676   -0.7018 H       1  UNL1        0.0625
    112 H          10.3594    2.9342    0.3914 H       1  UNL1        0.0598
    113 H          10.6255    0.3684   -1.2394 H       1  UNL1        0.0323
    114 H          10.5100    2.0157   -1.8617 H       1  UNL1        0.0323
    115 H          12.6294   -0.0259   -2.5073 H       1  UNL1        0.0263
    116 H          12.0254    1.4917   -3.2190 H       1  UNL1        0.0263
    117 H          13.8029    1.3022   -2.6961 H       1  UNL1        0.0263
    118 H          12.0873    3.3132   -1.5850 H       1  UNL1        0.2109
    119 H          14.5267    0.9071    1.4038 H       1  UNL1        0.2951
    120 H          11.7759    1.2633    1.6169 H       1  UNL1        0.0291
    121 H          10.2418    1.7339    2.4133 H       1  UNL1        0.0291
    122 H          10.6372   -0.6435    2.5427 H       1  UNL1        0.0293
    123 H          10.5415   -0.8561    0.7758 H       1  UNL1        0.0293
    124 H           8.3873   -1.1880    1.6652 H       1  UNL1        0.0651
    125 H           7.9567   -0.0670    3.6050 H       1  UNL1        0.2100
@<TRIPOS>BOND
     1     1     2    2
     2     2     3    1
     3     3     4    1
     4     4     5    1
     5     5     6    1
     6     6     7    1
     7     7     8    1
     8     8     9    1
     9     9    10    1
    10    10    11    1
    11    11    12    1
    12    12    13    2
    13    12    14    1
    14    14    15    1
    15    14    16    1
    16    16    17    1
    17    11    18    1
    18    18    19    1
    19    18    20    1
    20    20    21    1
    21    21    22    1
    22    21    23    1
    23    23    24    1
    24    25    24    1
    25    25    26    1
    26    26    27    1
    27    27    28    1
    28    28    29    1
    29    29    30    1
    30    25    31    1
    31    31    32    1
    32    32    33    1
    33    33    34    1
    34     6    35    1
    35     1    36    1
    36    36    37    1
    37    36    38    1
    38    38    39    1
    39    39    40    1
    40    40    41    1
    41    40    42    2
    42    42    43    1
    43    43    44    1
    44    44    45    1
    45    45    46    1
    46    46    47    1
    47    47    48    1
    48    47    49    1
    49    47    50    1
    50    50    51    1
    51    50    52    2
    52    45    53    1
    53    53    54    1
    54    54    55    1
    55    55    56    1
    56    43    57    1
    57    35     3    1
    58    57    38    1
    59    17     6    1
    60    33    23    1
    61    55    43    1
    62    16     9    1
    63    30    25    1
    64     1    58    1
    65     2    59    1
    66     3    60    1
    67     4    61    1
    68     4    62    1
    69     5    63    1
    70     5    64    1
    71     7    65    1
    72     7    66    1
    73     8    67    1
    74     8    68    1
    75     9    69    1
    76    11    70    1
    77    13    71    1
    78    13    72    1
    79    14    73    1
    80    15    74    1
    81    16    75    1
    82    18    76    1
    83    19    77    1
    84    20    78    1
    85    20    79    1
    86    21    80    1
    87    22    81    1
    88    22    82    1
    89    22    83    1
    90    23    84    1
    91    26    85    1
    92    26    86    1
    93    27    87    1
    94    27    88    1
    95    28    89    1
    96    28    90    1
    97    29    91    1
    98    29    92    1
    99    31    93    1
   100    31    94    1
   101    32    95    1
   102    32    96    1
   103    33    97    1
   104    34    98    1
   105    34    99    1
   106    34   100    1
   107    36   101    1
   108    37   102    1
   109    37   103    1
   110    37   104    1
   111    38   105    1
   112    39   106    1
   113    39   107    1
   114    41   108    1
   115    41   109    1
   116    41   110    1
   117    42   111    1
   118    45   112    1
   119    46   113    1
   120    46   114    1
   121    48   115    1
   122    48   116    1
   123    48   117    1
   124    49   118    1
   125    51   119    1
   126    53   120    1
   127    53   121    1
   128    54   122    1
   129    54   123    1
   130    55   124    1
   131    56   125    1
