
     RDKit          3D

 51 51  0  0  0  0  0  0  0  0999 V2000
    6.7896   -1.1587   -0.0974 C   0  0  0  0  0  0  0  0  0  0  0  0
    5.5389   -0.4259    0.3461 C   0  0  0  0  0  0  0  0  0  0  0  0
    6.0807    0.5266    1.1760 C   0  0  0  0  0  0  0  0  0  0  0  0
    7.5253    0.7656    1.5369 C   0  0  0  0  0  0  0  0  0  0  0  0
    7.6710    0.6317    2.8998 O   0  0  0  0  0  0  0  0  0  0  0  0
    4.0984   -0.0311    0.4949 C   0  0  0  0  0  0  0  0  0  0  0  0
    3.2099   -0.7740   -0.2088 C   0  0  0  0  0  0  0  0  0  0  0  0
    1.8444   -0.2627    0.0427 C   0  0  0  0  0  0  0  0  0  0  0  0
    0.7484   -0.7804   -0.5027 C   0  0  0  0  0  0  0  0  0  0  0  0
    0.9914   -1.9188   -1.3901 C   0  0  0  0  0  0  0  0  0  0  0  0
   -0.5493   -0.1901   -0.1805 C   0  0  0  0  0  0  0  0  0  0  0  0
   -1.7435   -0.5341   -0.5993 C   0  0  0  0  0  0  0  0  0  0  0  0
   -3.0421    0.0442   -0.2874 C   0  0  0  0  0  0  0  0  0  0  0  0
   -4.0492   -0.5946   -0.9183 C   0  0  0  0  0  0  0  0  0  0  0  0
   -3.7125   -1.7608   -1.8157 C   0  0  0  0  0  0  0  0  0  0  0  0
   -5.4996   -0.3168   -0.8511 C   0  0  0  0  0  0  0  0  0  0  0  0
   -5.7330    1.1719   -0.8338 C   0  0  0  0  0  0  0  0  0  0  0  0
   -4.5480    1.9522   -0.3696 C   0  0  0  0  0  0  0  0  0  0  0  0
   -3.6127    1.1320    0.5169 C   0  0  0  0  0  0  0  0  0  0  0  0
   -2.6000    2.0720    1.1385 C   0  0  0  0  0  0  0  0  0  0  0  0
   -4.4379    0.5454    1.6419 C   0  0  0  0  0  0  0  0  0  0  0  0
    7.2597   -1.6297    0.7586 H   0  0  0  0  0  0  0  0  0  0  0  0
    6.3882   -2.0075   -0.7241 H   0  0  0  0  0  0  0  0  0  0  0  0
    7.3898   -0.4878   -0.7094 H   0  0  0  0  0  0  0  0  0  0  0  0
    5.5960    1.3251    1.7697 H   0  0  0  0  0  0  0  0  0  0  0  0
    8.2067    0.0881    0.9832 H   0  0  0  0  0  0  0  0  0  0  0  0
    7.7470    1.8052    1.2227 H   0  0  0  0  0  0  0  0  0  0  0  0
    7.4915    1.4784    3.3573 H   0  0  0  0  0  0  0  0  0  0  0  0
    4.5298   -0.7858   -0.0626 H   0  0  0  0  0  0  0  0  0  0  0  0
    3.1844   -1.6414   -0.9136 H   0  0  0  0  0  0  0  0  0  0  0  0
    1.6559    0.5997    0.7148 H   0  0  0  0  0  0  0  0  0  0  0  0
    1.5779   -1.6624   -2.2951 H   0  0  0  0  0  0  0  0  0  0  0  0
    1.4856   -2.7433   -0.8057 H   0  0  0  0  0  0  0  0  0  0  0  0
    0.0355   -2.3506   -1.7219 H   0  0  0  0  0  0  0  0  0  0  0  0
   -0.5841    0.6453    0.4944 H   0  0  0  0  0  0  0  0  0  0  0  0
   -1.5891   -1.3661   -1.2536 H   0  0  0  0  0  0  0  0  0  0  0  0
   -4.6198   -2.2049   -2.2364 H   0  0  0  0  0  0  0  0  0  0  0  0
   -3.2060   -2.5720   -1.2489 H   0  0  0  0  0  0  0  0  0  0  0  0
   -3.0460   -1.4525   -2.6484 H   0  0  0  0  0  0  0  0  0  0  0  0
   -6.0112   -0.7226   -1.7613 H   0  0  0  0  0  0  0  0  0  0  0  0
   -6.0188   -0.8244   -0.0087 H   0  0  0  0  0  0  0  0  0  0  0  0
   -6.0178    1.5168   -1.8631 H   0  0  0  0  0  0  0  0  0  0  0  0
   -6.5874    1.3979   -0.1496 H   0  0  0  0  0  0  0  0  0  0  0  0
   -4.8364    2.8933    0.1500 H   0  0  0  0  0  0  0  0  0  0  0  0
   -3.9550    2.2691   -1.2550 H   0  0  0  0  0  0  0  0  0  0  0  0
   -1.9332    2.5152    0.3847 H   0  0  0  0  0  0  0  0  0  0  0  0
   -3.1505    2.9617    1.5940 H   0  0  0  0  0  0  0  0  0  0  0  0
   -2.0490    1.6342    1.9851 H   0  0  0  0  0  0  0  0  0  0  0  0
   -5.5078    0.8364    1.6044 H   0  0  0  0  0  0  0  0  0  0  0  0
   -4.3673   -0.5661    1.6735 H   0  0  0  0  0  0  0  0  0  0  0  0
   -4.0387    0.9570    2.5991 H   0  0  0  0  0  0  0  0  0  0  0  0
  1  2  1  0
  2  3  2  0
  3  4  1  0
  4  5  1  0
  2  6  1  0
  6  7  2  0
  7  8  1  0
  8  9  2  0
  9 10  1  0
  9 11  1  0
 11 12  2  0
 12 13  1  0
 13 14  2  0
 14 15  1  0
 14 16  1  0
 16 17  1  0
 17 18  1  0
 18 19  1  0
 19 20  1  0
 19 21  1  0
 19 13  1  0
  1 22  1  0
  1 23  1  0
  1 24  1  0
  3 25  1  0
  4 26  1  0
  4 27  1  0
  5 28  1  0
  6 29  1  0
  7 30  1  0
  8 31  1  0
 10 32  1  0
 10 33  1  0
 10 34  1  0
 11 35  1  0
 12 36  1  0
 15 37  1  0
 15 38  1  0
 15 39  1  0
 16 40  1  0
 16 41  1  0
 17 42  1  0
 17 43  1  0
 18 44  1  0
 18 45  1  0
 20 46  1  0
 20 47  1  0
 20 48  1  0
 21 49  1  0
 21 50  1  0
 21 51  1  0
M  END
$$$$
