@<TRIPOS>MOLECULE
*****
 58 59 0 0 0
SMALL
GASTEIGER

@<TRIPOS>ATOM
      1 C          -3.8455   -2.7368    2.3462 C.3     1  UNL1       -0.0652
      2 C          -3.2934   -1.4103    1.8814 C.3     1  UNL1       -0.0528
      3 C          -3.9922   -0.9775    0.6367 C.3     1  UNL1       -0.0189
      4 C          -3.3987    0.3792    0.1917 C.3     1  UNL1        0.0896
      5 O          -2.1368    0.3941   -0.0921 O.3     1  UNL1       -0.4914
      6 C          -0.8841    0.4029   -0.3549 C.ar    1  UNL1        0.1268
      7 C          -0.2535   -0.7333   -0.8871 C.ar    1  UNL1       -0.0052
      8 C          -1.0214   -1.9846   -1.1888 C.3     1  UNL1       -0.0245
      9 C          -1.7799   -1.7104   -2.4724 C.3     1  UNL1       -0.0518
     10 C          -2.6123   -2.8592   -2.9373 C.3     1  UNL1       -0.0650
     11 C           1.0905   -0.7519   -1.1754 C.ar    1  UNL1       -0.0516
     12 C           1.8785    0.3569   -0.9519 C.ar    1  UNL1       -0.0422
     13 C           3.3166    0.2697   -1.2781 C.3     1  UNL1        0.0023
     14 C           4.1766   -0.1962   -0.1907 C.ar    1  UNL1        0.0146
     15 C           4.5263   -1.5437   -0.1348 C.ar    1  UNL1        0.0379
     16 N           5.2876   -1.9433    0.8924 N.ar    1  UNL1       -0.2227
     17 C           5.7253   -1.1146    1.8610 C.ar    1  UNL1        0.2142
     18 N           6.5341   -1.6077    2.9390 N.pl3   1  UNL1       -0.3274
     19 N           5.3758    0.1777    1.7847 N.ar    1  UNL1       -0.1999
     20 C           4.6095    0.6736    0.7837 C.ar    1  UNL1        0.1247
     21 N           4.3234    2.0697    0.7996 N.pl3   1  UNL1       -0.3428
     22 C           1.2902    1.4684   -0.4390 C.ar    1  UNL1       -0.0516
     23 C          -0.0675    1.5233   -0.1334 C.ar    1  UNL1       -0.0052
     24 C          -0.5916    2.7804    0.4214 C.3     1  UNL1       -0.0245
     25 C          -1.3410    3.5842   -0.6127 C.3     1  UNL1       -0.0518
     26 C          -1.8026    4.8540    0.1175 C.3     1  UNL1       -0.0650
     27 H          -3.2560   -3.1177    3.2069 H       1  UNL1        0.0230
     28 H          -3.8592   -3.4468    1.4931 H       1  UNL1        0.0230
     29 H          -4.9081   -2.5562    2.6270 H       1  UNL1        0.0230
     30 H          -3.4929   -0.6378    2.6725 H       1  UNL1        0.0264
     31 H          -2.1985   -1.4115    1.7330 H       1  UNL1        0.0264
     32 H          -5.0593   -0.7643    0.9006 H       1  UNL1        0.0298
     33 H          -3.9715   -1.7144   -0.1701 H       1  UNL1        0.0298
     34 H          -3.7652    1.0714    1.0258 H       1  UNL1        0.0696
     35 H          -4.0574    0.6096   -0.7220 H       1  UNL1        0.0696
     36 H          -0.2969   -2.7758   -1.4232 H       1  UNL1        0.0314
     37 H          -1.6567   -2.3294   -0.3826 H       1  UNL1        0.0314
     38 H          -2.4220   -0.8162   -2.4279 H       1  UNL1        0.0266
     39 H          -1.0113   -1.4927   -3.2525 H       1  UNL1        0.0266
     40 H          -2.2392   -3.8277   -2.5569 H       1  UNL1        0.0230
     41 H          -2.5266   -2.9149   -4.0549 H       1  UNL1        0.0230
     42 H          -3.7078   -2.7215   -2.7561 H       1  UNL1        0.0230
     43 H           1.5772   -1.6492   -1.5917 H       1  UNL1        0.0624
     44 H           3.6986    1.2632   -1.6447 H       1  UNL1        0.0363
     45 H           3.4091   -0.3836   -2.1966 H       1  UNL1        0.0363
     46 H           4.1673   -2.1924   -0.9136 H       1  UNL1        0.0834
     47 H           6.0809   -1.9064    3.8033 H       1  UNL1        0.1452
     48 H           7.5486   -1.6412    2.7990 H       1  UNL1        0.1452
     49 H           3.6879    2.4091    1.5505 H       1  UNL1        0.1437
     50 H           4.6947    2.7636    0.1248 H       1  UNL1        0.1437
     51 H           1.8849    2.3676   -0.2665 H       1  UNL1        0.0624
     52 H          -1.2307    2.6230    1.3168 H       1  UNL1        0.0314
     53 H           0.2530    3.4031    0.7760 H       1  UNL1        0.0314
     54 H          -0.6102    3.8843   -1.3790 H       1  UNL1        0.0266
     55 H          -2.1984    3.0479   -1.0477 H       1  UNL1        0.0266
     56 H          -0.9017    5.3104    0.5927 H       1  UNL1        0.0230
     57 H          -2.2524    5.5722   -0.5814 H       1  UNL1        0.0230
     58 H          -2.4948    4.6096    0.9389 H       1  UNL1        0.0230
@<TRIPOS>BOND
     1     1     2    1
     2     2     3    1
     3     3     4    1
     4     4     5    1
     5     5     6    1
     6     6     7   ar
     7     7     8    1
     8     8     9    1
     9     9    10    1
    10     7    11   ar
    11    11    12   ar
    12    12    13    1
    13    13    14    1
    14    14    15   ar
    15    15    16   ar
    16    16    17   ar
    17    17    18    1
    18    17    19   ar
    19    19    20   ar
    20    20    21    1
    21    12    22   ar
    22    22    23   ar
    23    23    24    1
    24    24    25    1
    25    25    26    1
    26    23     6   ar
    27    20    14   ar
    28     1    27    1
    29     1    28    1
    30     1    29    1
    31     2    30    1
    32     2    31    1
    33     3    32    1
    34     3    33    1
    35     4    34    1
    36     4    35    1
    37     8    36    1
    38     8    37    1
    39     9    38    1
    40     9    39    1
    41    10    40    1
    42    10    41    1
    43    10    42    1
    44    11    43    1
    45    13    44    1
    46    13    45    1
    47    15    46    1
    48    18    47    1
    49    18    48    1
    50    21    49    1
    51    21    50    1
    52    22    51    1
    53    24    52    1
    54    24    53    1
    55    25    54    1
    56    25    55    1
    57    26    56    1
    58    26    57    1
    59    26    58    1
