
     RDKit          3D

 58 59  0  0  0  0  0  0  0  0999 V2000
   -3.8455   -2.7368    2.3462 C   0  0  0  0  0  0  0  0  0  0  0  0
   -3.2934   -1.4103    1.8814 C   0  0  0  0  0  0  0  0  0  0  0  0
   -3.9922   -0.9775    0.6367 C   0  0  0  0  0  0  0  0  0  0  0  0
   -3.3987    0.3792    0.1917 C   0  0  0  0  0  0  0  0  0  0  0  0
   -2.1368    0.3941   -0.0921 O   0  0  0  0  0  0  0  0  0  0  0  0
   -0.8841    0.4029   -0.3549 C   0  0  0  0  0  0  0  0  0  0  0  0
   -0.2535   -0.7333   -0.8871 C   0  0  0  0  0  0  0  0  0  0  0  0
   -1.0214   -1.9846   -1.1888 C   0  0  0  0  0  0  0  0  0  0  0  0
   -1.7799   -1.7104   -2.4724 C   0  0  0  0  0  0  0  0  0  0  0  0
   -2.6123   -2.8592   -2.9373 C   0  0  0  0  0  0  0  0  0  0  0  0
    1.0905   -0.7519   -1.1754 C   0  0  0  0  0  0  0  0  0  0  0  0
    1.8785    0.3569   -0.9519 C   0  0  0  0  0  0  0  0  0  0  0  0
    3.3166    0.2697   -1.2781 C   0  0  0  0  0  0  0  0  0  0  0  0
    4.1766   -0.1962   -0.1907 C   0  0  0  0  0  0  0  0  0  0  0  0
    4.5263   -1.5437   -0.1348 C   0  0  0  0  0  0  0  0  0  0  0  0
    5.2876   -1.9433    0.8924 N   0  0  0  0  0  0  0  0  0  0  0  0
    5.7253   -1.1146    1.8610 C   0  0  0  0  0  0  0  0  0  0  0  0
    6.5341   -1.6077    2.9390 N   0  0  0  0  0  0  0  0  0  0  0  0
    5.3758    0.1777    1.7847 N   0  0  0  0  0  0  0  0  0  0  0  0
    4.6095    0.6736    0.7837 C   0  0  0  0  0  0  0  0  0  0  0  0
    4.3234    2.0697    0.7996 N   0  0  0  0  0  0  0  0  0  0  0  0
    1.2902    1.4684   -0.4390 C   0  0  0  0  0  0  0  0  0  0  0  0
   -0.0675    1.5233   -0.1334 C   0  0  0  0  0  0  0  0  0  0  0  0
   -0.5916    2.7804    0.4214 C   0  0  0  0  0  0  0  0  0  0  0  0
   -1.3410    3.5842   -0.6127 C   0  0  0  0  0  0  0  0  0  0  0  0
   -1.8026    4.8540    0.1175 C   0  0  0  0  0  0  0  0  0  0  0  0
   -3.2560   -3.1177    3.2069 H   0  0  0  0  0  0  0  0  0  0  0  0
   -3.8592   -3.4468    1.4931 H   0  0  0  0  0  0  0  0  0  0  0  0
   -4.9081   -2.5562    2.6270 H   0  0  0  0  0  0  0  0  0  0  0  0
   -3.4929   -0.6378    2.6725 H   0  0  0  0  0  0  0  0  0  0  0  0
   -2.1985   -1.4115    1.7330 H   0  0  0  0  0  0  0  0  0  0  0  0
   -5.0593   -0.7643    0.9006 H   0  0  0  0  0  0  0  0  0  0  0  0
   -3.9715   -1.7144   -0.1701 H   0  0  0  0  0  0  0  0  0  0  0  0
   -3.7652    1.0714    1.0258 H   0  0  0  0  0  0  0  0  0  0  0  0
   -4.0574    0.6096   -0.7220 H   0  0  0  0  0  0  0  0  0  0  0  0
   -0.2969   -2.7758   -1.4232 H   0  0  0  0  0  0  0  0  0  0  0  0
   -1.6567   -2.3294   -0.3826 H   0  0  0  0  0  0  0  0  0  0  0  0
   -2.4220   -0.8162   -2.4279 H   0  0  0  0  0  0  0  0  0  0  0  0
   -1.0113   -1.4927   -3.2525 H   0  0  0  0  0  0  0  0  0  0  0  0
   -2.2392   -3.8277   -2.5569 H   0  0  0  0  0  0  0  0  0  0  0  0
   -2.5266   -2.9149   -4.0549 H   0  0  0  0  0  0  0  0  0  0  0  0
   -3.7078   -2.7215   -2.7561 H   0  0  0  0  0  0  0  0  0  0  0  0
    1.5772   -1.6492   -1.5917 H   0  0  0  0  0  0  0  0  0  0  0  0
    3.6986    1.2632   -1.6447 H   0  0  0  0  0  0  0  0  0  0  0  0
    3.4091   -0.3836   -2.1966 H   0  0  0  0  0  0  0  0  0  0  0  0
    4.1673   -2.1924   -0.9136 H   0  0  0  0  0  0  0  0  0  0  0  0
    6.0809   -1.9064    3.8033 H   0  0  0  0  0  0  0  0  0  0  0  0
    7.5486   -1.6412    2.7990 H   0  0  0  0  0  0  0  0  0  0  0  0
    3.6879    2.4091    1.5505 H   0  0  0  0  0  0  0  0  0  0  0  0
    4.6947    2.7636    0.1248 H   0  0  0  0  0  0  0  0  0  0  0  0
    1.8849    2.3676   -0.2665 H   0  0  0  0  0  0  0  0  0  0  0  0
   -1.2307    2.6230    1.3168 H   0  0  0  0  0  0  0  0  0  0  0  0
    0.2530    3.4031    0.7760 H   0  0  0  0  0  0  0  0  0  0  0  0
   -0.6102    3.8843   -1.3790 H   0  0  0  0  0  0  0  0  0  0  0  0
   -2.1984    3.0479   -1.0477 H   0  0  0  0  0  0  0  0  0  0  0  0
   -0.9017    5.3104    0.5927 H   0  0  0  0  0  0  0  0  0  0  0  0
   -2.2524    5.5722   -0.5814 H   0  0  0  0  0  0  0  0  0  0  0  0
   -2.4948    4.6096    0.9389 H   0  0  0  0  0  0  0  0  0  0  0  0
  1  2  1  0
  2  3  1  0
  3  4  1  0
  4  5  1  0
  5  6  1  0
  6  7  2  0
  7  8  1  0
  8  9  1  0
  9 10  1  0
  7 11  1  0
 11 12  2  0
 12 13  1  0
 13 14  1  0
 14 15  2  0
 15 16  1  0
 16 17  2  0
 17 18  1  0
 17 19  1  0
 19 20  2  0
 20 21  1  0
 12 22  1  0
 22 23  2  0
 23 24  1  0
 24 25  1  0
 25 26  1  0
 23  6  1  0
 20 14  1  0
  1 27  1  0
  1 28  1  0
  1 29  1  0
  2 30  1  0
  2 31  1  0
  3 32  1  0
  3 33  1  0
  4 34  1  0
  4 35  1  0
  8 36  1  0
  8 37  1  0
  9 38  1  0
  9 39  1  0
 10 40  1  0
 10 41  1  0
 10 42  1  0
 11 43  1  0
 13 44  1  0
 13 45  1  0
 15 46  1  0
 18 47  1  0
 18 48  1  0
 21 49  1  0
 21 50  1  0
 22 51  1  0
 24 52  1  0
 24 53  1  0
 25 54  1  0
 25 55  1  0
 26 56  1  0
 26 57  1  0
 26 58  1  0
M  END
$$$$
