
     RDKit          3D

 71 74  0  0  0  0  0  0  0  0999 V2000
   -4.7697   -3.1875   -0.3822 C   0  0  0  0  0  0  0  0  0  0  0  0
   -5.0974   -4.0069    0.8208 C   0  0  0  0  0  0  0  0  0  0  0  0
   -6.0280   -3.3885    1.7830 C   0  0  0  0  0  0  0  0  0  0  0  0
   -5.6432   -2.1617    2.5019 C   0  0  0  0  0  0  0  0  0  0  0  0
   -5.2829   -1.0040    1.7647 N   0  0  0  0  0  0  0  0  0  0  0  0
   -3.9550   -0.7135    1.3242 C   0  0  0  0  0  0  0  0  0  0  0  0
   -2.9115   -1.4965    1.6918 N   0  0  0  0  0  0  0  0  0  0  0  0
   -1.6573   -1.2219    1.2761 C   0  0  0  0  0  0  0  0  0  0  0  0
   -1.4293   -0.1197    0.4583 C   0  0  0  0  0  0  0  0  0  0  0  0
   -0.0695    0.1189    0.0388 C   0  0  0  0  0  0  0  0  0  0  0  0
    0.2451    1.0691   -0.7430 O   0  0  0  0  0  0  0  0  0  0  0  0
    1.0301   -0.6866    0.4647 N   0  0  0  0  0  0  0  0  0  0  0  0
    2.3262   -0.3632   -0.0093 C   0  0  0  0  0  0  0  0  0  0  0  0
    2.7746   -0.9528   -1.1779 C   0  0  0  0  0  0  0  0  0  0  0  0
    4.0345   -0.6301   -1.6330 C   0  0  0  0  0  0  0  0  0  0  0  0
    4.8274    0.2688   -0.9251 C   0  0  0  0  0  0  0  0  0  0  0  0
    6.4346    0.6667   -1.5129 S   0  0  0  0  0  6  0  0  0  0  0  0
    6.8322    2.0619   -1.1957 O   0  0  0  0  0  0  0  0  0  0  0  0
    6.4194    0.4487   -2.9969 O   0  0  0  0  0  0  0  0  0  0  0  0
    7.5322   -0.4201   -0.7393 N   0  0  0  0  0  0  0  0  0  0  0  0
    7.5074   -0.2504    0.7009 C   0  0  0  0  0  0  0  0  0  0  0  0
    8.5286   -1.0813    1.3989 C   0  0  0  0  0  0  0  0  0  0  0  0
    8.8245   -2.2656    0.7317 O   0  0  0  0  0  0  0  0  0  0  0  0
    7.7600   -2.7518    0.0032 C   0  0  0  0  0  0  0  0  0  0  0  0
    7.2709   -1.7934   -1.0614 C   0  0  0  0  0  0  0  0  0  0  0  0
    4.3669    0.8485    0.2380 C   0  0  0  0  0  0  0  0  0  0  0  0
    3.0987    0.5236    0.6961 C   0  0  0  0  0  0  0  0  0  0  0  0
   -2.4638    0.6665    0.0871 C   0  0  0  0  0  0  0  0  0  0  0  0
   -2.3136    1.7999   -0.7404 N   0  0  0  0  0  0  0  0  0  0  0  0
   -3.5078    2.6144   -1.0874 C   0  0  0  0  0  0  0  0  0  0  0  0
   -3.0294    3.6829   -2.0376 C   0  0  0  0  0  0  0  0  0  0  0  0
   -4.0963    4.7284   -2.1556 C   0  0  0  0  0  0  0  0  0  0  0  0
   -4.2811    5.3604   -0.8611 N   0  0  0  0  0  0  0  0  0  0  0  0
   -4.7454    4.4551    0.1369 C   0  0  0  0  0  0  0  0  0  0  0  0
   -4.0698    3.1283    0.1931 C   0  0  0  0  0  0  0  0  0  0  0  0
   -3.7143    0.3376    0.5402 N   0  0  0  0  0  0  0  0  0  0  0  0
   -5.4786   -2.3342   -0.4456 H   0  0  0  0  0  0  0  0  0  0  0  0
   -5.0375   -3.8107   -1.2910 H   0  0  0  0  0  0  0  0  0  0  0  0
   -3.7235   -2.9159   -0.5180 H   0  0  0  0  0  0  0  0  0  0  0  0
   -4.1103   -4.2696    1.2948 H   0  0  0  0  0  0  0  0  0  0  0  0
   -5.5106   -5.0151    0.5232 H   0  0  0  0  0  0  0  0  0  0  0  0
   -6.2748   -4.1893    2.5606 H   0  0  0  0  0  0  0  0  0  0  0  0
   -7.0256   -3.2645    1.2598 H   0  0  0  0  0  0  0  0  0  0  0  0
   -4.8034   -2.3764    3.2410 H   0  0  0  0  0  0  0  0  0  0  0  0
   -6.5000   -1.9218    3.2208 H   0  0  0  0  0  0  0  0  0  0  0  0
   -6.0272   -0.3164    1.5246 H   0  0  0  0  0  0  0  0  0  0  0  0
   -0.8647   -1.8783    1.5970 H   0  0  0  0  0  0  0  0  0  0  0  0
    0.9166   -1.4739    1.0895 H   0  0  0  0  0  0  0  0  0  0  0  0
    2.1203   -1.6443   -1.6903 H   0  0  0  0  0  0  0  0  0  0  0  0
    4.3894   -1.0829   -2.5404 H   0  0  0  0  0  0  0  0  0  0  0  0
    7.5833    0.8186    0.9468 H   0  0  0  0  0  0  0  0  0  0  0  0
    6.4971   -0.5936    1.0505 H   0  0  0  0  0  0  0  0  0  0  0  0
    8.2939   -1.2868    2.4550 H   0  0  0  0  0  0  0  0  0  0  0  0
    9.4889   -0.4861    1.4034 H   0  0  0  0  0  0  0  0  0  0  0  0
    8.1117   -3.6708   -0.5169 H   0  0  0  0  0  0  0  0  0  0  0  0
    6.9363   -3.0523    0.6624 H   0  0  0  0  0  0  0  0  0  0  0  0
    7.7442   -2.0121   -2.0475 H   0  0  0  0  0  0  0  0  0  0  0  0
    6.1781   -1.9485   -1.2077 H   0  0  0  0  0  0  0  0  0  0  0  0
    5.0111    1.5464    0.7661 H   0  0  0  0  0  0  0  0  0  0  0  0
    2.7156    0.9723    1.6160 H   0  0  0  0  0  0  0  0  0  0  0  0
   -1.4223    2.0979   -1.1182 H   0  0  0  0  0  0  0  0  0  0  0  0
   -4.1913    1.9459   -1.6511 H   0  0  0  0  0  0  0  0  0  0  0  0
   -2.0996    4.1631   -1.6525 H   0  0  0  0  0  0  0  0  0  0  0  0
   -2.8653    3.2117   -3.0313 H   0  0  0  0  0  0  0  0  0  0  0  0
   -3.7663    5.5323   -2.8481 H   0  0  0  0  0  0  0  0  0  0  0  0
   -5.0463    4.3283   -2.5077 H   0  0  0  0  0  0  0  0  0  0  0  0
   -3.4312    5.8992   -0.5803 H   0  0  0  0  0  0  0  0  0  0  0  0
   -5.8514    4.3292    0.0460 H   0  0  0  0  0  0  0  0  0  0  0  0
   -4.5586    4.9555    1.1341 H   0  0  0  0  0  0  0  0  0  0  0  0
   -3.2980    3.0804    1.0132 H   0  0  0  0  0  0  0  0  0  0  0  0
   -4.8482    2.3785    0.5359 H   0  0  0  0  0  0  0  0  0  0  0  0
  1  2  1  0
  2  3  1  0
  3  4  1  0
  4  5  1  0
  5  6  1  0
  6  7  2  0
  7  8  1  0
  8  9  2  0
  9 10  1  0
 10 11  2  0
 10 12  1  0
 12 13  1  0
 13 14  2  0
 14 15  1  0
 15 16  2  0
 16 17  1  0
 17 18  2  0
 17 19  2  0
 17 20  1  0
 20 21  1  0
 21 22  1  0
 22 23  1  0
 23 24  1  0
 24 25  1  0
 16 26  1  0
 26 27  2  0
  9 28  1  0
 28 29  1  0
 29 30  1  0
 30 31  1  0
 31 32  1  0
 32 33  1  0
 33 34  1  0
 34 35  1  0
 28 36  2  0
 36  6  1  0
 27 13  1  0
 35 30  1  0
 25 20  1  0
  1 37  1  0
  1 38  1  0
  1 39  1  0
  2 40  1  0
  2 41  1  0
  3 42  1  0
  3 43  1  0
  4 44  1  0
  4 45  1  0
  5 46  1  0
  8 47  1  0
 12 48  1  0
 14 49  1  0
 15 50  1  0
 21 51  1  0
 21 52  1  0
 22 53  1  0
 22 54  1  0
 24 55  1  0
 24 56  1  0
 25 57  1  0
 25 58  1  0
 26 59  1  0
 27 60  1  0
 29 61  1  0
 30 62  1  0
 31 63  1  0
 31 64  1  0
 32 65  1  0
 32 66  1  0
 33 67  1  0
 34 68  1  0
 34 69  1  0
 35 70  1  0
 35 71  1  0
M  END
$$$$
