@<TRIPOS>MOLECULE
*****
 71 74 0 0 0
SMALL
GASTEIGER

@<TRIPOS>ATOM
      1 C          -4.7697   -3.1875   -0.3822 C.3     1  UNL1       -0.0652
      2 C          -5.0974   -4.0069    0.8208 C.3     1  UNL1       -0.0545
      3 C          -6.0280   -3.3885    1.7830 C.3     1  UNL1       -0.0376
      4 C          -5.6432   -2.1617    2.5019 C.3     1  UNL1        0.0118
      5 N          -5.2829   -1.0040    1.7647 N.pl3   1  UNL1       -0.3134
      6 C          -3.9550   -0.7135    1.3242 C.ar    1  UNL1        0.2169
      7 N          -2.9115   -1.4965    1.6918 N.ar    1  UNL1       -0.2221
      8 C          -1.6573   -1.2219    1.2761 C.ar    1  UNL1        0.0466
      9 C          -1.4293   -0.1197    0.4583 C.ar    1  UNL1        0.0948
     10 C          -0.0695    0.1189    0.0388 C.2     1  UNL1        0.2530
     11 O           0.2451    1.0691   -0.7430 O.2     1  UNL1       -0.2697
     12 N           1.0301   -0.6866    0.4647 N.am    1  UNL1       -0.2814
     13 C           2.3262   -0.3632   -0.0093 C.ar    1  UNL1        0.0338
     14 C           2.7746   -0.9528   -1.1779 C.ar    1  UNL1       -0.0386
     15 C           4.0345   -0.6301   -1.6330 C.ar    1  UNL1       -0.0336
     16 C           4.8274    0.2688   -0.9251 C.ar    1  UNL1        0.1056
     17 S           6.4346    0.6667   -1.5129 S.O2    1  UNL1        0.0610
     18 O           6.8322    2.0619   -1.1957 O.2     1  UNL1       -0.1528
     19 O           6.4194    0.4487   -2.9969 O.2     1  UNL1       -0.1528
     20 N           7.5322   -0.4201   -0.7393 N.3     1  UNL1       -0.1722
     21 C           7.5074   -0.2504    0.7009 C.3     1  UNL1        0.0440
     22 C           8.5286   -1.0813    1.3989 C.3     1  UNL1        0.0621
     23 O           8.8245   -2.2656    0.7317 O.3     1  UNL1       -0.3771
     24 C           7.7600   -2.7518    0.0032 C.3     1  UNL1        0.0621
     25 C           7.2709   -1.7934   -1.0614 C.3     1  UNL1        0.0440
     26 C           4.3669    0.8485    0.2380 C.ar    1  UNL1       -0.0336
     27 C           3.0987    0.5236    0.6961 C.ar    1  UNL1       -0.0386
     28 C          -2.4638    0.6665    0.0871 C.ar    1  UNL1        0.1363
     29 N          -2.3136    1.7999   -0.7404 N.pl3   1  UNL1       -0.3254
     30 C          -3.5078    2.6144   -1.0874 C.3     1  UNL1        0.0243
     31 C          -3.0294    3.6829   -2.0376 C.3     1  UNL1       -0.0219
     32 C          -4.0963    4.7284   -2.1556 C.3     1  UNL1       -0.0024
     33 N          -4.2811    5.3604   -0.8611 N.3     1  UNL1       -0.3159
     34 C          -4.7454    4.4551    0.1369 C.3     1  UNL1       -0.0024
     35 C          -4.0698    3.1283    0.1931 C.3     1  UNL1       -0.0219
     36 N          -3.7143    0.3376    0.5402 N.ar    1  UNL1       -0.1990
     37 H          -5.4786   -2.3342   -0.4456 H       1  UNL1        0.0230
     38 H          -5.0375   -3.8107   -1.2910 H       1  UNL1        0.0230
     39 H          -3.7235   -2.9159   -0.5180 H       1  UNL1        0.0230
     40 H          -4.1103   -4.2696    1.2948 H       1  UNL1        0.0263
     41 H          -5.5106   -5.0151    0.5232 H       1  UNL1        0.0263
     42 H          -6.2748   -4.1893    2.5606 H       1  UNL1        0.0280
     43 H          -7.0256   -3.2645    1.2598 H       1  UNL1        0.0280
     44 H          -4.8034   -2.3764    3.2410 H       1  UNL1        0.0462
     45 H          -6.5000   -1.9218    3.2208 H       1  UNL1        0.0462
     46 H          -6.0272   -0.3164    1.5246 H       1  UNL1        0.1489
     47 H          -0.8647   -1.8783    1.5970 H       1  UNL1        0.0839
     48 H           0.9166   -1.4739    1.0895 H       1  UNL1        0.1551
     49 H           2.1203   -1.6443   -1.6903 H       1  UNL1        0.0637
     50 H           4.3894   -1.0829   -2.5404 H       1  UNL1        0.0638
     51 H           7.5833    0.8186    0.9468 H       1  UNL1        0.0466
     52 H           6.4971   -0.5936    1.0505 H       1  UNL1        0.0466
     53 H           8.2939   -1.2868    2.4550 H       1  UNL1        0.0573
     54 H           9.4889   -0.4861    1.4034 H       1  UNL1        0.0573
     55 H           8.1117   -3.6708   -0.5169 H       1  UNL1        0.0573
     56 H           6.9363   -3.0523    0.6624 H       1  UNL1        0.0573
     57 H           7.7442   -2.0121   -2.0475 H       1  UNL1        0.0466
     58 H           6.1781   -1.9485   -1.2077 H       1  UNL1        0.0466
     59 H           5.0111    1.5464    0.7661 H       1  UNL1        0.0638
     60 H           2.7156    0.9723    1.6160 H       1  UNL1        0.0637
     61 H          -1.4223    2.0979   -1.1182 H       1  UNL1        0.1478
     62 H          -4.1913    1.9459   -1.6511 H       1  UNL1        0.0499
     63 H          -2.0996    4.1631   -1.6525 H       1  UNL1        0.0295
     64 H          -2.8653    3.2117   -3.0313 H       1  UNL1        0.0295
     65 H          -3.7663    5.5323   -2.8481 H       1  UNL1        0.0425
     66 H          -5.0463    4.3283   -2.5077 H       1  UNL1        0.0425
     67 H          -3.4312    5.8992   -0.5803 H       1  UNL1        0.1219
     68 H          -5.8514    4.3292    0.0460 H       1  UNL1        0.0425
     69 H          -4.5586    4.9555    1.1341 H       1  UNL1        0.0425
     70 H          -3.2980    3.0804    1.0132 H       1  UNL1        0.0295
     71 H          -4.8482    2.3785    0.5359 H       1  UNL1        0.0295
@<TRIPOS>BOND
     1     1     2    1
     2     2     3    1
     3     3     4    1
     4     4     5    1
     5     5     6    1
     6     6     7   ar
     7     7     8   ar
     8     8     9   ar
     9     9    10    1
    10    10    11    2
    11    10    12   am
    12    12    13    1
    13    13    14   ar
    14    14    15   ar
    15    15    16   ar
    16    16    17    1
    17    17    18    2
    18    17    19    2
    19    17    20    1
    20    20    21    1
    21    21    22    1
    22    22    23    1
    23    23    24    1
    24    24    25    1
    25    16    26   ar
    26    26    27   ar
    27     9    28   ar
    28    28    29    1
    29    29    30    1
    30    30    31    1
    31    31    32    1
    32    32    33    1
    33    33    34    1
    34    34    35    1
    35    28    36   ar
    36    36     6   ar
    37    27    13   ar
    38    35    30    1
    39    25    20    1
    40     1    37    1
    41     1    38    1
    42     1    39    1
    43     2    40    1
    44     2    41    1
    45     3    42    1
    46     3    43    1
    47     4    44    1
    48     4    45    1
    49     5    46    1
    50     8    47    1
    51    12    48    1
    52    14    49    1
    53    15    50    1
    54    21    51    1
    55    21    52    1
    56    22    53    1
    57    22    54    1
    58    24    55    1
    59    24    56    1
    60    25    57    1
    61    25    58    1
    62    26    59    1
    63    27    60    1
    64    29    61    1
    65    30    62    1
    66    31    63    1
    67    31    64    1
    68    32    65    1
    69    32    66    1
    70    33    67    1
    71    34    68    1
    72    34    69    1
    73    35    70    1
    74    35    71    1
