@<TRIPOS>MOLECULE
*****
 42 45 0 0 0
SMALL
GASTEIGER

@<TRIPOS>ATOM
      1 C           1.5808   -0.4731   -0.7095 C.3     1  UNL1       -0.0252
      2 C           2.5973   -1.5258   -0.7533 C.3     1  UNL1       -0.0424
      3 C           3.8409   -0.7683   -1.2329 C.3     1  UNL1        0.0067
      4 C           3.5242    0.6812   -0.9423 C.2     1  UNL1        0.1395
      5 O           4.1651    1.6073   -1.3500 O.2     1  UNL1       -0.2968
      6 C           2.3291    0.7189   -0.0997 C.3     1  UNL1        0.0293
      7 C           2.7144    0.5096    1.3245 C.3     1  UNL1       -0.0526
      8 C           1.4593    1.9229   -0.3221 C.3     1  UNL1       -0.0401
      9 C           0.0716    1.7547    0.1875 C.3     1  UNL1       -0.0450
     10 C          -0.5497    0.5021   -0.3597 C.3     1  UNL1       -0.0124
     11 C          -1.9446    0.2955   -0.0259 C.ar    1  UNL1       -0.0406
     12 C          -2.4062   -0.8026    0.6702 C.ar    1  UNL1       -0.0405
     13 C          -1.4331   -1.8459    1.1128 C.3     1  UNL1       -0.0270
     14 C          -0.3443   -1.9442    0.0390 C.3     1  UNL1       -0.0454
     15 C           0.3634   -0.6430    0.0880 C.3     1  UNL1       -0.0302
     16 C          -3.7594   -0.8858    0.9273 C.ar    1  UNL1       -0.0167
     17 C          -4.6462    0.0954    0.5066 C.ar    1  UNL1        0.1171
     18 O          -6.0132   -0.0358    0.7931 O.3     1  UNL1       -0.5068
     19 C          -4.1710    1.1911   -0.1902 C.ar    1  UNL1       -0.0199
     20 C          -2.8044    1.2864   -0.4562 C.ar    1  UNL1       -0.0546
     21 H           1.3469   -0.1593   -1.7498 H       1  UNL1        0.0313
     22 H           2.3478   -2.2563   -1.5693 H       1  UNL1        0.0272
     23 H           2.7778   -2.0933    0.1601 H       1  UNL1        0.0272
     24 H           4.6663   -1.0596   -0.5737 H       1  UNL1        0.0342
     25 H           4.0234   -0.8976   -2.3138 H       1  UNL1        0.0342
     26 H           3.7778    0.8444    1.4496 H       1  UNL1        0.0239
     27 H           2.7117   -0.5719    1.5520 H       1  UNL1        0.0239
     28 H           2.1045    1.0849    2.0482 H       1  UNL1        0.0239
     29 H           1.9222    2.7798    0.2361 H       1  UNL1        0.0275
     30 H           1.4174    2.1391   -1.3907 H       1  UNL1        0.0275
     31 H          -0.5004    2.6708   -0.0789 H       1  UNL1        0.0271
     32 H           0.0759    1.6835    1.2879 H       1  UNL1        0.0271
     33 H          -0.4619    0.5722   -1.4809 H       1  UNL1        0.0352
     34 H          -1.8964   -2.8134    1.3242 H       1  UNL1        0.0313
     35 H          -0.9226   -1.4033    2.0176 H       1  UNL1        0.0313
     36 H           0.3276   -2.7435    0.3492 H       1  UNL1        0.0271
     37 H          -0.8183   -2.1242   -0.9674 H       1  UNL1        0.0271
     38 H           0.5700   -0.4323    1.1780 H       1  UNL1        0.0310
     39 H          -4.0893   -1.7506    1.4702 H       1  UNL1        0.0657
     40 H          -6.5802    0.7978    0.8954 H       1  UNL1        0.2921
     41 H          -4.8904    1.9303   -0.4992 H       1  UNL1        0.0654
     42 H          -2.4836    2.1622   -1.0041 H       1  UNL1        0.0622
@<TRIPOS>BOND
     1     1     2    1
     2     2     3    1
     3     3     4    1
     4     4     5    2
     5     4     6    1
     6     6     7    1
     7     6     8    1
     8     8     9    1
     9     9    10    1
    10    10    11    1
    11    11    12   ar
    12    12    13    1
    13    13    14    1
    14    14    15    1
    15    12    16   ar
    16    16    17   ar
    17    17    18    1
    18    17    19   ar
    19    19    20   ar
    20     6     1    1
    21    15    10    1
    22    15     1    1
    23    20    11   ar
    24     1    21    1
    25     2    22    1
    26     2    23    1
    27     3    24    1
    28     3    25    1
    29     7    26    1
    30     7    27    1
    31     7    28    1
    32     8    29    1
    33     8    30    1
    34     9    31    1
    35     9    32    1
    36    10    33    1
    37    13    34    1
    38    13    35    1
    39    14    36    1
    40    14    37    1
    41    15    38    1
    42    16    39    1
    43    18    40    1
    44    19    41    1
    45    20    42    1
