@<TRIPOS>MOLECULE
*****
 52 55 0 0 0
SMALL
GASTEIGER

@<TRIPOS>ATOM
      1 C          -0.7560   -0.7752   -0.3473 C.3     1  UNL1       -0.0286
      2 C          -1.7560   -1.4030   -1.2337 C.3     1  UNL1       -0.0463
      3 C          -2.9100   -1.5713   -0.2288 C.3     1  UNL1       -0.0162
      4 C          -2.7546   -0.4306    0.7496 C.3     1  UNL1        0.1318
      5 O          -2.3886   -0.9873    1.9771 O.3     1  UNL1       -0.3804
      6 C          -3.9590    0.3726    0.9330 C.2     1  UNL1        0.1902
      7 O          -3.9707    0.0865    2.1415 O.2     1  UNL1       -0.2919
      8 C          -5.0942    1.2419    0.6449 C.3     1  UNL1        0.1052
      9 O          -5.2307    1.6576   -0.6670 O.3     1  UNL1       -0.3874
     10 C          -1.5590    0.3388    0.2830 C.3     1  UNL1        0.0134
     11 C          -1.8493    1.4727   -0.6430 C.3     1  UNL1       -0.0559
     12 C          -0.7256    0.8902    1.4174 C.3     1  UNL1        0.0148
     13 C           0.6188    1.2917    0.8828 C.2     1  UNL1        0.1384
     14 O           0.9950    2.4555    1.0012 O.2     1  UNL1       -0.2970
     15 C           1.3180    0.1615    0.2637 C.3     1  UNL1        0.0331
     16 C           0.4972   -0.2576   -0.9378 C.3     1  UNL1       -0.0267
     17 C           1.2130   -1.2531   -1.8046 C.3     1  UNL1       -0.0455
     18 C           2.6332   -0.8564   -2.0994 C.3     1  UNL1       -0.0302
     19 C           3.3402   -0.6958   -0.8014 C.2     1  UNL1       -0.0556
     20 C           4.3417   -1.5077   -0.4837 C.2     1  UNL1       -0.0149
     21 C           4.9459   -1.2393    0.8173 C.2     1  UNL1        0.1787
     22 O           5.8955   -1.9590    1.1918 O.2     1  UNL1       -0.2879
     23 C           4.4945   -0.1709    1.7021 C.2     1  UNL1       -0.0180
     24 C           3.4851    0.5483    1.2371 C.2     1  UNL1       -0.0698
     25 C           2.7534    0.4199   -0.0512 C.3     1  UNL1        0.0174
     26 C           2.9813    1.7124   -0.8006 C.3     1  UNL1       -0.0517
     27 H          -0.5098   -1.4971    0.4578 H       1  UNL1        0.0310
     28 H          -2.0522   -0.8331   -2.1168 H       1  UNL1        0.0269
     29 H          -1.4047   -2.4069   -1.5916 H       1  UNL1        0.0269
     30 H          -2.7195   -2.5690    0.2383 H       1  UNL1        0.0297
     31 H          -3.8798   -1.6525   -0.7083 H       1  UNL1        0.0297
     32 H          -2.9284   -1.7736    2.1701 H       1  UNL1        0.2108
     33 H          -6.0428    0.7427    0.9681 H       1  UNL1        0.0637
     34 H          -5.0103    2.1624    1.2593 H       1  UNL1        0.0637
     35 H          -5.7265    0.9775   -1.1662 H       1  UNL1        0.2100
     36 H          -0.9139    2.0846   -0.7055 H       1  UNL1        0.0236
     37 H          -2.1074    1.1835   -1.6612 H       1  UNL1        0.0236
     38 H          -2.5745    2.1368   -0.1403 H       1  UNL1        0.0236
     39 H          -1.2811    1.7648    1.8077 H       1  UNL1        0.0348
     40 H          -0.5984    0.1246    2.1847 H       1  UNL1        0.0348
     41 H           1.3016   -0.7015    0.9750 H       1  UNL1        0.0392
     42 H           0.2937    0.6550   -1.5296 H       1  UNL1        0.0311
     43 H           1.2192   -2.2739   -1.3746 H       1  UNL1        0.0271
     44 H           0.6984   -1.3190   -2.7852 H       1  UNL1        0.0271
     45 H           2.5744    0.1180   -2.6379 H       1  UNL1        0.0310
     46 H           3.0802   -1.6509   -2.7295 H       1  UNL1        0.0310
     47 H           4.6495   -2.2872   -1.1617 H       1  UNL1        0.0655
     48 H           4.9199    0.0422    2.6537 H       1  UNL1        0.0653
     49 H           3.1173    1.3569    1.8673 H       1  UNL1        0.0582
     50 H           3.1614    2.5523   -0.0844 H       1  UNL1        0.0241
     51 H           3.9544    1.5988   -1.3408 H       1  UNL1        0.0241
     52 H           2.2199    1.9222   -1.5584 H       1  UNL1        0.0241
@<TRIPOS>BOND
     1     1     2    1
     2     2     3    1
     3     3     4    1
     4     4     5    1
     5     4     6    1
     6     6     7    2
     7     6     8    1
     8     8     9    1
     9     4    10    1
    10    10    11    1
    11    10    12    1
    12    12    13    1
    13    13    14    2
    14    13    15    1
    15    15    16    1
    16    16    17    1
    17    17    18    1
    18    18    19    1
    19    19    20    2
    20    20    21    1
    21    21    22    2
    22    21    23    1
    23    23    24    2
    24    24    25    1
    25    25    26    1
    26    10     1    1
    27    25    15    1
    28    16     1    1
    29    25    19    1
    30     1    27    1
    31     2    28    1
    32     2    29    1
    33     3    30    1
    34     3    31    1
    35     5    32    1
    36     8    33    1
    37     8    34    1
    38     9    35    1
    39    11    36    1
    40    11    37    1
    41    11    38    1
    42    12    39    1
    43    12    40    1
    44    15    41    1
    45    16    42    1
    46    17    43    1
    47    17    44    1
    48    18    45    1
    49    18    46    1
    50    20    47    1
    51    23    48    1
    52    24    49    1
    53    26    50    1
    54    26    51    1
    55    26    52    1
