
     RDKit          3D

 52 55  0  0  0  0  0  0  0  0999 V2000
   -0.7560   -0.7752   -0.3473 C   0  0  2  0  0  0  0  0  0  0  0  0
   -1.7560   -1.4030   -1.2337 C   0  0  0  0  0  0  0  0  0  0  0  0
   -2.9100   -1.5713   -0.2288 C   0  0  0  0  0  0  0  0  0  0  0  0
   -2.7546   -0.4306    0.7496 C   0  0  2  0  0  0  0  0  0  0  0  0
   -2.3886   -0.9873    1.9771 O   0  0  0  0  0  0  0  0  0  0  0  0
   -3.9590    0.3726    0.9330 C   0  0  0  0  0  0  0  0  0  0  0  0
   -3.9707    0.0865    2.1415 O   0  0  0  0  0  0  0  0  0  0  0  0
   -5.0942    1.2419    0.6449 C   0  0  0  0  0  0  0  0  0  0  0  0
   -5.2307    1.6576   -0.6670 O   0  0  0  0  0  0  0  0  0  0  0  0
   -1.5590    0.3388    0.2830 C   0  0  2  0  0  0  0  0  0  0  0  0
   -1.8493    1.4727   -0.6430 C   0  0  0  0  0  0  0  0  0  0  0  0
   -0.7256    0.8902    1.4174 C   0  0  0  0  0  0  0  0  0  0  0  0
    0.6188    1.2917    0.8828 C   0  0  0  0  0  0  0  0  0  0  0  0
    0.9950    2.4555    1.0012 O   0  0  0  0  0  0  0  0  0  0  0  0
    1.3180    0.1615    0.2637 C   0  0  1  0  0  0  0  0  0  0  0  0
    0.4972   -0.2576   -0.9378 C   0  0  1  0  0  0  0  0  0  0  0  0
    1.2130   -1.2531   -1.8046 C   0  0  0  0  0  0  0  0  0  0  0  0
    2.6332   -0.8564   -2.0994 C   0  0  0  0  0  0  0  0  0  0  0  0
    3.3402   -0.6958   -0.8014 C   0  0  0  0  0  0  0  0  0  0  0  0
    4.3417   -1.5077   -0.4837 C   0  0  0  0  0  0  0  0  0  0  0  0
    4.9459   -1.2393    0.8173 C   0  0  0  0  0  0  0  0  0  0  0  0
    5.8955   -1.9590    1.1918 O   0  0  0  0  0  0  0  0  0  0  0  0
    4.4945   -0.1709    1.7021 C   0  0  0  0  0  0  0  0  0  0  0  0
    3.4851    0.5483    1.2371 C   0  0  0  0  0  0  0  0  0  0  0  0
    2.7534    0.4199   -0.0512 C   0  0  2  0  0  0  0  0  0  0  0  0
    2.9813    1.7124   -0.8006 C   0  0  0  0  0  0  0  0  0  0  0  0
   -0.5098   -1.4971    0.4578 H   0  0  0  0  0  0  0  0  0  0  0  0
   -2.0522   -0.8331   -2.1168 H   0  0  0  0  0  0  0  0  0  0  0  0
   -1.4047   -2.4069   -1.5916 H   0  0  0  0  0  0  0  0  0  0  0  0
   -2.7195   -2.5690    0.2383 H   0  0  0  0  0  0  0  0  0  0  0  0
   -3.8798   -1.6525   -0.7083 H   0  0  0  0  0  0  0  0  0  0  0  0
   -2.9284   -1.7736    2.1701 H   0  0  0  0  0  0  0  0  0  0  0  0
   -6.0428    0.7427    0.9681 H   0  0  0  0  0  0  0  0  0  0  0  0
   -5.0103    2.1624    1.2593 H   0  0  0  0  0  0  0  0  0  0  0  0
   -5.7265    0.9775   -1.1662 H   0  0  0  0  0  0  0  0  0  0  0  0
   -0.9139    2.0846   -0.7055 H   0  0  0  0  0  0  0  0  0  0  0  0
   -2.1074    1.1835   -1.6612 H   0  0  0  0  0  0  0  0  0  0  0  0
   -2.5745    2.1368   -0.1403 H   0  0  0  0  0  0  0  0  0  0  0  0
   -1.2811    1.7648    1.8077 H   0  0  0  0  0  0  0  0  0  0  0  0
   -0.5984    0.1246    2.1847 H   0  0  0  0  0  0  0  0  0  0  0  0
    1.3016   -0.7015    0.9750 H   0  0  0  0  0  0  0  0  0  0  0  0
    0.2937    0.6550   -1.5296 H   0  0  0  0  0  0  0  0  0  0  0  0
    1.2192   -2.2739   -1.3746 H   0  0  0  0  0  0  0  0  0  0  0  0
    0.6984   -1.3190   -2.7852 H   0  0  0  0  0  0  0  0  0  0  0  0
    2.5744    0.1180   -2.6379 H   0  0  0  0  0  0  0  0  0  0  0  0
    3.0802   -1.6509   -2.7295 H   0  0  0  0  0  0  0  0  0  0  0  0
    4.6495   -2.2872   -1.1617 H   0  0  0  0  0  0  0  0  0  0  0  0
    4.9199    0.0422    2.6537 H   0  0  0  0  0  0  0  0  0  0  0  0
    3.1173    1.3569    1.8673 H   0  0  0  0  0  0  0  0  0  0  0  0
    3.1614    2.5523   -0.0844 H   0  0  0  0  0  0  0  0  0  0  0  0
    3.9544    1.5988   -1.3408 H   0  0  0  0  0  0  0  0  0  0  0  0
    2.2199    1.9222   -1.5584 H   0  0  0  0  0  0  0  0  0  0  0  0
  1  2  1  0
  2  3  1  0
  3  4  1  0
  4  5  1  1
  4  6  1  0
  6  7  2  0
  6  8  1  0
  8  9  1  0
  4 10  1  0
 10 11  1  6
 10 12  1  0
 12 13  1  0
 13 14  2  0
 13 15  1  0
 15 16  1  0
 16 17  1  0
 17 18  1  0
 18 19  1  0
 19 20  2  0
 20 21  1  0
 21 22  2  0
 21 23  1  0
 23 24  2  0
 24 25  1  0
 25 26  1  6
 10  1  1  0
 25 15  1  0
 16  1  1  0
 25 19  1  0
  1 27  1  1
  2 28  1  0
  2 29  1  0
  3 30  1  0
  3 31  1  0
  5 32  1  0
  8 33  1  0
  8 34  1  0
  9 35  1  0
 11 36  1  0
 11 37  1  0
 11 38  1  0
 12 39  1  0
 12 40  1  0
 15 41  1  1
 16 42  1  6
 17 43  1  0
 17 44  1  0
 18 45  1  0
 18 46  1  0
 20 47  1  0
 23 48  1  0
 24 49  1  0
 26 50  1  0
 26 51  1  0
 26 52  1  0
M  END
$$$$
