@<TRIPOS>MOLECULE
*****
 23 24 0 0 0
SMALL
GASTEIGER

@<TRIPOS>ATOM
      1 N           2.7358    0.2779    0.8596 N.3     1  UNL1       -0.3196
      2 C           2.0600    0.5089   -0.4133 C.3     1  UNL1        0.0889
      3 C           1.2633   -0.6932   -0.7636 C.3     1  UNL1       -0.0020
      4 C          -0.1428   -0.6792   -0.2958 C.ar    1  UNL1       -0.0217
      5 C          -0.8427   -1.8922   -0.2709 C.ar    1  UNL1       -0.0567
      6 C          -2.1528   -1.9476    0.1504 C.ar    1  UNL1       -0.0614
      7 C          -2.8219   -0.8139    0.5622 C.ar    1  UNL1       -0.0599
      8 C          -2.1365    0.3805    0.5390 C.ar    1  UNL1       -0.0377
      9 C          -0.8070    0.4530    0.1143 C.ar    1  UNL1        0.0674
     10 N          -0.0972    1.6827    0.0928 N.am    1  UNL1       -0.1497
     11 O          -0.7131    2.8198    0.4876 O.3     1  UNL1       -0.2876
     12 C           1.2658    1.7523   -0.3395 C.2     1  UNL1        0.2597
     13 O           1.8094    2.8401   -0.6588 O.2     1  UNL1       -0.2714
     14 H           3.5793   -0.3315    0.6741 H       1  UNL1        0.1189
     15 H           2.0500   -0.2355    1.4703 H       1  UNL1        0.1189
     16 H           2.8477    0.6638   -1.1784 H       1  UNL1        0.0558
     17 H           1.7376   -1.6049   -0.2961 H       1  UNL1        0.0334
     18 H           1.2417   -0.9203   -1.8616 H       1  UNL1        0.0334
     19 H          -0.3366   -2.8128   -0.5930 H       1  UNL1        0.0621
     20 H          -2.6624   -2.9245    0.1527 H       1  UNL1        0.0618
     21 H          -3.8486   -0.9150    0.8826 H       1  UNL1        0.0618
     22 H          -2.6159    1.2947    0.8513 H       1  UNL1        0.0637
     23 H          -1.4131    3.0969   -0.1657 H       1  UNL1        0.2421
@<TRIPOS>BOND
     1     1     2    1
     2     2     3    1
     3     3     4    1
     4     4     5   ar
     5     5     6   ar
     6     6     7   ar
     7     7     8   ar
     8     8     9   ar
     9     9    10    1
    10    10    11    1
    11    10    12   am
    12    12    13    2
    13    12     2    1
    14     9     4   ar
    15     1    14    1
    16     1    15    1
    17     2    16    1
    18     3    17    1
    19     3    18    1
    20     5    19    1
    21     6    20    1
    22     7    21    1
    23     8    22    1
    24    11    23    1
