@<TRIPOS>MOLECULE
*****
 31 31 0 0 0
SMALL
GASTEIGER

@<TRIPOS>ATOM
      1 N           4.3117   -0.3223    0.5698 N.am    1  UNL1       -0.2950
      2 C           3.1350   -0.6225   -0.1520 C.2     1  UNL1        0.3977
      3 O           3.3467   -1.1684   -1.2625 O.2     1  UNL1       -0.2267
      4 O           1.8691   -0.3287    0.3466 O.3     1  UNL1       -0.4498
      5 C           0.7670   -0.6773   -0.4688 C.3     1  UNL1        0.1039
      6 C          -0.5689   -0.3109    0.1739 C.3     1  UNL1        0.0526
      7 C          -1.6622   -0.7394   -0.8061 C.3     1  UNL1        0.1039
      8 O          -1.6210   -2.1127   -1.0591 O.3     1  UNL1       -0.4498
      9 C          -1.7683   -3.0915   -0.0923 C.2     1  UNL1        0.3977
     10 N          -1.7329   -4.4969   -0.3076 N.am    1  UNL1       -0.2950
     11 O          -1.9549   -2.7976    1.1165 O.2     1  UNL1       -0.2267
     12 C          -0.6021    1.1714    0.2868 C.ar    1  UNL1       -0.0378
     13 C          -0.7959    1.8378    1.5002 C.ar    1  UNL1       -0.0581
     14 C          -0.8191    3.2221    1.5545 C.ar    1  UNL1       -0.0615
     15 C          -0.6517    3.9708    0.4150 C.ar    1  UNL1       -0.0617
     16 C          -0.4614    3.2713   -0.7725 C.ar    1  UNL1       -0.0615
     17 C          -0.4323    1.9081   -0.8670 C.ar    1  UNL1       -0.0581
     18 H           4.8257    0.5798    0.3806 H       1  UNL1        0.1482
     19 H           4.7993   -0.8883    1.3206 H       1  UNL1        0.1482
     20 H           0.7726   -1.7896   -0.6331 H       1  UNL1        0.0705
     21 H           0.8456   -0.2332   -1.4600 H       1  UNL1        0.0705
     22 H          -0.7112   -0.8164    1.1330 H       1  UNL1        0.0415
     23 H          -1.4982   -0.2309   -1.7789 H       1  UNL1        0.0705
     24 H          -2.6293   -0.3548   -0.4343 H       1  UNL1        0.0705
     25 H          -2.5654   -5.0799   -0.5961 H       1  UNL1        0.1482
     26 H          -1.0188   -5.2393   -0.2579 H       1  UNL1        0.1482
     27 H          -0.9207    1.1960    2.3555 H       1  UNL1        0.0620
     28 H          -0.9738    3.6531    2.5302 H       1  UNL1        0.0618
     29 H          -0.6730    5.0528    0.4783 H       1  UNL1        0.0618
     30 H          -0.3343    3.9259   -1.6437 H       1  UNL1        0.0618
     31 H          -0.2771    1.5116   -1.8481 H       1  UNL1        0.0620
@<TRIPOS>BOND
     1     1     2   am
     2     2     3    2
     3     2     4    1
     4     4     5    1
     5     5     6    1
     6     6     7    1
     7     7     8    1
     8     8     9    1
     9     9    10   am
    10     9    11    2
    11     6    12    1
    12    12    13   ar
    13    13    14   ar
    14    14    15   ar
    15    15    16   ar
    16    16    17   ar
    17    17    12   ar
    18     1    18    1
    19     1    19    1
    20     5    20    1
    21     5    21    1
    22     6    22    1
    23     7    23    1
    24     7    24    1
    25    10    25    1
    26    10    26    1
    27    13    27    1
    28    14    28    1
    29    15    29    1
    30    16    30    1
    31    17    31    1
