
     RDKit          3D

 31 31  0  0  0  0  0  0  0  0999 V2000
    4.3117   -0.3223    0.5698 N   0  0  0  0  0  0  0  0  0  0  0  0
    3.1350   -0.6225   -0.1520 C   0  0  0  0  0  0  0  0  0  0  0  0
    3.3467   -1.1684   -1.2625 O   0  0  0  0  0  0  0  0  0  0  0  0
    1.8691   -0.3287    0.3466 O   0  0  0  0  0  0  0  0  0  0  0  0
    0.7670   -0.6773   -0.4688 C   0  0  0  0  0  0  0  0  0  0  0  0
   -0.5689   -0.3109    0.1739 C   0  0  0  0  0  0  0  0  0  0  0  0
   -1.6622   -0.7394   -0.8061 C   0  0  0  0  0  0  0  0  0  0  0  0
   -1.6210   -2.1127   -1.0591 O   0  0  0  0  0  0  0  0  0  0  0  0
   -1.7683   -3.0915   -0.0923 C   0  0  0  0  0  0  0  0  0  0  0  0
   -1.7329   -4.4969   -0.3076 N   0  0  0  0  0  0  0  0  0  0  0  0
   -1.9549   -2.7976    1.1165 O   0  0  0  0  0  0  0  0  0  0  0  0
   -0.6021    1.1714    0.2868 C   0  0  0  0  0  0  0  0  0  0  0  0
   -0.7959    1.8378    1.5002 C   0  0  0  0  0  0  0  0  0  0  0  0
   -0.8191    3.2221    1.5545 C   0  0  0  0  0  0  0  0  0  0  0  0
   -0.6517    3.9708    0.4150 C   0  0  0  0  0  0  0  0  0  0  0  0
   -0.4614    3.2713   -0.7725 C   0  0  0  0  0  0  0  0  0  0  0  0
   -0.4323    1.9081   -0.8670 C   0  0  0  0  0  0  0  0  0  0  0  0
    4.8257    0.5798    0.3806 H   0  0  0  0  0  0  0  0  0  0  0  0
    4.7993   -0.8883    1.3206 H   0  0  0  0  0  0  0  0  0  0  0  0
    0.7726   -1.7896   -0.6331 H   0  0  0  0  0  0  0  0  0  0  0  0
    0.8456   -0.2332   -1.4600 H   0  0  0  0  0  0  0  0  0  0  0  0
   -0.7112   -0.8164    1.1330 H   0  0  0  0  0  0  0  0  0  0  0  0
   -1.4982   -0.2309   -1.7789 H   0  0  0  0  0  0  0  0  0  0  0  0
   -2.6293   -0.3548   -0.4343 H   0  0  0  0  0  0  0  0  0  0  0  0
   -2.5654   -5.0799   -0.5961 H   0  0  0  0  0  0  0  0  0  0  0  0
   -1.0188   -5.2393   -0.2579 H   0  0  0  0  0  0  0  0  0  0  0  0
   -0.9207    1.1960    2.3555 H   0  0  0  0  0  0  0  0  0  0  0  0
   -0.9738    3.6531    2.5302 H   0  0  0  0  0  0  0  0  0  0  0  0
   -0.6730    5.0528    0.4783 H   0  0  0  0  0  0  0  0  0  0  0  0
   -0.3343    3.9259   -1.6437 H   0  0  0  0  0  0  0  0  0  0  0  0
   -0.2771    1.5116   -1.8481 H   0  0  0  0  0  0  0  0  0  0  0  0
  1  2  1  0
  2  3  2  0
  2  4  1  0
  4  5  1  0
  5  6  1  0
  6  7  1  0
  7  8  1  0
  8  9  1  0
  9 10  1  0
  9 11  2  0
  6 12  1  0
 12 13  2  0
 13 14  1  0
 14 15  2  0
 15 16  1  0
 16 17  2  0
 17 12  1  0
  1 18  1  0
  1 19  1  0
  5 20  1  0
  5 21  1  0
  6 22  1  0
  7 23  1  0
  7 24  1  0
 10 25  1  0
 10 26  1  0
 13 27  1  0
 14 28  1  0
 15 29  1  0
 16 30  1  0
 17 31  1  0
M  END
$$$$
