
     RDKit          3D

 61 65  0  0  0  0  0  0  0  0999 V2000
   -6.5892    2.4717    0.4423 C   0  0  0  0  0  0  0  0  0  0  0  0
   -5.1340    2.3570    0.1598 C   0  0  0  0  0  0  0  0  0  0  0  0
   -4.3971    3.3096   -0.4214 N   0  0  0  0  0  0  0  0  0  0  0  0
   -3.1182    2.9208   -0.5428 C   0  0  0  0  0  0  0  0  0  0  0  0
   -1.9804    3.5049   -1.0549 C   0  0  0  0  0  0  0  0  0  0  0  0
   -0.7765    2.8354   -1.0373 C   0  0  0  0  0  0  0  0  0  0  0  0
   -0.6793    1.5660   -0.5078 C   0  0  0  0  0  0  0  0  0  0  0  0
    0.5862    0.8344   -0.4775 C   0  0  0  0  0  0  0  0  0  0  0  0
    1.5695    0.9650   -1.4307 C   0  0  0  0  0  0  0  0  0  0  0  0
    2.7504    0.2566   -1.3669 C   0  0  0  0  0  0  0  0  0  0  0  0
    3.0016   -0.6239   -0.3339 C   0  0  0  0  0  0  0  0  0  0  0  0
    4.2684   -1.4140   -0.2163 C   0  0  0  0  0  0  0  0  0  0  0  0
    5.1944   -0.6645    0.5578 N   0  0  0  0  0  0  0  0  0  0  0  0
    5.5063    0.5772   -0.1103 C   0  0  0  0  0  0  0  0  0  0  0  0
    6.9064    0.9532    0.4125 C   0  0  0  0  0  0  0  0  0  0  0  0
    7.5522   -0.4396    0.4061 C   0  0  0  0  0  0  0  0  0  0  0  0
    6.4256   -1.2971    0.8850 C   0  0  2  0  0  0  0  0  0  0  0  0
    6.5402   -2.7289    0.4324 C   0  0  0  0  0  0  0  0  0  0  0  0
    7.8186   -3.1686    0.8477 O   0  0  0  0  0  0  0  0  0  0  0  0
    2.0094   -0.7654    0.6413 C   0  0  0  0  0  0  0  0  0  0  0  0
    0.8389   -0.0478    0.5565 C   0  0  0  0  0  0  0  0  0  0  0  0
   -1.8466    1.0068    0.0002 C   0  0  0  0  0  0  0  0  0  0  0  0
   -3.0587    1.6605   -0.0086 C   0  0  0  0  0  0  0  0  0  0  0  0
   -4.3120    1.3308    0.4191 N   0  0  0  0  0  0  0  0  0  0  0  0
   -4.6301    0.0734    1.0394 C   0  0  0  0  0  0  0  0  0  0  0  0
   -5.0308   -0.9798    0.0295 C   0  0  1  0  0  0  0  0  0  0  0  0
   -5.3532   -2.2938    0.6966 C   0  0  0  0  0  0  0  0  0  0  0  0
   -6.7854   -2.0899    1.1370 C   0  0  0  0  0  0  0  0  0  0  0  0
   -7.2632   -1.0542    0.1554 C   0  0  0  0  0  0  0  0  0  0  0  0
   -6.2099   -0.6650   -0.6261 O   0  0  0  0  0  0  0  0  0  0  0  0
   -7.2058    1.9421   -0.3312 H   0  0  0  0  0  0  0  0  0  0  0  0
   -6.8337    2.1139    1.4639 H   0  0  0  0  0  0  0  0  0  0  0  0
   -6.9022    3.5354    0.4036 H   0  0  0  0  0  0  0  0  0  0  0  0
   -2.0103    4.4953   -1.4786 H   0  0  0  0  0  0  0  0  0  0  0  0
    0.1194    3.3189   -1.4509 H   0  0  0  0  0  0  0  0  0  0  0  0
    1.4203    1.6409   -2.2577 H   0  0  0  0  0  0  0  0  0  0  0  0
    3.5111    0.3658   -2.1207 H   0  0  0  0  0  0  0  0  0  0  0  0
    4.0060   -2.3345    0.3461 H   0  0  0  0  0  0  0  0  0  0  0  0
    4.5901   -1.6328   -1.2538 H   0  0  0  0  0  0  0  0  0  0  0  0
    5.7033    0.3469   -1.1989 H   0  0  0  0  0  0  0  0  0  0  0  0
    4.7810    1.3779    0.0281 H   0  0  0  0  0  0  0  0  0  0  0  0
    7.3957    1.6347   -0.2901 H   0  0  0  0  0  0  0  0  0  0  0  0
    6.8445    1.3061    1.4452 H   0  0  0  0  0  0  0  0  0  0  0  0
    7.8232   -0.7176   -0.6362 H   0  0  0  0  0  0  0  0  0  0  0  0
    8.4304   -0.4504    1.0641 H   0  0  0  0  0  0  0  0  0  0  0  0
    6.4971   -1.3234    2.0119 H   0  0  0  0  0  0  0  0  0  0  0  0
    5.8249   -3.3892    0.9629 H   0  0  0  0  0  0  0  0  0  0  0  0
    6.4382   -2.8801   -0.6399 H   0  0  0  0  0  0  0  0  0  0  0  0
    8.5378   -2.7689    0.3279 H   0  0  0  0  0  0  0  0  0  0  0  0
    2.2108   -1.4624    1.4568 H   0  0  0  0  0  0  0  0  0  0  0  0
    0.0630   -0.1585    1.3193 H   0  0  0  0  0  0  0  0  0  0  0  0
   -1.7548    0.0168    0.4097 H   0  0  0  0  0  0  0  0  0  0  0  0
   -3.7226   -0.2986    1.5568 H   0  0  0  0  0  0  0  0  0  0  0  0
   -5.4161    0.1780    1.8136 H   0  0  0  0  0  0  0  0  0  0  0  0
   -4.2097   -1.1939   -0.6873 H   0  0  0  0  0  0  0  0  0  0  0  0
   -5.2305   -3.1564    0.0152 H   0  0  0  0  0  0  0  0  0  0  0  0
   -4.7407   -2.4083    1.6246 H   0  0  0  0  0  0  0  0  0  0  0  0
   -6.8771   -1.7963    2.1871 H   0  0  0  0  0  0  0  0  0  0  0  0
   -7.3473   -3.0432    0.9166 H   0  0  0  0  0  0  0  0  0  0  0  0
   -8.0546   -1.4703   -0.5247 H   0  0  0  0  0  0  0  0  0  0  0  0
   -7.6947   -0.1788    0.6814 H   0  0  0  0  0  0  0  0  0  0  0  0
  1  2  1  0
  2  3  2  0
  3  4  1  0
  4  5  2  0
  5  6  1  0
  6  7  2  0
  7  8  1  0
  8  9  2  0
  9 10  1  0
 10 11  2  0
 11 12  1  0
 12 13  1  0
 13 14  1  0
 14 15  1  0
 15 16  1  0
 16 17  1  0
 17 18  1  0
 18 19  1  0
 11 20  1  0
 20 21  2  0
  7 22  1  0
 22 23  2  0
 23 24  1  0
 24 25  1  0
 25 26  1  0
 26 27  1  0
 27 28  1  0
 28 29  1  0
 29 30  1  0
 24  2  1  0
 30 26  1  0
 23  4  1  0
 21  8  1  0
 17 13  1  0
  1 31  1  0
  1 32  1  0
  1 33  1  0
  5 34  1  0
  6 35  1  0
  9 36  1  0
 10 37  1  0
 12 38  1  0
 12 39  1  0
 14 40  1  0
 14 41  1  0
 15 42  1  0
 15 43  1  0
 16 44  1  0
 16 45  1  0
 17 46  1  1
 18 47  1  0
 18 48  1  0
 19 49  1  0
 20 50  1  0
 21 51  1  0
 22 52  1  0
 25 53  1  0
 25 54  1  0
 26 55  1  6
 27 56  1  0
 27 57  1  0
 28 58  1  0
 28 59  1  0
 29 60  1  0
 29 61  1  0
M  END
$$$$
