@<TRIPOS>MOLECULE
*****
 61 65 0 0 0
SMALL
GASTEIGER

@<TRIPOS>ATOM
      1 C          -6.5892    2.4717    0.4423 C.3     1  UNL1       -0.0062
      2 C          -5.1340    2.3570    0.1598 C.ar    1  UNL1        0.1077
      3 N          -4.3971    3.3096   -0.4214 N.ar    1  UNL1       -0.2326
      4 C          -3.1182    2.9208   -0.5428 C.ar    1  UNL1        0.0893
      5 C          -1.9804    3.5049   -1.0549 C.ar    1  UNL1       -0.0337
      6 C          -0.7765    2.8354   -1.0373 C.ar    1  UNL1       -0.0519
      7 C          -0.6793    1.5660   -0.5078 C.ar    1  UNL1       -0.0158
      8 C           0.5862    0.8344   -0.4775 C.ar    1  UNL1       -0.0178
      9 C           1.5695    0.9650   -1.4307 C.ar    1  UNL1       -0.0537
     10 C           2.7504    0.2566   -1.3669 C.ar    1  UNL1       -0.0568
     11 C           3.0016   -0.6239   -0.3339 C.ar    1  UNL1       -0.0333
     12 C           4.2684   -1.4140   -0.2163 C.3     1  UNL1        0.0244
     13 N           5.1944   -0.6645    0.5578 N.3     1  UNL1       -0.2931
     14 C           5.5063    0.5772   -0.1103 C.3     1  UNL1       -0.0004
     15 C           6.9064    0.9532    0.4125 C.3     1  UNL1       -0.0387
     16 C           7.5522   -0.4396    0.4061 C.3     1  UNL1       -0.0340
     17 C           6.4256   -1.2971    0.8850 C.3     1  UNL1        0.0339
     18 C           6.5402   -2.7289    0.4324 C.3     1  UNL1        0.0598
     19 O           7.8186   -3.1686    0.8477 O.3     1  UNL1       -0.3935
     20 C           2.0094   -0.7654    0.6413 C.ar    1  UNL1       -0.0568
     21 C           0.8389   -0.0478    0.5565 C.ar    1  UNL1       -0.0537
     22 C          -1.8466    1.0068    0.0002 C.ar    1  UNL1       -0.0283
     23 C          -3.0587    1.6605   -0.0086 C.ar    1  UNL1        0.0695
     24 N          -4.3120    1.3308    0.4191 N.ar    1  UNL1       -0.3252
     25 C          -4.6301    0.0734    1.0394 C.3     1  UNL1        0.0512
     26 C          -5.0308   -0.9798    0.0295 C.3     1  UNL1        0.0766
     27 C          -5.3532   -2.2938    0.6966 C.3     1  UNL1       -0.0228
     28 C          -6.7854   -2.0899    1.1370 C.3     1  UNL1       -0.0271
     29 C          -7.2632   -1.0542    0.1554 C.3     1  UNL1        0.0482
     30 O          -6.2099   -0.6650   -0.6261 O.3     1  UNL1       -0.3748
     31 H          -7.2058    1.9421   -0.3312 H       1  UNL1        0.0307
     32 H          -6.8337    2.1139    1.4639 H       1  UNL1        0.0307
     33 H          -6.9022    3.5354    0.4036 H       1  UNL1        0.0307
     34 H          -2.0103    4.4953   -1.4786 H       1  UNL1        0.0640
     35 H           0.1194    3.3189   -1.4509 H       1  UNL1        0.0624
     36 H           1.4203    1.6409   -2.2577 H       1  UNL1        0.0624
     37 H           3.5111    0.3658   -2.1207 H       1  UNL1        0.0621
     38 H           4.0060   -2.3345    0.3461 H       1  UNL1        0.0476
     39 H           4.5901   -1.6328   -1.2538 H       1  UNL1        0.0476
     40 H           5.7033    0.3469   -1.1989 H       1  UNL1        0.0427
     41 H           4.7810    1.3779    0.0281 H       1  UNL1        0.0427
     42 H           7.3957    1.6347   -0.2901 H       1  UNL1        0.0278
     43 H           6.8445    1.3061    1.4452 H       1  UNL1        0.0278
     44 H           7.8232   -0.7176   -0.6362 H       1  UNL1        0.0281
     45 H           8.4304   -0.4504    1.0641 H       1  UNL1        0.0281
     46 H           6.4971   -1.3234    2.0119 H       1  UNL1        0.0485
     47 H           5.8249   -3.3892    0.9629 H       1  UNL1        0.0573
     48 H           6.4382   -2.8801   -0.6399 H       1  UNL1        0.0573
     49 H           8.5378   -2.7689    0.3279 H       1  UNL1        0.2095
     50 H           2.2108   -1.4624    1.4568 H       1  UNL1        0.0621
     51 H           0.0630   -0.1585    1.3193 H       1  UNL1        0.0624
     52 H          -1.7548    0.0168    0.4097 H       1  UNL1        0.0645
     53 H          -3.7226   -0.2986    1.5568 H       1  UNL1        0.0518
     54 H          -5.4161    0.1780    1.8136 H       1  UNL1        0.0518
     55 H          -4.2097   -1.1939   -0.6873 H       1  UNL1        0.0614
     56 H          -5.2305   -3.1564    0.0152 H       1  UNL1        0.0291
     57 H          -4.7407   -2.4083    1.6246 H       1  UNL1        0.0291
     58 H          -6.8771   -1.7963    2.1871 H       1  UNL1        0.0288
     59 H          -7.3473   -3.0432    0.9166 H       1  UNL1        0.0288
     60 H          -8.0546   -1.4703   -0.5247 H       1  UNL1        0.0560
     61 H          -7.6947   -0.1788    0.6814 H       1  UNL1        0.0560
@<TRIPOS>BOND
     1     1     2    1
     2     2     3   ar
     3     3     4   ar
     4     4     5   ar
     5     5     6   ar
     6     6     7   ar
     7     7     8    1
     8     8     9   ar
     9     9    10   ar
    10    10    11   ar
    11    11    12    1
    12    12    13    1
    13    13    14    1
    14    14    15    1
    15    15    16    1
    16    16    17    1
    17    17    18    1
    18    18    19    1
    19    11    20   ar
    20    20    21   ar
    21     7    22   ar
    22    22    23   ar
    23    23    24   ar
    24    24    25    1
    25    25    26    1
    26    26    27    1
    27    27    28    1
    28    28    29    1
    29    29    30    1
    30    24     2   ar
    31    30    26    1
    32    23     4   ar
    33    21     8   ar
    34    17    13    1
    35     1    31    1
    36     1    32    1
    37     1    33    1
    38     5    34    1
    39     6    35    1
    40     9    36    1
    41    10    37    1
    42    12    38    1
    43    12    39    1
    44    14    40    1
    45    14    41    1
    46    15    42    1
    47    15    43    1
    48    16    44    1
    49    16    45    1
    50    17    46    1
    51    18    47    1
    52    18    48    1
    53    19    49    1
    54    20    50    1
    55    21    51    1
    56    22    52    1
    57    25    53    1
    58    25    54    1
    59    26    55    1
    60    27    56    1
    61    27    57    1
    62    28    58    1
    63    28    59    1
    64    29    60    1
    65    29    61    1
