@<TRIPOS>MOLECULE
*****
 53 57 0 0 0
SMALL
GASTEIGER

@<TRIPOS>ATOM
      1 C          -3.8020   -0.9450    1.7698 C.3     1  UNL1       -0.0274
      2 C          -3.2970   -0.4061    0.4221 C.3     1  UNL1        0.1037
      3 O          -2.0233   -0.0506    0.4072 O.3     1  UNL1       -0.4725
      4 C          -1.0704    0.8450    0.2412 C.ar    1  UNL1        0.2265
      5 N           0.2373    0.4501    0.4130 N.ar    1  UNL1       -0.2121
      6 C           1.2849    1.2457    0.2769 C.ar    1  UNL1        0.0798
      7 C           2.6651    0.7696    0.4729 C.ar    1  UNL1        0.0380
      8 C           3.8288    1.4901    0.3619 C.ar    1  UNL1        0.0586
      9 N           4.8508    0.6301    0.6320 N.ar    1  UNL1       -0.1787
     10 N           4.3444   -0.5631    0.8970 N.ar    1  UNL1       -0.2655
     11 C           5.0391   -1.7870    1.2382 C.3     1  UNL1        0.0780
     12 C           6.5217   -1.5487    1.4424 C.3     1  UNL1       -0.0048
     13 C           7.0761   -2.9109    1.0961 C.3     1  UNL1        0.0498
     14 O           6.2332   -3.4997    0.1967 O.3     1  UNL1       -0.3776
     15 C           5.0929   -2.7536    0.0725 C.3     1  UNL1        0.0701
     16 C           2.9948   -0.5121    0.8074 C.ar    1  UNL1        0.0351
     17 C           1.0449    2.5578   -0.0598 C.ar    1  UNL1       -0.0076
     18 C          -0.2378    3.0205   -0.2469 C.ar    1  UNL1        0.0999
     19 N          -0.7520    4.2273   -0.5733 N.ar    1  UNL1       -0.1712
     20 N          -2.0591    4.1817   -0.6366 N.ar    1  UNL1       -0.2732
     21 C          -2.9664    5.2676   -0.9557 C.3     1  UNL1        0.0302
     22 C          -2.4458    2.9093   -0.3455 C.ar    1  UNL1        0.0380
     23 C          -1.2927    2.1618   -0.0957 C.ar    1  UNL1        0.0812
     24 C          -3.6668   -1.5138   -0.5792 C.3     1  UNL1        0.0196
     25 C          -5.1645   -1.6857   -0.5388 C.3     1  UNL1        0.0182
     26 N          -5.5615   -2.0144   -1.8953 N.am    1  UNL1       -0.3149
     27 C          -4.5697   -1.5370   -2.7959 C.2     1  UNL1        0.2135
     28 O          -4.5982   -1.4553   -4.0492 O.2     1  UNL1       -0.2758
     29 C          -3.3802   -1.1052   -1.9879 C.3     1  UNL1        0.0315
     30 H          -3.3564   -1.9546    1.8817 H       1  UNL1        0.0265
     31 H          -3.4545   -0.3329    2.6079 H       1  UNL1        0.0265
     32 H          -4.8910   -1.0622    1.7127 H       1  UNL1        0.0265
     33 H          -4.0134    0.4090    0.1816 H       1  UNL1        0.0734
     34 H           3.8994    2.5450    0.1062 H       1  UNL1        0.0854
     35 H           4.6340   -2.2627    2.1489 H       1  UNL1        0.0568
     36 H           6.8574   -0.8400    0.6437 H       1  UNL1        0.0309
     37 H           6.7704   -1.2127    2.4507 H       1  UNL1        0.0309
     38 H           7.0278   -3.5096    2.0528 H       1  UNL1        0.0560
     39 H           8.1266   -2.8833    0.8016 H       1  UNL1        0.0560
     40 H           4.1669   -3.3541   -0.0206 H       1  UNL1        0.0581
     41 H           5.1970   -2.1053   -0.8468 H       1  UNL1        0.0581
     42 H           2.2901   -1.3226    0.9667 H       1  UNL1        0.0833
     43 H           1.8713    3.2434   -0.1814 H       1  UNL1        0.0661
     44 H          -2.5149    6.2498   -0.6742 H       1  UNL1        0.0473
     45 H          -3.1525    5.3205   -2.0593 H       1  UNL1        0.0473
     46 H          -3.9174    5.1280   -0.4176 H       1  UNL1        0.0473
     47 H          -3.4523    2.5389   -0.3117 H       1  UNL1        0.0834
     48 H          -3.1864   -2.4368   -0.2542 H       1  UNL1        0.0356
     49 H          -5.6868   -0.7664   -0.1993 H       1  UNL1        0.0466
     50 H          -5.4258   -2.5530    0.1040 H       1  UNL1        0.0466
     51 H          -6.4139   -2.5131   -2.2243 H       1  UNL1        0.1487
     52 H          -2.5371   -1.7577   -2.3569 H       1  UNL1        0.0363
     53 H          -3.1653   -0.0365   -2.0998 H       1  UNL1        0.0363
@<TRIPOS>BOND
     1     1     2    1
     2     2     3    1
     3     3     4    1
     4     4     5   ar
     5     5     6   ar
     6     6     7    1
     7     7     8   ar
     8     8     9   ar
     9     9    10   ar
    10    10    11    1
    11    11    12    1
    12    12    13    1
    13    13    14    1
    14    14    15    1
    15    10    16   ar
    16     6    17   ar
    17    17    18   ar
    18    18    19   ar
    19    19    20   ar
    20    20    21    1
    21    20    22   ar
    22    22    23   ar
    23     2    24    1
    24    24    25    1
    25    25    26    1
    26    26    27   am
    27    27    28    2
    28    27    29    1
    29    23     4   ar
    30    29    24    1
    31    16     7   ar
    32    23    18   ar
    33    15    11    1
    34     1    30    1
    35     1    31    1
    36     1    32    1
    37     2    33    1
    38     8    34    1
    39    11    35    1
    40    12    36    1
    41    12    37    1
    42    13    38    1
    43    13    39    1
    44    15    40    1
    45    15    41    1
    46    16    42    1
    47    17    43    1
    48    21    44    1
    49    21    45    1
    50    21    46    1
    51    22    47    1
    52    24    48    1
    53    25    49    1
    54    25    50    1
    55    26    51    1
    56    29    52    1
    57    29    53    1
