@<TRIPOS>MOLECULE
*****
 63 67 0 0 0
SMALL
GASTEIGER

@<TRIPOS>ATOM
      1 C          -6.9680    4.7536    1.1187 C.3     1  UNL1        0.0302
      2 N          -6.2717    3.5265    0.8209 N.ar    1  UNL1       -0.2738
      3 C          -4.9642    3.3889    0.6061 C.ar    1  UNL1        0.0343
      4 C          -4.6366    2.0493    0.3496 C.ar    1  UNL1        0.0364
      5 C          -3.2795    1.6220    0.0787 C.ar    1  UNL1        0.0637
      6 C          -2.1893    2.5130    0.0339 C.ar    1  UNL1       -0.0264
      7 C          -1.0384    1.8320   -0.2214 C.ar    1  UNL1        0.0192
      8 C           0.2932    2.2605   -0.3412 C.ar    1  UNL1        0.0389
      9 N           1.2295    1.3589   -0.5733 N.ar    1  UNL1       -0.2395
     10 C           0.9560    0.0653   -0.6973 C.ar    1  UNL1        0.1249
     11 N           1.9593   -0.8966   -0.9002 N.pl3   1  UNL1       -0.2982
     12 C           3.3466   -0.7390   -0.9286 C.ar    1  UNL1        0.0510
     13 C           4.1215   -1.4177    0.0185 C.ar    1  UNL1       -0.0384
     14 C           5.4907   -1.3518    0.0415 C.ar    1  UNL1       -0.0478
     15 C           6.1684   -0.5779   -0.9161 C.ar    1  UNL1        0.0384
     16 C           7.6463   -0.5563   -0.8831 C.2     1  UNL1        0.2467
     17 O           8.2272   -0.8572   -1.9699 O.2     1  UNL1       -0.2700
     18 N           8.3904   -0.2325    0.2618 N.am    1  UNL1       -0.2974
     19 C           8.0887    0.1685    1.6397 C.3     1  UNL1        0.0164
     20 C           9.5419    0.3094    1.9819 C.3     1  UNL1       -0.0213
     21 C           9.7854   -0.1759    0.5768 C.3     1  UNL1        0.0164
     22 C           5.4245    0.0871   -1.8392 C.ar    1  UNL1       -0.0295
     23 C           4.0397   -0.0012   -1.8336 C.ar    1  UNL1        0.0628
     24 CL          3.1643    0.8796   -3.0523 Cl      1  UNL1       -0.0816
     25 C          -0.3635   -0.3679   -0.5809 C.ar    1  UNL1        0.0031
     26 C          -1.3868    0.5187   -0.3390 C.ar    1  UNL1        0.0649
     27 N          -2.7450    0.4185   -0.1536 N.ar    1  UNL1       -0.2454
     28 C          -3.3726   -0.8480   -0.2365 C.2     1  UNL1        0.4209
     29 O          -2.6490   -1.8719   -0.5573 O.2     1  UNL1       -0.2227
     30 O          -4.6616   -1.2002   -0.0251 O.3     1  UNL1       -0.4424
     31 C          -5.1494   -2.5242   -0.1451 C.3     1  UNL1        0.1070
     32 C          -6.6077   -2.5954    0.1811 C.3     1  UNL1       -0.0253
     33 C          -4.3586   -3.4215    0.7693 C.3     1  UNL1       -0.0253
     34 C          -4.9998   -2.9766   -1.5900 C.3     1  UNL1       -0.0253
     35 C          -5.8363    1.4260    0.4311 C.ar    1  UNL1        0.0585
     36 N          -6.8280    2.3500    0.7206 N.ar    1  UNL1       -0.1792
     37 H          -7.0181    4.9660    2.2061 H       1  UNL1        0.0473
     38 H          -7.9564    4.7944    0.6187 H       1  UNL1        0.0473
     39 H          -6.3618    5.5892    0.6621 H       1  UNL1        0.0473
     40 H          -4.2545    4.2019    0.6291 H       1  UNL1        0.0833
     41 H          -2.2723    3.5724    0.1815 H       1  UNL1        0.0645
     42 H           0.4529    3.3385   -0.2313 H       1  UNL1        0.0837
     43 H           1.6201   -1.9122   -1.0638 H       1  UNL1        0.1536
     44 H           3.5975   -2.0236    0.7698 H       1  UNL1        0.0637
     45 H           6.1167   -1.8620    0.7568 H       1  UNL1        0.0626
     46 H           7.5688    1.1567    1.5835 H       1  UNL1        0.0465
     47 H           7.5991   -0.5914    2.2451 H       1  UNL1        0.0465
     48 H           9.8920   -0.3763    2.7812 H       1  UNL1        0.0296
     49 H           9.8545    1.3520    2.1843 H       1  UNL1        0.0296
     50 H          10.3441    0.5585   -0.0177 H       1  UNL1        0.0465
     51 H          10.2550   -1.1924    0.5854 H       1  UNL1        0.0465
     52 H           5.9136    0.6996   -2.5978 H       1  UNL1        0.0640
     53 H          -0.5880   -1.4325   -0.6829 H       1  UNL1        0.0673
     54 H          -6.8996   -1.8833    0.9999 H       1  UNL1        0.0268
     55 H          -7.2542   -2.3880   -0.6964 H       1  UNL1        0.0268
     56 H          -6.8891   -3.6281    0.5343 H       1  UNL1        0.0268
     57 H          -4.9625   -4.2266    1.2311 H       1  UNL1        0.0268
     58 H          -3.8531   -2.8383    1.5643 H       1  UNL1        0.0268
     59 H          -3.5155   -3.9213    0.2058 H       1  UNL1        0.0268
     60 H          -4.1537   -3.6769   -1.6451 H       1  UNL1        0.0268
     61 H          -4.8122   -2.0969   -2.2233 H       1  UNL1        0.0268
     62 H          -5.9088   -3.5185   -1.9375 H       1  UNL1        0.0268
     63 H          -6.0819    0.4231    0.3039 H       1  UNL1        0.0854
@<TRIPOS>BOND
     1     1     2    1
     2     2     3   ar
     3     3     4   ar
     4     4     5    1
     5     5     6   ar
     6     6     7   ar
     7     7     8   ar
     8     8     9   ar
     9     9    10   ar
    10    10    11    1
    11    11    12    1
    12    12    13   ar
    13    13    14   ar
    14    14    15   ar
    15    15    16    1
    16    16    17    2
    17    16    18   am
    18    18    19    1
    19    19    20    1
    20    20    21    1
    21    15    22   ar
    22    22    23   ar
    23    23    24    1
    24    10    25   ar
    25    25    26   ar
    26    26    27   ar
    27    27    28   am
    28    28    29    2
    29    28    30    1
    30    30    31    1
    31    31    32    1
    32    31    33    1
    33    31    34    1
    34     4    35   ar
    35    35    36   ar
    36    36     2   ar
    37    27     5   ar
    38    26     7   ar
    39    23    12   ar
    40    21    18    1
    41     1    37    1
    42     1    38    1
    43     1    39    1
    44     3    40    1
    45     6    41    1
    46     8    42    1
    47    11    43    1
    48    13    44    1
    49    14    45    1
    50    19    46    1
    51    19    47    1
    52    20    48    1
    53    20    49    1
    54    21    50    1
    55    21    51    1
    56    22    52    1
    57    25    53    1
    58    32    54    1
    59    32    55    1
    60    32    56    1
    61    33    57    1
    62    33    58    1
    63    33    59    1
    64    34    60    1
    65    34    61    1
    66    34    62    1
    67    35    63    1
