@<TRIPOS>MOLECULE
*****
 32 33 0 0 0
SMALL
GASTEIGER

@<TRIPOS>ATOM
      1 O          -1.5488    2.5104   -0.6618 O.2     1  UNL1       -0.2872
      2 C          -1.3627    1.2066   -0.3472 C.2     1  UNL1        0.1897
      3 C           0.0080    0.8612   -0.3385 C.2     1  UNL1       -0.0137
      4 C           0.6946   -0.1979   -0.0307 C.2     1  UNL1       -0.0508
      5 C           2.1694   -0.2981   -0.1229 C.ar    1  UNL1       -0.0212
      6 C           2.7895   -1.4748    0.2304 C.ar    1  UNL1       -0.0509
      7 C           4.1471   -1.6759    0.1832 C.ar    1  UNL1       -0.0160
      8 C           4.9342   -0.6200   -0.2492 C.ar    1  UNL1        0.1582
      9 O           6.3281   -0.7977   -0.3077 O.3     1  UNL1       -0.5033
     10 C           4.3527    0.5747   -0.6121 C.ar    1  UNL1        0.1588
     11 O           5.1350    1.6216   -1.0410 O.3     1  UNL1       -0.5033
     12 C           2.9534    0.7312   -0.5459 C.ar    1  UNL1       -0.0094
     13 C          -2.6242    0.5666   -0.1121 C.ar    1  UNL1        0.0665
     14 C          -3.7263    1.4233    0.2013 C.ar    1  UNL1       -0.0059
     15 C          -4.9326    0.8667    0.5503 C.ar    1  UNL1        0.1178
     16 O          -6.0256    1.6761    0.8613 O.3     1  UNL1       -0.5067
     17 C          -5.1188   -0.4945    0.6092 C.ar    1  UNL1       -0.0167
     18 C          -4.0755   -1.3324    0.3107 C.ar    1  UNL1       -0.0160
     19 C          -2.8310   -0.7807   -0.0511 C.ar    1  UNL1        0.1279
     20 O          -1.8338   -1.6683   -0.3525 O.3     1  UNL1       -0.5061
     21 H           0.6900    1.6984   -0.6833 H       1  UNL1        0.0656
     22 H           0.1569   -1.0344    0.3659 H       1  UNL1        0.0625
     23 H           2.1752   -2.2928    0.5658 H       1  UNL1        0.0625
     24 H           4.6102   -2.6195    0.4694 H       1  UNL1        0.0655
     25 H           6.7103   -1.7334   -0.3733 H       1  UNL1        0.2923
     26 H           5.3237    2.4364   -0.4870 H       1  UNL1        0.2923
     27 H           2.5828    1.6965   -0.8475 H       1  UNL1        0.0661
     28 H          -3.6117    2.4974    0.1674 H       1  UNL1        0.0662
     29 H          -6.2652    1.8978    1.8292 H       1  UNL1        0.2921
     30 H          -6.0817   -0.8885    0.8891 H       1  UNL1        0.0655
     31 H          -4.1555   -2.4080    0.3378 H       1  UNL1        0.0655
     32 H          -1.5677   -1.9480   -1.2892 H       1  UNL1        0.2922
@<TRIPOS>BOND
     1     1     2    2
     2     2     3    1
     3     3     4    2
     4     4     5    1
     5     5     6   ar
     6     6     7   ar
     7     7     8   ar
     8     8     9    1
     9     8    10   ar
    10    10    11    1
    11    10    12   ar
    12     2    13    1
    13    13    14   ar
    14    14    15   ar
    15    15    16    1
    16    15    17   ar
    17    17    18   ar
    18    18    19   ar
    19    19    20    1
    20    12     5   ar
    21    19    13   ar
    22     3    21    1
    23     4    22    1
    24     6    23    1
    25     7    24    1
    26     9    25    1
    27    11    26    1
    28    12    27    1
    29    14    28    1
    30    16    29    1
    31    17    30    1
    32    18    31    1
    33    20    32    1
