
     RDKit          3D

 32 33  0  0  0  0  0  0  0  0999 V2000
   -1.5488    2.5104   -0.6618 O   0  0  0  0  0  0  0  0  0  0  0  0
   -1.3627    1.2066   -0.3472 C   0  0  0  0  0  0  0  0  0  0  0  0
    0.0080    0.8612   -0.3385 C   0  0  0  0  0  0  0  0  0  0  0  0
    0.6946   -0.1979   -0.0307 C   0  0  0  0  0  0  0  0  0  0  0  0
    2.1694   -0.2981   -0.1229 C   0  0  0  0  0  0  0  0  0  0  0  0
    2.7895   -1.4748    0.2304 C   0  0  0  0  0  0  0  0  0  0  0  0
    4.1471   -1.6759    0.1832 C   0  0  0  0  0  0  0  0  0  0  0  0
    4.9342   -0.6200   -0.2492 C   0  0  0  0  0  0  0  0  0  0  0  0
    6.3281   -0.7977   -0.3077 O   0  0  0  0  0  0  0  0  0  0  0  0
    4.3527    0.5747   -0.6121 C   0  0  0  0  0  0  0  0  0  0  0  0
    5.1350    1.6216   -1.0410 O   0  0  0  0  0  0  0  0  0  0  0  0
    2.9534    0.7312   -0.5459 C   0  0  0  0  0  0  0  0  0  0  0  0
   -2.6242    0.5666   -0.1121 C   0  0  0  0  0  0  0  0  0  0  0  0
   -3.7263    1.4233    0.2013 C   0  0  0  0  0  0  0  0  0  0  0  0
   -4.9326    0.8667    0.5503 C   0  0  0  0  0  0  0  0  0  0  0  0
   -6.0256    1.6761    0.8613 O   0  0  0  0  0  0  0  0  0  0  0  0
   -5.1188   -0.4945    0.6092 C   0  0  0  0  0  0  0  0  0  0  0  0
   -4.0755   -1.3324    0.3107 C   0  0  0  0  0  0  0  0  0  0  0  0
   -2.8310   -0.7807   -0.0511 C   0  0  0  0  0  0  0  0  0  0  0  0
   -1.8338   -1.6683   -0.3525 O   0  0  0  0  0  0  0  0  0  0  0  0
    0.6900    1.6984   -0.6833 H   0  0  0  0  0  0  0  0  0  0  0  0
    0.1569   -1.0344    0.3659 H   0  0  0  0  0  0  0  0  0  0  0  0
    2.1752   -2.2928    0.5658 H   0  0  0  0  0  0  0  0  0  0  0  0
    4.6102   -2.6195    0.4694 H   0  0  0  0  0  0  0  0  0  0  0  0
    6.7103   -1.7334   -0.3733 H   0  0  0  0  0  0  0  0  0  0  0  0
    5.3237    2.4364   -0.4870 H   0  0  0  0  0  0  0  0  0  0  0  0
    2.5828    1.6965   -0.8475 H   0  0  0  0  0  0  0  0  0  0  0  0
   -3.6117    2.4974    0.1674 H   0  0  0  0  0  0  0  0  0  0  0  0
   -6.2652    1.8978    1.8292 H   0  0  0  0  0  0  0  0  0  0  0  0
   -6.0817   -0.8885    0.8891 H   0  0  0  0  0  0  0  0  0  0  0  0
   -4.1555   -2.4080    0.3378 H   0  0  0  0  0  0  0  0  0  0  0  0
   -1.5677   -1.9480   -1.2892 H   0  0  0  0  0  0  0  0  0  0  0  0
  1  2  2  0
  2  3  1  0
  3  4  2  0
  4  5  1  0
  5  6  2  0
  6  7  1  0
  7  8  2  0
  8  9  1  0
  8 10  1  0
 10 11  1  0
 10 12  2  0
  2 13  1  0
 13 14  2  0
 14 15  1  0
 15 16  1  0
 15 17  2  0
 17 18  1  0
 18 19  2  0
 19 20  1  0
 12  5  1  0
 19 13  1  0
  3 21  1  0
  4 22  1  0
  6 23  1  0
  7 24  1  0
  9 25  1  0
 11 26  1  0
 12 27  1  0
 14 28  1  0
 16 29  1  0
 17 30  1  0
 18 31  1  0
 20 32  1  0
M  END
$$$$
