@<TRIPOS>MOLECULE
*****
 51 53 0 0 0
SMALL
GASTEIGER

@<TRIPOS>ATOM
      1 C          -5.6116   -0.3865   -0.5395 C.3     1  UNL1       -0.0288
      2 C          -4.5473    0.6987   -0.5304 C.3     1  UNL1        0.1831
      3 C          -5.2368    2.0426   -0.8793 C.3     1  UNL1       -0.0288
      4 C          -3.8722    0.8077    0.7576 C.2     1  UNL1        0.3067
      5 N          -4.4144    1.7030    1.7470 N.pl3   1  UNL1       -0.2488
      6 N          -2.8379    0.1559    1.0450 N.2     1  UNL1       -0.0727
      7 C          -2.1539   -0.7799    0.1935 C.3     1  UNL1        0.1959
      8 C          -2.9218   -2.0787    0.0908 C.3     1  UNL1       -0.0112
      9 C          -0.8878   -1.0981    0.9122 C.ar    1  UNL1        0.0420
     10 C           0.3665   -0.8791    0.4265 C.ar    1  UNL1       -0.0301
     11 C           1.5191   -1.1896    1.1256 C.ar    1  UNL1        0.0343
     12 N           2.8123   -0.9449    0.5826 N.am    1  UNL1       -0.2802
     13 C           3.4912    0.2790    0.7860 C.2     1  UNL1        0.2681
     14 O           2.8969    1.1492    1.4738 O.2     1  UNL1       -0.2681
     15 C           4.8304    0.5354    0.2249 C.ar    1  UNL1        0.1437
     16 C           5.4853    1.7280    0.4265 C.ar    1  UNL1        0.0587
     17 N           6.7129    1.9697   -0.0848 N.ar    1  UNL1       -0.2473
     18 C           7.3380    1.0369   -0.8160 C.ar    1  UNL1        0.1616
     19 C           8.6965    1.3207   -1.3746 C.3     1  UNL1        0.4357
     20 F           8.6097    1.6799   -2.7089 F       1  UNL1       -0.1644
     21 F           9.4689    0.1774   -1.3141 F       1  UNL1       -0.1644
     22 F           9.3230    2.3233   -0.6829 F       1  UNL1       -0.1644
     23 C           6.6986   -0.1626   -1.0285 C.ar    1  UNL1        0.0585
     24 N           5.4606   -0.3958   -0.5081 N.ar    1  UNL1       -0.2467
     25 C           1.3618   -1.7487    2.3768 C.ar    1  UNL1       -0.0377
     26 C           0.1185   -1.9927    2.9183 C.ar    1  UNL1       -0.0243
     27 C          -1.0145   -1.6584    2.1659 C.ar    1  UNL1        0.1311
     28 F          -2.2368   -1.8988    2.6997 F       1  UNL1       -0.2050
     29 C          -1.8886   -0.2175   -1.1792 C.3     1  UNL1        0.1183
     30 S          -3.4079    0.4025   -1.8378 S.O2    1  UNL1       -0.0101
     31 O          -3.1043    1.6922   -2.5555 O.2     1  UNL1       -0.1731
     32 O          -4.0280   -0.5896   -2.7904 O.2     1  UNL1       -0.1731
     33 H          -5.7347   -0.8759    0.4450 H       1  UNL1        0.0256
     34 H          -6.5877    0.0947   -0.7548 H       1  UNL1        0.0256
     35 H          -5.4627   -1.1266   -1.3432 H       1  UNL1        0.0256
     36 H          -5.9839    2.2998   -0.1208 H       1  UNL1        0.0256
     37 H          -4.4220    2.7663   -0.9852 H       1  UNL1        0.0256
     38 H          -5.7467    1.8564   -1.8464 H       1  UNL1        0.0256
     39 H          -4.5939    2.6851    1.5081 H       1  UNL1        0.2881
     40 H          -4.6265    1.3610    2.7059 H       1  UNL1        0.2881
     41 H          -2.2716   -2.9658    0.3388 H       1  UNL1        0.0279
     42 H          -3.3690   -2.1820   -0.9133 H       1  UNL1        0.0279
     43 H          -3.7493   -2.1384    0.8259 H       1  UNL1        0.0279
     44 H           0.4796   -0.4500   -0.5351 H       1  UNL1        0.0641
     45 H           3.2882   -1.6810    0.0143 H       1  UNL1        0.1552
     46 H           4.9915    2.4849    1.0130 H       1  UNL1        0.0853
     47 H           7.2164   -0.9043   -1.6204 H       1  UNL1        0.0851
     48 H           2.2713   -1.9938    2.9287 H       1  UNL1        0.0637
     49 H          -0.0057   -2.4344    3.9066 H       1  UNL1        0.0647
     50 H          -1.1465    0.5825   -1.1851 H       1  UNL1        0.0550
     51 H          -1.5730   -1.0592   -1.8445 H       1  UNL1        0.0550
@<TRIPOS>BOND
     1     1     2    1
     2     2     3    1
     3     2     4    1
     4     4     5    1
     5     4     6    2
     6     6     7    1
     7     7     8    1
     8     7     9    1
     9     9    10   ar
    10    10    11   ar
    11    11    12    1
    12    12    13   am
    13    13    14    2
    14    13    15    1
    15    15    16   ar
    16    16    17   ar
    17    17    18   ar
    18    18    19    1
    19    19    20    1
    20    19    21    1
    21    19    22    1
    22    18    23   ar
    23    23    24   ar
    24    11    25   ar
    25    25    26   ar
    26    26    27   ar
    27    27    28    1
    28     7    29    1
    29    29    30    1
    30    30    31    2
    31    30    32    2
    32    30     2    1
    33    27     9   ar
    34    24    15   ar
    35     1    33    1
    36     1    34    1
    37     1    35    1
    38     3    36    1
    39     3    37    1
    40     3    38    1
    41     5    39    1
    42     5    40    1
    43     8    41    1
    44     8    42    1
    45     8    43    1
    46    10    44    1
    47    12    45    1
    48    16    46    1
    49    23    47    1
    50    25    48    1
    51    26    49    1
    52    29    50    1
    53    29    51    1
