
     RDKit          3D

 38 39  0  0  0  0  0  0  0  0999 V2000
    5.6208   -1.0239    0.7386 C   0  0  0  0  0  0  0  0  0  0  0  0
    5.3114    0.4431    0.8626 C   0  0  0  0  0  0  0  0  0  0  0  0
    4.1244    0.7959    0.1445 O   0  0  0  0  0  0  0  0  0  0  0  0
    2.9502    0.1702    0.5191 C   0  0  0  0  0  0  0  0  0  0  0  0
    3.0771   -0.6480    1.4645 O   0  0  0  0  0  0  0  0  0  0  0  0
    1.6727    0.4368   -0.1278 C   0  0  0  0  0  0  0  0  0  0  0  0
    0.4862   -0.1593    0.2104 C   0  0  0  0  0  0  0  0  0  0  0  0
    0.1741   -1.1724    1.2524 C   0  0  0  0  0  0  0  0  0  0  0  0
   -0.3950    0.4095   -0.6640 N   0  0  0  0  0  0  0  0  0  0  0  0
    0.2077    1.2763   -1.4636 N   0  0  0  0  0  0  0  0  0  0  0  0
    1.5206    1.3323   -1.1660 C   0  0  0  0  0  0  0  0  0  0  0  0
    2.5213    2.1851   -1.8408 C   0  0  0  0  0  0  0  0  0  0  0  0
   -1.7959    0.0827   -0.6843 C   0  0  0  0  0  0  0  0  0  0  0  0
   -2.4915    0.6387    0.3757 C   0  0  0  0  0  0  0  0  0  0  0  0
   -3.8515    0.3975    0.4692 C   0  0  0  0  0  0  0  0  0  0  0  0
   -4.4753   -0.3891   -0.4950 C   0  0  0  0  0  0  0  0  0  0  0  0
   -5.8334   -0.6579   -0.4431 O   0  0  0  0  0  0  0  0  0  0  0  0
   -6.6210   -0.1238    0.6148 C   0  0  0  0  0  0  0  0  0  0  0  0
   -3.7577   -0.9301   -1.5398 C   0  0  0  0  0  0  0  0  0  0  0  0
   -2.3856   -0.6910   -1.6406 C   0  0  0  0  0  0  0  0  0  0  0  0
    5.1684   -1.5025   -0.1410 H   0  0  0  0  0  0  0  0  0  0  0  0
    5.3019   -1.5766    1.6386 H   0  0  0  0  0  0  0  0  0  0  0  0
    6.7177   -1.1455    0.6675 H   0  0  0  0  0  0  0  0  0  0  0  0
    6.0963    1.1131    0.5161 H   0  0  0  0  0  0  0  0  0  0  0  0
    5.1788    0.6521    1.9560 H   0  0  0  0  0  0  0  0  0  0  0  0
    1.0476   -1.8073    1.4578 H   0  0  0  0  0  0  0  0  0  0  0  0
   -0.2074   -0.7062    2.1940 H   0  0  0  0  0  0  0  0  0  0  0  0
   -0.6081   -1.8867    0.8616 H   0  0  0  0  0  0  0  0  0  0  0  0
    3.4782    1.6702   -1.9246 H   0  0  0  0  0  0  0  0  0  0  0  0
    2.5686    3.1373   -1.2770 H   0  0  0  0  0  0  0  0  0  0  0  0
    2.1654    2.4422   -2.8479 H   0  0  0  0  0  0  0  0  0  0  0  0
   -2.0749    1.2509    1.1490 H   0  0  0  0  0  0  0  0  0  0  0  0
   -4.4982    0.7700    1.2394 H   0  0  0  0  0  0  0  0  0  0  0  0
   -6.6524    0.9864    0.5682 H   0  0  0  0  0  0  0  0  0  0  0  0
   -7.6206   -0.5964    0.5020 H   0  0  0  0  0  0  0  0  0  0  0  0
   -6.1806   -0.3797    1.5995 H   0  0  0  0  0  0  0  0  0  0  0  0
   -4.2014   -1.5570   -2.3262 H   0  0  0  0  0  0  0  0  0  0  0  0
   -1.7387   -1.0693   -2.4197 H   0  0  0  0  0  0  0  0  0  0  0  0
  1  2  1  0
  2  3  1  0
  3  4  1  0
  4  5  2  0
  4  6  1  0
  6  7  2  0
  7  8  1  0
  7  9  1  0
  9 10  1  0
 10 11  2  0
 11 12  1  0
  9 13  1  0
 13 14  2  0
 14 15  1  0
 15 16  2  0
 16 17  1  0
 17 18  1  0
 16 19  1  0
 19 20  2  0
 11  6  1  0
 20 13  1  0
  1 21  1  0
  1 22  1  0
  1 23  1  0
  2 24  1  0
  2 25  1  0
  8 26  1  0
  8 27  1  0
  8 28  1  0
 12 29  1  0
 12 30  1  0
 12 31  1  0
 14 32  1  0
 15 33  1  0
 18 34  1  0
 18 35  1  0
 18 36  1  0
 19 37  1  0
 20 38  1  0
M  END
$$$$
