@<TRIPOS>MOLECULE
*****
 61 66 0 0 0
SMALL
GASTEIGER

@<TRIPOS>ATOM
      1 C          10.3663    2.1268   -0.8162 C.3     1  UNL1        0.0805
      2 O           9.5319    1.8414    0.2909 O.3     1  UNL1       -0.4786
      3 C           8.3086    1.2289    0.0384 C.ar    1  UNL1        0.2332
      4 C           7.5021    0.9553    1.1286 C.ar    1  UNL1        0.0899
      5 N           6.3174    0.3621    0.8835 N.ar    1  UNL1       -0.2435
      6 C           5.8997    0.0339   -0.3519 C.ar    1  UNL1        0.1439
      7 C           4.5783   -0.6125   -0.4829 C.2     1  UNL1        0.2681
      8 O           4.1391   -0.9405   -1.6156 O.2     1  UNL1       -0.2681
      9 N           3.7643   -0.8862    0.6342 N.am    1  UNL1       -0.2802
     10 C           2.4908   -1.5043    0.5528 C.ar    1  UNL1        0.0343
     11 C           2.2984   -2.8878    0.6185 C.ar    1  UNL1       -0.0370
     12 C           1.0739   -3.4537    0.5376 C.ar    1  UNL1       -0.0172
     13 C          -0.0591   -2.6435    0.3821 C.ar    1  UNL1        0.1346
     14 C           0.0675   -1.2994    0.3124 C.ar    1  UNL1        0.0287
     15 C           1.3625   -0.7499    0.4009 C.ar    1  UNL1       -0.0312
     16 C          -1.0715   -0.3792    0.1400 C.3     1  UNL1        0.1265
     17 C          -0.8863    0.4985   -1.0528 C.3     1  UNL1        0.0155
     18 C          -1.0084    1.9494   -0.7938 C.3     1  UNL1        0.0953
     19 O          -0.3768    2.2990    0.4190 O.2     1  UNL1       -0.4658
     20 C          -0.8374    1.6008    1.5501 C.2     1  UNL1        0.2763
     21 N          -0.9636    2.2002    2.8331 N.pl3   1  UNL1       -0.3134
     22 N          -1.1355    0.3941    1.3568 N.2     1  UNL1       -0.2205
     23 C          -2.3496   -1.1249    0.0771 C.ar    1  UNL1        0.0334
     24 C          -3.5600   -0.4149   -0.0749 C.ar    1  UNL1       -0.0264
     25 C          -4.7738   -1.0408   -0.1475 C.ar    1  UNL1        0.0726
     26 C          -5.9964   -0.2796   -0.3054 C.2     1  UNL1       -0.0003
     27 C          -7.1913   -0.8683   -0.3739 C.2     1  UNL1       -0.0745
     28 C          -8.4695   -0.1322   -0.5350 C.3     1  UNL1       -0.0105
     29 C          -8.1781    1.3053   -0.0838 C.3     1  UNL1        0.0515
     30 O          -7.1174    1.7570   -0.8521 O.3     1  UNL1       -0.3748
     31 C          -5.9319    1.1966   -0.3960 C.3     1  UNL1        0.0744
     32 N          -4.7946   -2.3767   -0.0694 N.ar    1  UNL1       -0.2163
     33 C          -3.6675   -3.0951    0.0762 C.ar    1  UNL1        0.2566
     34 F          -3.6971   -4.4455    0.1546 F       1  UNL1       -0.1799
     35 C          -2.4084   -2.4738    0.1533 C.ar    1  UNL1        0.1883
     36 O          -1.2793   -3.2889    0.3074 O.3     1  UNL1       -0.4508
     37 C           6.6945    0.3044   -1.4177 C.ar    1  UNL1        0.0619
     38 N           7.8960    0.9030   -1.1993 N.ar    1  UNL1       -0.2178
     39 H          11.3340    2.4576   -0.4334 H       1  UNL1        0.0660
     40 H           9.9460    2.9180   -1.4570 H       1  UNL1        0.0660
     41 H          10.5009    1.1930   -1.4058 H       1  UNL1        0.0660
     42 H           7.7711    1.1893    2.1428 H       1  UNL1        0.0884
     43 H           4.1619   -0.5978    1.5779 H       1  UNL1        0.1552
     44 H           3.2096   -3.4761    0.7398 H       1  UNL1        0.0637
     45 H           0.9341   -4.5115    0.5885 H       1  UNL1        0.0655
     46 H           1.4342    0.3026    0.3425 H       1  UNL1        0.0641
     47 H          -1.5237    0.1611   -1.9194 H       1  UNL1        0.0328
     48 H           0.1962    0.3437   -1.3813 H       1  UNL1        0.0328
     49 H          -2.0550    2.3425   -0.8034 H       1  UNL1        0.0698
     50 H          -0.4239    2.5245   -1.5811 H       1  UNL1        0.0698
     51 H          -1.7368    2.8445    3.0166 H       1  UNL1        0.1466
     52 H          -0.2557    1.9625    3.5578 H       1  UNL1        0.1466
     53 H          -3.4868    0.6617   -0.1262 H       1  UNL1        0.0644
     54 H          -7.1756   -1.9614   -0.3020 H       1  UNL1        0.0577
     55 H          -9.1729   -0.5736    0.2273 H       1  UNL1        0.0330
     56 H          -8.8671   -0.1675   -1.5520 H       1  UNL1        0.0330
     57 H          -9.0852    1.9078   -0.1923 H       1  UNL1        0.0563
     58 H          -7.8202    1.2254    0.9662 H       1  UNL1        0.0563
     59 H          -5.0855    1.4822   -1.0729 H       1  UNL1        0.0610
     60 H          -5.7184    1.6599    0.5921 H       1  UNL1        0.0610
     61 H           6.3812    0.0524   -2.4013 H       1  UNL1        0.0854
@<TRIPOS>BOND
     1     1     2    1
     2     2     3    1
     3     3     4   ar
     4     4     5   ar
     5     5     6   ar
     6     6     7    1
     7     7     8    2
     8     7     9   am
     9     9    10    1
    10    10    11   ar
    11    11    12   ar
    12    12    13   ar
    13    13    14   ar
    14    14    15   ar
    15    14    16    1
    16    16    17    1
    17    17    18    1
    18    18    19    1
    19    19    20    1
    20    20    21    1
    21    20    22    2
    22    16    23    1
    23    23    24   ar
    24    24    25   ar
    25    25    26    1
    26    26    27    2
    27    27    28    1
    28    28    29    1
    29    29    30    1
    30    30    31    1
    31    25    32   ar
    32    32    33   ar
    33    33    34    1
    34    33    35   ar
    35    35    36    1
    36     6    37   ar
    37    37    38   ar
    38    38     3   ar
    39    15    10   ar
    40    22    16    1
    41    35    23   ar
    42    36    13    1
    43    31    26    1
    44     1    39    1
    45     1    40    1
    46     1    41    1
    47     4    42    1
    48     9    43    1
    49    11    44    1
    50    12    45    1
    51    15    46    1
    52    17    47    1
    53    17    48    1
    54    18    49    1
    55    18    50    1
    56    21    51    1
    57    21    52    1
    58    24    53    1
    59    27    54    1
    60    28    55    1
    61    28    56    1
    62    29    57    1
    63    29    58    1
    64    31    59    1
    65    31    60    1
    66    37    61    1
