
     RDKit          3D

 61 66  0  0  0  0  0  0  0  0999 V2000
   10.3663    2.1268   -0.8162 C   0  0  0  0  0  0  0  0  0  0  0  0
    9.5319    1.8414    0.2909 O   0  0  0  0  0  0  0  0  0  0  0  0
    8.3086    1.2289    0.0384 C   0  0  0  0  0  0  0  0  0  0  0  0
    7.5021    0.9553    1.1286 C   0  0  0  0  0  0  0  0  0  0  0  0
    6.3174    0.3621    0.8835 N   0  0  0  0  0  0  0  0  0  0  0  0
    5.8997    0.0339   -0.3519 C   0  0  0  0  0  0  0  0  0  0  0  0
    4.5783   -0.6125   -0.4829 C   0  0  0  0  0  0  0  0  0  0  0  0
    4.1391   -0.9405   -1.6156 O   0  0  0  0  0  0  0  0  0  0  0  0
    3.7643   -0.8862    0.6342 N   0  0  0  0  0  0  0  0  0  0  0  0
    2.4908   -1.5043    0.5528 C   0  0  0  0  0  0  0  0  0  0  0  0
    2.2984   -2.8878    0.6185 C   0  0  0  0  0  0  0  0  0  0  0  0
    1.0739   -3.4537    0.5376 C   0  0  0  0  0  0  0  0  0  0  0  0
   -0.0591   -2.6435    0.3821 C   0  0  0  0  0  0  0  0  0  0  0  0
    0.0675   -1.2994    0.3124 C   0  0  0  0  0  0  0  0  0  0  0  0
    1.3625   -0.7499    0.4009 C   0  0  0  0  0  0  0  0  0  0  0  0
   -1.0715   -0.3792    0.1400 C   0  0  0  0  0  0  0  0  0  0  0  0
   -0.8863    0.4985   -1.0528 C   0  0  0  0  0  0  0  0  0  0  0  0
   -1.0084    1.9494   -0.7938 C   0  0  0  0  0  0  0  0  0  0  0  0
   -0.3768    2.2990    0.4190 O   0  0  0  0  0  0  0  0  0  0  0  0
   -0.8374    1.6008    1.5501 C   0  0  0  0  0  0  0  0  0  0  0  0
   -0.9636    2.2002    2.8331 N   0  0  0  0  0  0  0  0  0  0  0  0
   -1.1355    0.3941    1.3568 N   0  0  0  0  0  0  0  0  0  0  0  0
   -2.3496   -1.1249    0.0771 C   0  0  0  0  0  0  0  0  0  0  0  0
   -3.5600   -0.4149   -0.0749 C   0  0  0  0  0  0  0  0  0  0  0  0
   -4.7738   -1.0408   -0.1475 C   0  0  0  0  0  0  0  0  0  0  0  0
   -5.9964   -0.2796   -0.3054 C   0  0  0  0  0  0  0  0  0  0  0  0
   -7.1913   -0.8683   -0.3739 C   0  0  0  0  0  0  0  0  0  0  0  0
   -8.4695   -0.1322   -0.5350 C   0  0  0  0  0  0  0  0  0  0  0  0
   -8.1781    1.3053   -0.0838 C   0  0  0  0  0  0  0  0  0  0  0  0
   -7.1174    1.7570   -0.8521 O   0  0  0  0  0  0  0  0  0  0  0  0
   -5.9319    1.1966   -0.3960 C   0  0  0  0  0  0  0  0  0  0  0  0
   -4.7946   -2.3767   -0.0694 N   0  0  0  0  0  0  0  0  0  0  0  0
   -3.6675   -3.0951    0.0762 C   0  0  0  0  0  0  0  0  0  0  0  0
   -3.6971   -4.4455    0.1546 F   0  0  0  0  0  0  0  0  0  0  0  0
   -2.4084   -2.4738    0.1533 C   0  0  0  0  0  0  0  0  0  0  0  0
   -1.2793   -3.2889    0.3074 O   0  0  0  0  0  0  0  0  0  0  0  0
    6.6945    0.3044   -1.4177 C   0  0  0  0  0  0  0  0  0  0  0  0
    7.8960    0.9030   -1.1993 N   0  0  0  0  0  0  0  0  0  0  0  0
   11.3340    2.4576   -0.4334 H   0  0  0  0  0  0  0  0  0  0  0  0
    9.9460    2.9180   -1.4570 H   0  0  0  0  0  0  0  0  0  0  0  0
   10.5009    1.1930   -1.4058 H   0  0  0  0  0  0  0  0  0  0  0  0
    7.7711    1.1893    2.1428 H   0  0  0  0  0  0  0  0  0  0  0  0
    4.1619   -0.5978    1.5779 H   0  0  0  0  0  0  0  0  0  0  0  0
    3.2096   -3.4761    0.7398 H   0  0  0  0  0  0  0  0  0  0  0  0
    0.9341   -4.5115    0.5885 H   0  0  0  0  0  0  0  0  0  0  0  0
    1.4342    0.3026    0.3425 H   0  0  0  0  0  0  0  0  0  0  0  0
   -1.5237    0.1611   -1.9194 H   0  0  0  0  0  0  0  0  0  0  0  0
    0.1962    0.3437   -1.3813 H   0  0  0  0  0  0  0  0  0  0  0  0
   -2.0550    2.3425   -0.8034 H   0  0  0  0  0  0  0  0  0  0  0  0
   -0.4239    2.5245   -1.5811 H   0  0  0  0  0  0  0  0  0  0  0  0
   -1.7368    2.8445    3.0166 H   0  0  0  0  0  0  0  0  0  0  0  0
   -0.2557    1.9625    3.5578 H   0  0  0  0  0  0  0  0  0  0  0  0
   -3.4868    0.6617   -0.1262 H   0  0  0  0  0  0  0  0  0  0  0  0
   -7.1756   -1.9614   -0.3020 H   0  0  0  0  0  0  0  0  0  0  0  0
   -9.1729   -0.5736    0.2273 H   0  0  0  0  0  0  0  0  0  0  0  0
   -8.8671   -0.1675   -1.5520 H   0  0  0  0  0  0  0  0  0  0  0  0
   -9.0852    1.9078   -0.1923 H   0  0  0  0  0  0  0  0  0  0  0  0
   -7.8202    1.2254    0.9662 H   0  0  0  0  0  0  0  0  0  0  0  0
   -5.0855    1.4822   -1.0729 H   0  0  0  0  0  0  0  0  0  0  0  0
   -5.7184    1.6599    0.5921 H   0  0  0  0  0  0  0  0  0  0  0  0
    6.3812    0.0524   -2.4013 H   0  0  0  0  0  0  0  0  0  0  0  0
  1  2  1  0
  2  3  1  0
  3  4  2  0
  4  5  1  0
  5  6  2  0
  6  7  1  0
  7  8  2  0
  7  9  1  0
  9 10  1  0
 10 11  2  0
 11 12  1  0
 12 13  2  0
 13 14  1  0
 14 15  2  0
 14 16  1  0
 16 17  1  0
 17 18  1  0
 18 19  1  0
 19 20  1  0
 20 21  1  0
 20 22  2  0
 16 23  1  0
 23 24  2  0
 24 25  1  0
 25 26  1  0
 26 27  2  0
 27 28  1  0
 28 29  1  0
 29 30  1  0
 30 31  1  0
 25 32  2  0
 32 33  1  0
 33 34  1  0
 33 35  2  0
 35 36  1  0
  6 37  1  0
 37 38  2  0
 38  3  1  0
 15 10  1  0
 22 16  1  0
 35 23  1  0
 36 13  1  0
 31 26  1  0
  1 39  1  0
  1 40  1  0
  1 41  1  0
  4 42  1  0
  9 43  1  0
 11 44  1  0
 12 45  1  0
 15 46  1  0
 17 47  1  0
 17 48  1  0
 18 49  1  0
 18 50  1  0
 21 51  1  0
 21 52  1  0
 24 53  1  0
 27 54  1  0
 28 55  1  0
 28 56  1  0
 29 57  1  0
 29 58  1  0
 31 59  1  0
 31 60  1  0
 37 61  1  0
M  END
$$$$
