@<TRIPOS>MOLECULE
*****
 41 43 0 0 0
SMALL
GASTEIGER

@<TRIPOS>ATOM
      1 C           5.7062    0.0630   -0.2597 C.3     1  UNL1       -0.0416
      2 C           4.3161    0.6761   -0.5242 C.3     1  UNL1        0.0449
      3 O           3.5448   -0.2763   -1.1041 O.3     1  UNL1       -0.3784
      4 C           2.2956   -0.0298   -1.5086 C.3     1  UNL1        0.0648
      5 C           1.2591    0.4232   -0.5348 C.3     1  UNL1        0.0552
      6 C           1.4076    1.7991   -0.0405 C.3     1  UNL1       -0.0323
      7 C           1.3497    1.7083    1.4643 C.3     1  UNL1       -0.0370
      8 C           0.6973    0.3642    1.6950 C.3     1  UNL1        0.0209
      9 N           1.0952   -0.4833    0.5847 N.3     1  UNL1       -0.1713
     10 S          -0.0930   -1.6814    0.3571 S.O2    1  UNL1        0.0612
     11 O          -0.2066   -2.4569    1.6424 O.2     1  UNL1       -0.1528
     12 O           0.2817   -2.6599   -0.7188 O.2     1  UNL1       -0.1528
     13 C          -1.6342   -1.0072   -0.0407 C.ar    1  UNL1        0.1063
     14 C          -1.9955   -0.7881   -1.3578 C.ar    1  UNL1       -0.0336
     15 C          -3.2375   -0.2464   -1.6629 C.ar    1  UNL1       -0.0379
     16 C          -4.1535    0.0931   -0.6914 C.ar    1  UNL1        0.0449
     17 C          -3.7945   -0.1247    0.6133 C.ar    1  UNL1        0.0499
     18 C          -2.5726   -0.6586    0.9316 C.ar    1  UNL1       -0.0226
     19 C          -4.9198    0.3103    1.4494 C.2     1  UNL1        0.2494
     20 O          -4.9460    0.2581    2.7099 O.2     1  UNL1       -0.2817
     21 C          -5.9538    0.7940    0.5470 C.2     1  UNL1        0.2887
     22 O          -7.0867    1.2571    0.8878 O.2     1  UNL1       -0.2663
     23 N          -5.4541    0.6486   -0.7736 N.am    1  UNL1       -0.2782
     24 H           5.5584   -0.8854    0.3046 H       1  UNL1        0.0252
     25 H           6.2626    0.7576    0.3860 H       1  UNL1        0.0252
     26 H           6.2464   -0.0680   -1.2009 H       1  UNL1        0.0252
     27 H           3.9555    0.9714    0.5049 H       1  UNL1        0.0557
     28 H           4.4766    1.5984   -1.0852 H       1  UNL1        0.0557
     29 H           2.2694    0.6846   -2.3919 H       1  UNL1        0.0576
     30 H           1.8602   -0.9963   -1.9560 H       1  UNL1        0.0576
     31 H           0.2678    0.3876   -1.1267 H       1  UNL1        0.0502
     32 H           2.3204    2.3028   -0.3923 H       1  UNL1        0.0282
     33 H           0.5006    2.4168   -0.3469 H       1  UNL1        0.0282
     34 H           0.6843    2.5180    1.8732 H       1  UNL1        0.0279
     35 H           2.3050    1.8133    1.9717 H       1  UNL1        0.0279
     36 H          -0.3935    0.5471    1.6460 H       1  UNL1        0.0444
     37 H           0.9251   -0.0774    2.6708 H       1  UNL1        0.0444
     38 H          -1.3284   -1.0340   -2.1701 H       1  UNL1        0.0638
     39 H          -3.5181   -0.0758   -2.6921 H       1  UNL1        0.0637
     40 H          -2.3097   -0.8262    1.9723 H       1  UNL1        0.0645
     41 H          -5.9880    0.9180   -1.6327 H       1  UNL1        0.1552
@<TRIPOS>BOND
     1     1     2    1
     2     2     3    1
     3     3     4    1
     4     4     5    1
     5     5     6    1
     6     6     7    1
     7     7     8    1
     8     8     9    1
     9     9    10    1
    10    10    11    2
    11    10    12    2
    12    10    13    1
    13    13    14   ar
    14    14    15   ar
    15    15    16   ar
    16    16    17   ar
    17    17    18   ar
    18    17    19    1
    19    19    20    2
    20    19    21    1
    21    21    22    2
    22    21    23   am
    23     9     5    1
    24    18    13   ar
    25    23    16    1
    26     1    24    1
    27     1    25    1
    28     1    26    1
    29     2    27    1
    30     2    28    1
    31     4    29    1
    32     4    30    1
    33     5    31    1
    34     6    32    1
    35     6    33    1
    36     7    34    1
    37     7    35    1
    38     8    36    1
    39     8    37    1
    40    14    38    1
    41    15    39    1
    42    18    40    1
    43    23    41    1
