@<TRIPOS>MOLECULE
*****
 60 64 0 0 0
SMALL
GASTEIGER

@<TRIPOS>ATOM
      1 C           9.7224   -0.7054    2.4830 C.1     1  UNL1       -0.1158
      2 C          10.0159   -0.7480    1.3901 C.1     1  UNL1       -0.0647
      3 C          10.4374   -0.8079   -0.1466 C.3     1  UNL1        0.1513
      4 O           9.3450   -0.4420   -0.7561 O.3     1  UNL1       -0.4624
      5 C           8.2593   -0.0779   -1.3651 C.ar    1  UNL1        0.2344
      6 C           7.2462    0.0822   -0.3282 C.ar    1  UNL1        0.0899
      7 N           6.0097    0.4073   -0.5187 N.ar    1  UNL1       -0.2459
      8 C           5.6118    0.6343   -1.8568 C.ar    1  UNL1        0.1172
      9 C           4.0917    0.6489   -1.9315 C.2     1  UNL1        0.1507
     10 F           3.3772    1.3938   -2.6676 F       1  UNL1       -0.2032
     11 C           3.4672   -0.1742   -1.0318 C.2     1  UNL1       -0.0157
     12 C           2.1819   -0.5354   -0.6870 C.ar    1  UNL1       -0.0036
     13 C           1.9725   -1.9782   -0.5339 C.ar    1  UNL1        0.0379
     14 N           0.8589   -2.5005   -0.2754 N.ar    1  UNL1       -0.2267
     15 C          -0.2813   -1.7304   -0.1301 C.ar    1  UNL1        0.2187
     16 F          -1.4060   -2.3509    0.1385 F       1  UNL1       -0.1835
     17 C          -0.1890   -0.3814   -0.2543 C.ar    1  UNL1        0.0349
     18 C          -1.4580    0.4323   -0.2715 C.3     1  UNL1        0.0950
     19 C          -1.1344    1.9046   -0.3507 C.3     1  UNL1       -0.0351
     20 N          -2.0992   -0.0336   -1.5456 N.2     1  UNL1       -0.2520
     21 C          -3.1500    0.4797   -1.9427 C.2     1  UNL1        0.1485
     22 N          -3.8914    0.2118   -3.0783 N.pl3   1  UNL1       -0.3380
     23 S          -3.9164    1.6209   -0.7191 S.3     1  UNL1       -0.0746
     24 C          -3.6965    0.6683    0.8315 C.3     1  UNL1        0.1054
     25 C          -4.5951    1.0252    1.9208 C.2     1  UNL1        0.2325
     26 O          -4.2619    1.8463    2.7896 O.2     1  UNL1       -0.2741
     27 N          -5.8689    0.3462    1.9201 N.am    1  UNL1       -0.2975
     28 C          -6.8881    0.6103    2.9073 C.3     1  UNL1        0.0175
     29 C          -8.1157    0.6921    2.0663 C.3     1  UNL1       -0.0044
     30 C          -7.7669    0.1092    0.7420 C.3     1  UNL1        0.1180
     31 F          -8.7674   -0.7475    0.2946 F       1  UNL1       -0.2438
     32 C          -6.4369   -0.6508    1.0595 C.3     1  UNL1        0.0459
     33 C          -3.4373   -0.8229    0.7047 C.3     1  UNL1       -0.0220
     34 C          -2.3567    0.1175    0.9261 C.3     1  UNL1        0.0135
     35 C           1.0301    0.2099   -0.5283 C.ar    1  UNL1       -0.0433
     36 C           6.4834    0.5239   -2.8142 C.ar    1  UNL1        0.0596
     37 N           7.8540    0.1604   -2.6189 N.ar    1  UNL1       -0.2178
     38 H           9.4452   -0.6632    3.5618 H       1  UNL1        0.1229
     39 H          11.4362   -0.5072   -0.3010 H       1  UNL1        0.0837
     40 H          10.5072   -1.9803   -0.2538 H       1  UNL1        0.0837
     41 H           7.6287   -0.1184    0.7133 H       1  UNL1        0.0884
     42 H           4.3049   -0.7874   -0.4502 H       1  UNL1        0.0653
     43 H           2.8856   -2.6239   -0.6285 H       1  UNL1        0.0836
     44 H          -0.8139    2.2567   -1.3279 H       1  UNL1        0.0256
     45 H          -1.8874    2.4986    0.2308 H       1  UNL1        0.0256
     46 H          -0.1946    2.0875    0.2916 H       1  UNL1        0.0256
     47 H          -3.5989    0.6135   -4.0619 H       1  UNL1        0.1442
     48 H          -4.7279   -0.4161   -3.0992 H       1  UNL1        0.1442
     49 H          -6.7381    1.5633    3.4905 H       1  UNL1        0.0465
     50 H          -6.9213   -0.2201    3.6436 H       1  UNL1        0.0465
     51 H          -8.4497    1.7796    1.9703 H       1  UNL1        0.0309
     52 H          -9.0383    0.2066    2.4840 H       1  UNL1        0.0309
     53 H          -7.6041    0.7967   -0.0807 H       1  UNL1        0.0667
     54 H          -5.8518   -0.7666    0.1107 H       1  UNL1        0.0493
     55 H          -6.6678   -1.6226    1.4780 H       1  UNL1        0.0493
     56 H          -3.8023   -1.5556    1.4631 H       1  UNL1        0.0287
     57 H          -3.6075   -1.1797   -0.3641 H       1  UNL1        0.0287
     58 H          -1.8356    0.2367    1.8493 H       1  UNL1        0.0346
     59 H           1.1134    1.2795   -0.6794 H       1  UNL1        0.0629
     60 H           6.1706    0.7104   -3.8618 H       1  UNL1        0.0853
@<TRIPOS>BOND
     1     1     2    3
     2     2     3    1
     3     3     4    1
     4     4     5    1
     5     5     6   ar
     6     6     7   ar
     7     7     8   ar
     8     8     9    1
     9     9    10    1
    10     9    11    2
    11    11    12    1
    12    12    13   ar
    13    13    14   ar
    14    14    15   ar
    15    15    16    1
    16    15    17   ar
    17    17    18    1
    18    18    19    1
    19    18    20    1
    20    20    21    2
    21    21    22    1
    22    21    23    1
    23    23    24    1
    24    24    25    1
    25    25    26    2
    26    25    27   am
    27    27    28    1
    28    28    29    1
    29    29    30    1
    30    30    31    1
    31    30    32    1
    32    24    33    1
    33    33    34    1
    34    17    35   ar
    35     8    36   ar
    36    36    37   ar
    37    37     5   ar
    38    35    12   ar
    39    34    18    1
    40    34    24    1
    41    32    27    1
    42     1    38    1
    43     3    39    1
    44     3    40    1
    45     6    41    1
    46    11    42    1
    47    13    43    1
    48    19    44    1
    49    19    45    1
    50    19    46    1
    51    22    47    1
    52    22    48    1
    53    28    49    1
    54    28    50    1
    55    29    51    1
    56    29    52    1
    57    30    53    1
    58    32    54    1
    59    32    55    1
    60    33    56    1
    61    33    57    1
    62    34    58    1
    63    35    59    1
    64    36    60    1
