@<TRIPOS>MOLECULE
*****
 24 24 0 0 0
SMALL
GASTEIGER

@<TRIPOS>ATOM
      1 O           2.8312    0.2117    0.9046 O.3     1  UNK1       -0.3934
      2 C           2.4190   -0.0900   -0.3806 C.3     1  UNK1        0.0620
      3 C           0.9308   -0.2523   -0.4852 C.3     1  UNK1        0.0596
      4 N           0.4153   -1.3018    0.3476 N.3     1  UNK1       -0.3064
      5 C          -0.9375   -1.5551   -0.1134 C.3     0  UNK0        0.0249
      6 C          -1.7537   -0.3883    0.4125 C.3     1  UNK1        0.0959
      7 O          -3.0802   -0.6109   -0.0229 O.3     1  UNK1       -0.3879
      8 C          -1.2267    0.9377    0.0322 C.3     1  UNK1        0.1095
      9 O          -1.5469    1.8465    1.0639 O.3     1  UNK1       -0.3866
     10 C           0.2215    1.0364   -0.2304 C.3     1  UNK1        0.1009
     11 O           0.9118    1.7278    0.7720 O.3     1  UNK1       -0.3875
     12 H           3.3708   -0.5446    1.2665 H       1  UNK1        0.2095
     13 H           2.6933    0.7282   -1.0940 H       1  UNK1        0.0573
     14 H           2.8860   -1.0467   -0.7299 H       1  UNK1        0.0573
     15 H           0.7089   -0.5533   -1.5447 H       1  UNK1        0.0509
     16 H           1.0126   -2.1197    0.4468 H       1  UNK1        0.1224
     17 H          -1.3712   -2.4885    0.2858 H       0  UNK0        0.0450
     18 H          -1.0225   -1.5116   -1.2202 H       0  UNK0        0.0450
     19 H          -1.7870   -0.5032    1.5205 H       1  UNK1        0.0633
     20 H          -3.0195   -0.7616   -1.0135 H       1  UNK1        0.2099
     21 H          -1.8560    1.3028   -0.8320 H       1  UNK1        0.0646
     22 H          -2.5014    1.7340    1.3572 H       1  UNK1        0.2100
     23 H           0.3504    1.6448   -1.1735 H       1  UNK1        0.0636
     24 H           1.3510    2.5576    0.4307 H       1  UNK1        0.2100
@<TRIPOS>BOND
     1     1     2    1
     2     2     3    1
     3     3     4    1
     4     4     5    1
     5     5     6    1
     6     6     7    1
     7     6     8    1
     8     8     9    1
     9     8    10    1
    10    10    11    1
    11    10     3    1
    12     1    12    1
    13     2    13    1
    14     2    14    1
    15     3    15    1
    16     4    16    1
    17     5    17    1
    18     5    18    1
    19     6    19    1
    20     7    20    1
    21     8    21    1
    22     9    22    1
    23    10    23    1
    24    11    24    1
