@<TRIPOS>MOLECULE
*****
 56 60 0 0 0
SMALL
GASTEIGER

@<TRIPOS>ATOM
      1 O          11.1513    0.2480    1.1227 O.2     1  UNL1       -0.2451
      2 C          10.4428    1.1310    0.5824 C.2     1  UNL1        0.3368
      3 O          11.0678    2.2726    0.0761 O.3     1  UNL1       -0.4771
      4 C           9.0162    0.9395    0.5023 C.ar    1  UNL1        0.0589
      5 C           8.4484   -0.1921    1.0105 C.ar    1  UNL1       -0.0471
      6 C           7.0832   -0.3676    0.9304 C.ar    1  UNL1       -0.0502
      7 C           6.2504    0.5639    0.3502 C.ar    1  UNL1        0.0225
      8 C           4.8065    0.3821    0.2634 C.ar    1  UNL1        0.2021
      9 N           3.9014    1.3392   -0.0060 N.ar    1  UNL1       -0.0561
     10 O           2.7245    0.8182   -0.0016 O.2     1  UNL1       -0.3374
     11 C           2.7841   -0.4650    0.2613 C.ar    1  UNL1        0.2309
     12 C           1.6282   -1.4036    0.3513 C.3     1  UNL1        0.0410
     13 C           0.9911   -1.4986   -0.9943 C.3     1  UNL1       -0.0257
     14 C           0.0497   -0.3270   -1.1680 C.3     1  UNL1        0.0168
     15 N          -1.0465   -0.5030   -0.2407 N.am    1  UNL1       -0.2856
     16 C          -2.3412   -0.0814   -0.6238 C.2     1  UNL1        0.3024
     17 O          -2.5131    0.4292   -1.7434 O.2     1  UNL1       -0.2526
     18 N          -3.4545   -0.2247    0.2365 N.am    1  UNL1       -0.2958
     19 C          -4.7912    0.1839   -0.0958 C.3     1  UNL1        0.0320
     20 C          -5.5028    0.9464    1.0023 C.3     1  UNL1       -0.0254
     21 C          -5.9827   -0.4290    0.5332 C.3     1  UNL1        0.0043
     22 C          -7.2318   -0.4833   -0.2597 C.ar    1  UNL1       -0.0425
     23 C          -8.1662   -1.4534    0.0237 C.ar    1  UNL1       -0.0582
     24 C          -9.3575   -1.5834   -0.6575 C.ar    1  UNL1       -0.0615
     25 C          -9.6196   -0.6944   -1.6716 C.ar    1  UNL1       -0.0617
     26 C          -8.7153    0.2968   -1.9952 C.ar    1  UNL1       -0.0615
     27 C          -7.5275    0.3876   -1.2795 C.ar    1  UNL1       -0.0582
     28 C          -0.7598   -1.1072    1.0447 C.3     1  UNL1        0.0168
     29 C           0.6907   -0.9206    1.4236 C.3     1  UNL1       -0.0257
     30 N           4.0963   -0.7436    0.4291 N.ar    1  UNL1       -0.1911
     31 C           6.8476    1.6991   -0.1563 C.ar    1  UNL1       -0.0502
     32 C           8.2267    1.8899   -0.0822 C.ar    1  UNL1       -0.0471
     33 H          12.0172    2.2069   -0.2197 H       1  UNL1        0.2954
     34 H           9.1053   -0.9313    1.4704 H       1  UNL1        0.0626
     35 H           6.6576   -1.2716    1.3401 H       1  UNL1        0.0625
     36 H           2.0182   -2.4278    0.6014 H       1  UNL1        0.0397
     37 H           1.7698   -1.3834   -1.7963 H       1  UNL1        0.0288
     38 H           0.4970   -2.4654   -1.1560 H       1  UNL1        0.0288
     39 H          -0.3150   -0.2810   -2.2165 H       1  UNL1        0.0465
     40 H           0.5990    0.6042   -0.9421 H       1  UNL1        0.0465
     41 H          -3.2941   -0.6552    1.1730 H       1  UNL1        0.1505
     42 H          -4.9287    0.6329   -1.0965 H       1  UNL1        0.0505
     43 H          -6.1336    1.8091    0.7458 H       1  UNL1        0.0290
     44 H          -5.0020    1.0289    1.9885 H       1  UNL1        0.0290
     45 H          -5.8995   -1.1889    1.3231 H       1  UNL1        0.0367
     46 H          -7.9890   -2.1705    0.8188 H       1  UNL1        0.0620
     47 H         -10.0544   -2.3647   -0.3919 H       1  UNL1        0.0618
     48 H         -10.5575   -0.8056   -2.1995 H       1  UNL1        0.0618
     49 H          -8.9562    0.9728   -2.7943 H       1  UNL1        0.0618
     50 H          -6.8433    1.1582   -1.5428 H       1  UNL1        0.0620
     51 H          -1.0879   -2.1663    1.0968 H       1  UNL1        0.0465
     52 H          -1.3562   -0.5514    1.8043 H       1  UNL1        0.0465
     53 H           0.8336    0.1802    1.5776 H       1  UNL1        0.0288
     54 H           0.9030   -1.4356    2.3589 H       1  UNL1        0.0288
     55 H           6.1858    2.4307   -0.6128 H       1  UNL1        0.0625
     56 H           8.6342    2.8025   -0.4985 H       1  UNL1        0.0626
@<TRIPOS>BOND
     1     1     2    2
     2     2     3    1
     3     2     4    1
     4     4     5   ar
     5     5     6   ar
     6     6     7   ar
     7     7     8    1
     8     8     9   ar
     9     9    10   ar
    10    10    11   ar
    11    11    12    1
    12    12    13    1
    13    13    14    1
    14    14    15    1
    15    15    16   am
    16    16    17    2
    17    16    18   am
    18    18    19    1
    19    19    20    1
    20    20    21    1
    21    21    22    1
    22    22    23   ar
    23    23    24   ar
    24    24    25   ar
    25    25    26   ar
    26    26    27   ar
    27    15    28    1
    28    28    29    1
    29    11    30   ar
    30     7    31   ar
    31    31    32   ar
    32    32     4   ar
    33    30     8   ar
    34    29    12    1
    35    21    19    1
    36    27    22   ar
    37     3    33    1
    38     5    34    1
    39     6    35    1
    40    12    36    1
    41    13    37    1
    42    13    38    1
    43    14    39    1
    44    14    40    1
    45    18    41    1
    46    19    42    1
    47    20    43    1
    48    20    44    1
    49    21    45    1
    50    23    46    1
    51    24    47    1
    52    25    48    1
    53    26    49    1
    54    27    50    1
    55    28    51    1
    56    28    52    1
    57    29    53    1
    58    29    54    1
    59    31    55    1
    60    32    56    1
