
     RDKit          3D

 56 60  0  0  0  0  0  0  0  0999 V2000
   11.1513    0.2480    1.1227 O   0  0  0  0  0  0  0  0  0  0  0  0
   10.4428    1.1310    0.5824 C   0  0  0  0  0  0  0  0  0  0  0  0
   11.0678    2.2726    0.0761 O   0  0  0  0  0  0  0  0  0  0  0  0
    9.0162    0.9395    0.5023 C   0  0  0  0  0  0  0  0  0  0  0  0
    8.4484   -0.1921    1.0105 C   0  0  0  0  0  0  0  0  0  0  0  0
    7.0832   -0.3676    0.9304 C   0  0  0  0  0  0  0  0  0  0  0  0
    6.2504    0.5639    0.3502 C   0  0  0  0  0  0  0  0  0  0  0  0
    4.8065    0.3821    0.2634 C   0  0  0  0  0  0  0  0  0  0  0  0
    3.9014    1.3392   -0.0060 N   0  0  0  0  0  0  0  0  0  0  0  0
    2.7245    0.8182   -0.0016 O   0  0  0  0  0  0  0  0  0  0  0  0
    2.7841   -0.4650    0.2613 C   0  0  0  0  0  0  0  0  0  0  0  0
    1.6282   -1.4036    0.3513 C   0  0  0  0  0  0  0  0  0  0  0  0
    0.9911   -1.4986   -0.9943 C   0  0  0  0  0  0  0  0  0  0  0  0
    0.0497   -0.3270   -1.1680 C   0  0  0  0  0  0  0  0  0  0  0  0
   -1.0465   -0.5030   -0.2407 N   0  0  0  0  0  0  0  0  0  0  0  0
   -2.3412   -0.0814   -0.6238 C   0  0  0  0  0  0  0  0  0  0  0  0
   -2.5131    0.4292   -1.7434 O   0  0  0  0  0  0  0  0  0  0  0  0
   -3.4545   -0.2247    0.2365 N   0  0  0  0  0  0  0  0  0  0  0  0
   -4.7912    0.1839   -0.0958 C   0  0  0  0  0  0  0  0  0  0  0  0
   -5.5028    0.9464    1.0023 C   0  0  0  0  0  0  0  0  0  0  0  0
   -5.9827   -0.4290    0.5332 C   0  0  0  0  0  0  0  0  0  0  0  0
   -7.2318   -0.4833   -0.2597 C   0  0  0  0  0  0  0  0  0  0  0  0
   -8.1662   -1.4534    0.0237 C   0  0  0  0  0  0  0  0  0  0  0  0
   -9.3575   -1.5834   -0.6575 C   0  0  0  0  0  0  0  0  0  0  0  0
   -9.6196   -0.6944   -1.6716 C   0  0  0  0  0  0  0  0  0  0  0  0
   -8.7153    0.2968   -1.9952 C   0  0  0  0  0  0  0  0  0  0  0  0
   -7.5275    0.3876   -1.2795 C   0  0  0  0  0  0  0  0  0  0  0  0
   -0.7598   -1.1072    1.0447 C   0  0  0  0  0  0  0  0  0  0  0  0
    0.6907   -0.9206    1.4236 C   0  0  0  0  0  0  0  0  0  0  0  0
    4.0963   -0.7436    0.4291 N   0  0  0  0  0  0  0  0  0  0  0  0
    6.8476    1.6991   -0.1563 C   0  0  0  0  0  0  0  0  0  0  0  0
    8.2267    1.8899   -0.0822 C   0  0  0  0  0  0  0  0  0  0  0  0
   12.0172    2.2069   -0.2197 H   0  0  0  0  0  0  0  0  0  0  0  0
    9.1053   -0.9313    1.4704 H   0  0  0  0  0  0  0  0  0  0  0  0
    6.6576   -1.2716    1.3401 H   0  0  0  0  0  0  0  0  0  0  0  0
    2.0182   -2.4278    0.6014 H   0  0  0  0  0  0  0  0  0  0  0  0
    1.7698   -1.3834   -1.7963 H   0  0  0  0  0  0  0  0  0  0  0  0
    0.4970   -2.4654   -1.1560 H   0  0  0  0  0  0  0  0  0  0  0  0
   -0.3150   -0.2810   -2.2165 H   0  0  0  0  0  0  0  0  0  0  0  0
    0.5990    0.6042   -0.9421 H   0  0  0  0  0  0  0  0  0  0  0  0
   -3.2941   -0.6552    1.1730 H   0  0  0  0  0  0  0  0  0  0  0  0
   -4.9287    0.6329   -1.0965 H   0  0  0  0  0  0  0  0  0  0  0  0
   -6.1336    1.8091    0.7458 H   0  0  0  0  0  0  0  0  0  0  0  0
   -5.0020    1.0289    1.9885 H   0  0  0  0  0  0  0  0  0  0  0  0
   -5.8995   -1.1889    1.3231 H   0  0  0  0  0  0  0  0  0  0  0  0
   -7.9890   -2.1705    0.8188 H   0  0  0  0  0  0  0  0  0  0  0  0
  -10.0544   -2.3647   -0.3919 H   0  0  0  0  0  0  0  0  0  0  0  0
  -10.5575   -0.8056   -2.1995 H   0  0  0  0  0  0  0  0  0  0  0  0
   -8.9562    0.9728   -2.7943 H   0  0  0  0  0  0  0  0  0  0  0  0
   -6.8433    1.1582   -1.5428 H   0  0  0  0  0  0  0  0  0  0  0  0
   -1.0879   -2.1663    1.0968 H   0  0  0  0  0  0  0  0  0  0  0  0
   -1.3562   -0.5514    1.8043 H   0  0  0  0  0  0  0  0  0  0  0  0
    0.8336    0.1802    1.5776 H   0  0  0  0  0  0  0  0  0  0  0  0
    0.9030   -1.4356    2.3589 H   0  0  0  0  0  0  0  0  0  0  0  0
    6.1858    2.4307   -0.6128 H   0  0  0  0  0  0  0  0  0  0  0  0
    8.6342    2.8025   -0.4985 H   0  0  0  0  0  0  0  0  0  0  0  0
  1  2  2  0
  2  3  1  0
  2  4  1  0
  4  5  2  0
  5  6  1  0
  6  7  2  0
  7  8  1  0
  8  9  2  0
  9 10  1  0
 10 11  1  0
 11 12  1  0
 12 13  1  0
 13 14  1  0
 14 15  1  0
 15 16  1  0
 16 17  2  0
 16 18  1  0
 18 19  1  0
 19 20  1  0
 20 21  1  0
 21 22  1  0
 22 23  2  0
 23 24  1  0
 24 25  2  0
 25 26  1  0
 26 27  2  0
 15 28  1  0
 28 29  1  0
 11 30  2  0
  7 31  1  0
 31 32  2  0
 32  4  1  0
 30  8  1  0
 29 12  1  0
 21 19  1  0
 27 22  1  0
  3 33  1  0
  5 34  1  0
  6 35  1  0
 12 36  1  0
 13 37  1  0
 13 38  1  0
 14 39  1  0
 14 40  1  0
 18 41  1  0
 19 42  1  0
 20 43  1  0
 20 44  1  0
 21 45  1  0
 23 46  1  0
 24 47  1  0
 25 48  1  0
 26 49  1  0
 27 50  1  0
 28 51  1  0
 28 52  1  0
 29 53  1  0
 29 54  1  0
 31 55  1  0
 32 56  1  0
M  END
$$$$
