@<TRIPOS>MOLECULE
*****
 58 62 0 0 0
SMALL
GASTEIGER

@<TRIPOS>ATOM
      1 C          -4.0223   -2.4607   -1.5979 C.3     1  UNL1       -0.0275
      2 C          -3.4627   -1.7559   -0.3807 C.3     1  UNL1        0.1021
      3 O          -3.3902   -0.3696   -0.5506 O.3     1  UNL1       -0.4880
      4 C          -2.2823    0.4257   -0.5230 C.ar    1  UNL1        0.1321
      5 C          -0.9924    0.0135   -0.3165 C.ar    1  UNL1       -0.0114
      6 C           0.0969    0.8691   -0.2989 C.ar    1  UNL1       -0.0123
      7 C           1.4617    0.3990   -0.0754 C.ar    1  UNL1       -0.0176
      8 C           1.7590   -0.6864    0.7238 C.ar    1  UNL1       -0.0522
      9 C           3.0736   -1.0940    0.9048 C.ar    1  UNL1       -0.0385
     10 C           4.1264   -0.4457    0.3055 C.ar    1  UNL1        0.0509
     11 N           5.4782   -0.8493    0.4793 N.pl3   1  UNL1       -0.2073
     12 C           6.4653   -0.4644    1.4489 C.3     1  UNL1        0.0361
     13 C           7.7995   -0.4146    0.7488 C.3     1  UNL1       -0.0143
     14 C           7.9777   -1.7353    0.0281 C.3     1  UNL1        0.0865
     15 S           6.2940   -2.0045   -0.5485 S.O2    1  UNL1        0.0455
     16 O           5.8464   -3.3980   -0.2628 O.2     1  UNL1       -0.1550
     17 O           6.1471   -1.6069   -1.9741 O.2     1  UNL1       -0.1550
     18 C           3.8408    0.6433   -0.4978 C.ar    1  UNL1       -0.0385
     19 C           2.5301    1.0391   -0.6700 C.ar    1  UNL1       -0.0522
     20 C          -0.1672    2.2079   -0.5045 C.ar    1  UNL1       -0.0260
     21 C          -1.4442    2.6799   -0.7172 C.ar    1  UNL1        0.0968
     22 N          -1.9581    3.9243   -0.9403 N.ar    1  UNL1       -0.1713
     23 N          -3.2700    3.8565   -1.0870 N.ar    1  UNL1       -0.2732
     24 C          -4.1908    4.9746   -1.3422 C.3     1  UNL1        0.0302
     25 C          -3.6202    2.5642   -0.9602 C.ar    1  UNL1        0.0364
     26 C          -2.4881    1.7944   -0.7255 C.ar    1  UNL1        0.0614
     27 C          -4.2592   -2.0896    0.8626 C.3     1  UNL1        0.0195
     28 C          -3.6009   -1.3235    2.0134 C.3     1  UNL1        0.0182
     29 N          -4.1378    0.0188    1.7656 N.am    1  UNL1       -0.3149
     30 C          -5.4195   -0.0861    1.1587 C.2     1  UNL1        0.2135
     31 O          -6.2411    0.8333    0.9095 O.2     1  UNL1       -0.2758
     32 C          -5.6424   -1.5257    0.8517 C.3     1  UNL1        0.0315
     33 H          -3.3015   -3.1855   -2.0265 H       1  UNL1        0.0265
     34 H          -4.9274   -3.0324   -1.3088 H       1  UNL1        0.0265
     35 H          -4.2805   -1.6790   -2.3605 H       1  UNL1        0.0265
     36 H          -2.4515   -2.1579   -0.2170 H       1  UNL1        0.0733
     37 H          -0.8023   -1.0416   -0.1567 H       1  UNL1        0.0660
     38 H           0.9234   -1.1898    1.1913 H       1  UNL1        0.0624
     39 H           3.2864   -1.9601    1.5449 H       1  UNL1        0.0637
     40 H           6.5009   -1.1243    2.3365 H       1  UNL1        0.0483
     41 H           6.2342    0.5634    1.7778 H       1  UNL1        0.0483
     42 H           7.8843    0.4460    0.0851 H       1  UNL1        0.0297
     43 H           8.5750   -0.3387    1.5418 H       1  UNL1        0.0297
     44 H           8.6639   -1.6132   -0.8311 H       1  UNL1        0.0519
     45 H           8.2911   -2.5298    0.7173 H       1  UNL1        0.0519
     46 H           4.6756    1.1435   -0.9621 H       1  UNL1        0.0637
     47 H           2.3568    1.9020   -1.3115 H       1  UNL1        0.0624
     48 H           0.6636    2.9046   -0.4968 H       1  UNL1        0.0646
     49 H          -5.1448    4.5936   -1.7632 H       1  UNL1        0.0473
     50 H          -4.3244    5.6132   -0.4682 H       1  UNL1        0.0473
     51 H          -3.7245    5.5661   -2.1821 H       1  UNL1        0.0473
     52 H          -4.6044    2.1479   -1.0227 H       1  UNL1        0.0833
     53 H          -4.3078   -3.1598    1.0646 H       1  UNL1        0.0356
     54 H          -2.5128   -1.3559    1.9644 H       1  UNL1        0.0466
     55 H          -3.9615   -1.6921    2.9990 H       1  UNL1        0.0466
     56 H          -3.6319    0.8925    2.0092 H       1  UNL1        0.1487
     57 H          -6.1971   -1.9629    1.6972 H       1  UNL1        0.0363
     58 H          -6.1903   -1.6831   -0.0926 H       1  UNL1        0.0363
@<TRIPOS>BOND
     1     1     2    1
     2     2     3    1
     3     3     4    1
     4     4     5   ar
     5     5     6   ar
     6     6     7    1
     7     7     8   ar
     8     8     9   ar
     9     9    10   ar
    10    10    11    1
    11    11    12    1
    12    12    13    1
    13    13    14    1
    14    14    15    1
    15    15    16    2
    16    15    17    2
    17    10    18   ar
    18    18    19   ar
    19     6    20   ar
    20    20    21   ar
    21    21    22   ar
    22    22    23   ar
    23    23    24    1
    24    23    25   ar
    25    25    26   ar
    26     2    27    1
    27    27    28    1
    28    28    29    1
    29    29    30   am
    30    30    31    2
    31    30    32    1
    32    26     4   ar
    33    32    27    1
    34    19     7   ar
    35    26    21   ar
    36    15    11    1
    37     1    33    1
    38     1    34    1
    39     1    35    1
    40     2    36    1
    41     5    37    1
    42     8    38    1
    43     9    39    1
    44    12    40    1
    45    12    41    1
    46    13    42    1
    47    13    43    1
    48    14    44    1
    49    14    45    1
    50    18    46    1
    51    19    47    1
    52    20    48    1
    53    24    49    1
    54    24    50    1
    55    24    51    1
    56    25    52    1
    57    27    53    1
    58    28    54    1
    59    28    55    1
    60    29    56    1
    61    32    57    1
    62    32    58    1
