@<TRIPOS>MOLECULE
*****
 30 32 0 0 0
SMALL
GASTEIGER

@<TRIPOS>ATOM
      1 O          -1.9315    2.9968   -0.2705 O.2     1  UNL1       -0.2869
      2 C          -1.4137    1.8479   -0.1968 C.ar    1  UNL1        0.1966
      3 C          -0.0271    1.7087   -0.1869 C.ar    1  UNL1        0.0288
      4 C           0.5275    0.4565   -0.1065 C.ar    1  UNL1        0.1392
      5 C           1.9627    0.2129   -0.0900 C.ar    1  UNL1        0.0176
      6 C           2.8930    1.2158   -0.1534 C.ar    1  UNL1       -0.0476
      7 C           4.2480    0.9644   -0.1364 C.ar    1  UNL1       -0.0195
      8 C           4.7063   -0.3170   -0.0542 C.ar    1  UNL1        0.1169
      9 O           6.0702   -0.5753   -0.0367 O.3     1  UNL1       -0.5068
     10 C           3.8077   -1.3635    0.0120 C.ar    1  UNL1       -0.0195
     11 C           2.4673   -1.0925   -0.0062 C.ar    1  UNL1       -0.0476
     12 O          -0.2675   -0.6051   -0.0393 O.2     1  UNL1       -0.4544
     13 C          -1.5666   -0.5061   -0.0465 C.ar    1  UNL1        0.1462
     14 C          -2.3612   -1.6323    0.0249 C.ar    1  UNL1        0.0231
     15 C          -3.7425   -1.5735    0.0201 C.ar    1  UNL1        0.1239
     16 O          -4.4858   -2.7530    0.0950 O.3     1  UNL1       -0.5065
     17 C          -4.3713   -0.3383   -0.0592 C.ar    1  UNL1        0.0223
     18 C          -3.5822    0.7916   -0.1308 C.ar    1  UNL1        0.1347
     19 O          -4.1507    2.0656   -0.2126 O.3     1  UNL1       -0.5058
     20 C          -2.1944    0.7150   -0.1249 C.ar    1  UNL1        0.1055
     21 H           0.5958    2.5859   -0.2425 H       1  UNL1        0.0693
     22 H           2.5736    2.2369   -0.2188 H       1  UNL1        0.0626
     23 H           4.9351    1.8052   -0.1896 H       1  UNL1        0.0654
     24 H           6.4352   -1.5120   -0.1693 H       1  UNL1        0.2921
     25 H           4.1841   -2.3754    0.0770 H       1  UNL1        0.0654
     26 H           1.7546   -1.9057    0.0452 H       1  UNL1        0.0626
     27 H          -1.9210   -2.6348    0.0892 H       1  UNL1        0.0691
     28 H          -5.4698   -2.7232    0.2685 H       1  UNL1        0.2921
     29 H          -5.4319   -0.2632   -0.0647 H       1  UNL1        0.0691
     30 H          -4.2440    2.5676    0.6758 H       1  UNL1        0.2922
@<TRIPOS>BOND
     1     1     2    2
     2     2     3   ar
     3     3     4   ar
     4     4     5    1
     5     5     6   ar
     6     6     7   ar
     7     7     8   ar
     8     8     9    1
     9     8    10   ar
    10    10    11   ar
    11     4    12   ar
    12    12    13   ar
    13    13    14   ar
    14    14    15   ar
    15    15    16    1
    16    15    17   ar
    17    17    18   ar
    18    18    19    1
    19    18    20   ar
    20    20     2   ar
    21    11     5   ar
    22    20    13   ar
    23     3    21    1
    24     6    22    1
    25     7    23    1
    26     9    24    1
    27    10    25    1
    28    11    26    1
    29    14    27    1
    30    16    28    1
    31    17    29    1
    32    19    30    1
