@<TRIPOS>MOLECULE
*****
 43 46 0 0 0
SMALL
GASTEIGER

@<TRIPOS>ATOM
      1 O           0.3401   -1.4978   -1.5980 O.2     1  UNL1       -0.2866
      2 C           0.4324   -0.4790   -0.7958 C.2     1  UNL1        0.1937
      3 C           1.7005   -0.3034   -0.1828 C.ar    1  UNL1        0.0225
      4 C           2.5585   -1.4076   -0.0675 C.ar    1  UNL1       -0.0475
      5 C           3.7939   -1.3307    0.5188 C.ar    1  UNL1       -0.0190
      6 C           4.2394   -0.1205    1.0281 C.ar    1  UNL1        0.1300
      7 O           5.4921   -0.0465    1.6208 O.3     1  UNL1       -0.4057
      8 C           6.5661    0.2767    0.7248 C.3     1  UNL1        0.5752
      9 F           6.6015   -0.7245   -0.2524 F       1  UNL1       -0.1328
     10 F           7.7684    0.2434    1.3929 F       1  UNL1       -0.1328
     11 F           6.3779    1.4783    0.0901 F       1  UNL1       -0.1328
     12 C           3.4228    0.9751    0.9294 C.ar    1  UNL1       -0.0190
     13 C           2.1637    0.8647    0.3242 C.ar    1  UNL1       -0.0475
     14 C          -0.7759    0.3001   -0.6611 C.ar    1  UNL1        0.0306
     15 C          -0.9229    1.6413   -0.8098 C.ar    1  UNL1       -0.0426
     16 C          -2.1508    2.3114   -0.6940 C.ar    1  UNL1       -0.0172
     17 C          -2.1921    3.6776   -0.8610 C.ar    1  UNL1       -0.0540
     18 C          -3.4063    4.3424   -0.7460 C.ar    1  UNL1       -0.0612
     19 C          -4.5255    3.5884   -0.4660 C.ar    1  UNL1       -0.0612
     20 C          -4.4543    2.2166   -0.3034 C.ar    1  UNL1       -0.0540
     21 C          -3.2581    1.5499   -0.4152 C.ar    1  UNL1       -0.0173
     22 C          -3.1846    0.1840   -0.2529 C.ar    1  UNL1       -0.0456
     23 C          -1.9528   -0.4105   -0.3779 C.ar    1  UNL1       -0.0050
     24 C          -1.8996   -1.8765   -0.2008 C.ar    1  UNL1        0.0009
     25 C          -0.9646   -2.4681    0.6254 C.ar    1  UNL1       -0.0511
     26 C          -0.9649   -3.8490    0.7250 C.ar    1  UNL1       -0.0430
     27 C          -1.8506   -4.6629    0.0421 C.ar    1  UNL1        0.0276
     28 N          -2.7452   -4.0516   -0.7513 N.ar    1  UNL1       -0.2627
     29 C          -2.7701   -2.7133   -0.8692 C.ar    1  UNL1        0.0353
     30 H           2.2488   -2.3607   -0.4489 H       1  UNL1        0.0626
     31 H           4.4668   -2.1728    0.6173 H       1  UNL1        0.0654
     32 H           3.7524    1.9393    1.3219 H       1  UNL1        0.0654
     33 H           1.6097    1.7718    0.3115 H       1  UNL1        0.0626
     34 H          -0.0668    2.2482   -1.0569 H       1  UNL1        0.0631
     35 H          -1.3053    4.2519   -1.0790 H       1  UNL1        0.0624
     36 H          -3.4628    5.4301   -0.8750 H       1  UNL1        0.0618
     37 H          -5.4608    4.1153   -0.3784 H       1  UNL1        0.0618
     38 H          -5.3293    1.6257   -0.0845 H       1  UNL1        0.0624
     39 H          -4.0762   -0.4216   -0.0306 H       1  UNL1        0.0630
     40 H          -0.2802   -1.8573    1.1634 H       1  UNL1        0.0625
     41 H          -0.2250   -4.3259    1.3788 H       1  UNL1        0.0633
     42 H          -1.8032   -5.7355    0.1577 H       1  UNL1        0.0829
     43 H          -3.5071   -2.2166   -1.5205 H       1  UNL1        0.0836
@<TRIPOS>BOND
     1     1     2    2
     2     2     3    1
     3     3     4   ar
     4     4     5   ar
     5     5     6   ar
     6     6     7    1
     7     7     8    1
     8     8     9    1
     9     8    10    1
    10     8    11    1
    11     6    12   ar
    12    12    13   ar
    13     2    14    1
    14    14    15   ar
    15    15    16   ar
    16    16    17   ar
    17    17    18   ar
    18    18    19   ar
    19    19    20   ar
    20    20    21   ar
    21    21    22   ar
    22    22    23   ar
    23    23    24    1
    24    24    25   ar
    25    25    26   ar
    26    26    27   ar
    27    27    28   ar
    28    28    29   ar
    29    13     3   ar
    30    23    14   ar
    31    29    24   ar
    32    21    16   ar
    33     4    30    1
    34     5    31    1
    35    12    32    1
    36    13    33    1
    37    15    34    1
    38    17    35    1
    39    18    36    1
    40    19    37    1
    41    20    38    1
    42    22    39    1
    43    25    40    1
    44    26    41    1
    45    27    42    1
    46    29    43    1
