
     RDKit          3D

 43 46  0  0  0  0  0  0  0  0999 V2000
    0.3401   -1.4978   -1.5980 O   0  0  0  0  0  0  0  0  0  0  0  0
    0.4324   -0.4790   -0.7958 C   0  0  0  0  0  0  0  0  0  0  0  0
    1.7005   -0.3034   -0.1828 C   0  0  0  0  0  0  0  0  0  0  0  0
    2.5585   -1.4076   -0.0675 C   0  0  0  0  0  0  0  0  0  0  0  0
    3.7939   -1.3307    0.5188 C   0  0  0  0  0  0  0  0  0  0  0  0
    4.2394   -0.1205    1.0281 C   0  0  0  0  0  0  0  0  0  0  0  0
    5.4921   -0.0465    1.6208 O   0  0  0  0  0  0  0  0  0  0  0  0
    6.5661    0.2767    0.7248 C   0  0  0  0  0  0  0  0  0  0  0  0
    6.6015   -0.7245   -0.2524 F   0  0  0  0  0  0  0  0  0  0  0  0
    7.7684    0.2434    1.3929 F   0  0  0  0  0  0  0  0  0  0  0  0
    6.3779    1.4783    0.0901 F   0  0  0  0  0  0  0  0  0  0  0  0
    3.4228    0.9751    0.9294 C   0  0  0  0  0  0  0  0  0  0  0  0
    2.1637    0.8647    0.3242 C   0  0  0  0  0  0  0  0  0  0  0  0
   -0.7759    0.3001   -0.6611 C   0  0  0  0  0  0  0  0  0  0  0  0
   -0.9229    1.6413   -0.8098 C   0  0  0  0  0  0  0  0  0  0  0  0
   -2.1508    2.3114   -0.6940 C   0  0  0  0  0  0  0  0  0  0  0  0
   -2.1921    3.6776   -0.8610 C   0  0  0  0  0  0  0  0  0  0  0  0
   -3.4063    4.3424   -0.7460 C   0  0  0  0  0  0  0  0  0  0  0  0
   -4.5255    3.5884   -0.4660 C   0  0  0  0  0  0  0  0  0  0  0  0
   -4.4543    2.2166   -0.3034 C   0  0  0  0  0  0  0  0  0  0  0  0
   -3.2581    1.5499   -0.4152 C   0  0  0  0  0  0  0  0  0  0  0  0
   -3.1846    0.1840   -0.2529 C   0  0  0  0  0  0  0  0  0  0  0  0
   -1.9528   -0.4105   -0.3779 C   0  0  0  0  0  0  0  0  0  0  0  0
   -1.8996   -1.8765   -0.2008 C   0  0  0  0  0  0  0  0  0  0  0  0
   -0.9646   -2.4681    0.6254 C   0  0  0  0  0  0  0  0  0  0  0  0
   -0.9649   -3.8490    0.7250 C   0  0  0  0  0  0  0  0  0  0  0  0
   -1.8506   -4.6629    0.0421 C   0  0  0  0  0  0  0  0  0  0  0  0
   -2.7452   -4.0516   -0.7513 N   0  0  0  0  0  0  0  0  0  0  0  0
   -2.7701   -2.7133   -0.8692 C   0  0  0  0  0  0  0  0  0  0  0  0
    2.2488   -2.3607   -0.4489 H   0  0  0  0  0  0  0  0  0  0  0  0
    4.4668   -2.1728    0.6173 H   0  0  0  0  0  0  0  0  0  0  0  0
    3.7524    1.9393    1.3219 H   0  0  0  0  0  0  0  0  0  0  0  0
    1.6097    1.7718    0.3115 H   0  0  0  0  0  0  0  0  0  0  0  0
   -0.0668    2.2482   -1.0569 H   0  0  0  0  0  0  0  0  0  0  0  0
   -1.3053    4.2519   -1.0790 H   0  0  0  0  0  0  0  0  0  0  0  0
   -3.4628    5.4301   -0.8750 H   0  0  0  0  0  0  0  0  0  0  0  0
   -5.4608    4.1153   -0.3784 H   0  0  0  0  0  0  0  0  0  0  0  0
   -5.3293    1.6257   -0.0845 H   0  0  0  0  0  0  0  0  0  0  0  0
   -4.0762   -0.4216   -0.0306 H   0  0  0  0  0  0  0  0  0  0  0  0
   -0.2802   -1.8573    1.1634 H   0  0  0  0  0  0  0  0  0  0  0  0
   -0.2250   -4.3259    1.3788 H   0  0  0  0  0  0  0  0  0  0  0  0
   -1.8032   -5.7355    0.1577 H   0  0  0  0  0  0  0  0  0  0  0  0
   -3.5071   -2.2166   -1.5205 H   0  0  0  0  0  0  0  0  0  0  0  0
  1  2  2  0
  2  3  1  0
  3  4  2  0
  4  5  1  0
  5  6  2  0
  6  7  1  0
  7  8  1  0
  8  9  1  0
  8 10  1  0
  8 11  1  0
  6 12  1  0
 12 13  2  0
  2 14  1  0
 14 15  2  0
 15 16  1  0
 16 17  2  0
 17 18  1  0
 18 19  2  0
 19 20  1  0
 20 21  2  0
 21 22  1  0
 22 23  2  0
 23 24  1  0
 24 25  2  0
 25 26  1  0
 26 27  2  0
 27 28  1  0
 28 29  2  0
 13  3  1  0
 23 14  1  0
 29 24  1  0
 21 16  1  0
  4 30  1  0
  5 31  1  0
 12 32  1  0
 13 33  1  0
 15 34  1  0
 17 35  1  0
 18 36  1  0
 19 37  1  0
 20 38  1  0
 22 39  1  0
 25 40  1  0
 26 41  1  0
 27 42  1  0
 29 43  1  0
M  END
$$$$
