@<TRIPOS>MOLECULE
*****
 36 38 0 0 0
SMALL
GASTEIGER

@<TRIPOS>ATOM
      1 C           6.6156    0.8157    1.3000 C.3     1  UNL1        0.0788
      2 O           5.6695   -0.1344    1.7486 O.3     1  UNL1       -0.4951
      3 C           4.4152   -0.2318    1.1213 C.ar    1  UNL1        0.1202
      4 C           3.4740   -1.1423    1.5311 C.ar    1  UNL1       -0.0180
      5 C           2.2249   -1.2513    0.9188 C.ar    1  UNL1       -0.0337
      6 C           1.9519   -0.4177   -0.1166 C.ar    1  UNL1        0.0585
      7 N           0.7078   -0.4258   -0.8320 N.ar    1  UNL1       -0.2273
      8 S           0.2953   -1.5516   -2.1186 S.2     1  UNL1        0.0597
      9 C          -1.3353   -0.8554   -2.3958 C.ar    1  UNL1        0.3113
     10 O          -2.1808   -1.2505   -3.2460 O.2     1  UNL1       -0.2578
     11 N          -1.3874    0.1397   -1.4956 N.ar    1  UNL1       -0.2489
     12 C          -2.6402    0.9484   -1.4583 C.3     1  UNL1        0.0565
     13 C          -3.6315    0.3944   -0.5416 C.ar    1  UNL1       -0.0273
     14 C          -4.5887   -0.5398   -0.9176 C.ar    1  UNL1       -0.0542
     15 C          -5.5168   -1.0462   -0.0209 C.ar    1  UNL1       -0.0261
     16 C          -5.5153   -0.6292    1.2915 C.ar    1  UNL1        0.1234
     17 F          -6.4166   -1.1152    2.1806 F       1  UNL1       -0.2055
     18 C          -4.5701    0.2963    1.6721 C.ar    1  UNL1       -0.0261
     19 C          -3.6299    0.8119    0.7721 C.ar    1  UNL1       -0.0542
     20 C          -0.3491    0.3226   -0.7340 C.ar    1  UNL1        0.3435
     21 O          -0.3567    1.2762    0.1527 O.2     1  UNL1       -0.2453
     22 C           2.8936    0.5008   -0.5346 C.ar    1  UNL1       -0.0337
     23 C           4.1312    0.6135    0.0671 C.ar    1  UNL1       -0.0180
     24 H           6.7640    0.7670    0.2005 H       1  UNL1        0.0660
     25 H           6.3577    1.8418    1.6501 H       1  UNL1        0.0660
     26 H           7.6092    0.5187    1.7438 H       1  UNL1        0.0660
     27 H           3.7276   -1.7949    2.3649 H       1  UNL1        0.0655
     28 H           1.4936   -1.9637    1.2426 H       1  UNL1        0.0640
     29 H          -3.0736    1.0543   -2.4563 H       1  UNL1        0.0544
     30 H          -2.3899    1.9831   -1.1155 H       1  UNL1        0.0544
     31 H          -4.5686   -0.8478   -1.9440 H       1  UNL1        0.0622
     32 H          -6.2472   -1.7763   -0.3622 H       1  UNL1        0.0646
     33 H          -4.5819    0.6132    2.7047 H       1  UNL1        0.0646
     34 H          -2.9072    1.5433    1.1365 H       1  UNL1        0.0622
     35 H           2.6871    1.1828   -1.3719 H       1  UNL1        0.0640
     36 H           4.8688    1.3504   -0.2786 H       1  UNL1        0.0655
@<TRIPOS>BOND
     1     1     2    1
     2     2     3    1
     3     3     4   ar
     4     4     5   ar
     5     5     6   ar
     6     6     7    1
     7     7     8   ar
     8     8     9   ar
     9     9    10    2
    10     9    11   ar
    11    11    12    1
    12    12    13    1
    13    13    14   ar
    14    14    15   ar
    15    15    16   ar
    16    16    17    1
    17    16    18   ar
    18    18    19   ar
    19    11    20   ar
    20    20    21    2
    21     6    22   ar
    22    22    23   ar
    23    23     3   ar
    24    20     7   ar
    25    19    13   ar
    26     1    24    1
    27     1    25    1
    28     1    26    1
    29     4    27    1
    30     5    28    1
    31    12    29    1
    32    12    30    1
    33    14    31    1
    34    15    32    1
    35    18    33    1
    36    19    34    1
    37    22    35    1
    38    23    36    1
