
     RDKit          3D

 36 38  0  0  0  0  0  0  0  0999 V2000
    6.6156    0.8157    1.3000 C   0  0  0  0  0  0  0  0  0  0  0  0
    5.6695   -0.1344    1.7486 O   0  0  0  0  0  0  0  0  0  0  0  0
    4.4152   -0.2318    1.1213 C   0  0  0  0  0  0  0  0  0  0  0  0
    3.4740   -1.1423    1.5311 C   0  0  0  0  0  0  0  0  0  0  0  0
    2.2249   -1.2513    0.9188 C   0  0  0  0  0  0  0  0  0  0  0  0
    1.9519   -0.4177   -0.1166 C   0  0  0  0  0  0  0  0  0  0  0  0
    0.7078   -0.4258   -0.8320 N   0  0  0  0  0  0  0  0  0  0  0  0
    0.2953   -1.5516   -2.1186 S   0  0  0  0  0  0  0  0  0  0  0  0
   -1.3353   -0.8554   -2.3958 C   0  0  0  0  0  0  0  0  0  0  0  0
   -2.1808   -1.2505   -3.2460 O   0  0  0  0  0  0  0  0  0  0  0  0
   -1.3874    0.1397   -1.4956 N   0  0  0  0  0  0  0  0  0  0  0  0
   -2.6402    0.9484   -1.4583 C   0  0  0  0  0  0  0  0  0  0  0  0
   -3.6315    0.3944   -0.5416 C   0  0  0  0  0  0  0  0  0  0  0  0
   -4.5887   -0.5398   -0.9176 C   0  0  0  0  0  0  0  0  0  0  0  0
   -5.5168   -1.0462   -0.0209 C   0  0  0  0  0  0  0  0  0  0  0  0
   -5.5153   -0.6292    1.2915 C   0  0  0  0  0  0  0  0  0  0  0  0
   -6.4166   -1.1152    2.1806 F   0  0  0  0  0  0  0  0  0  0  0  0
   -4.5701    0.2963    1.6721 C   0  0  0  0  0  0  0  0  0  0  0  0
   -3.6299    0.8119    0.7721 C   0  0  0  0  0  0  0  0  0  0  0  0
   -0.3491    0.3226   -0.7340 C   0  0  0  0  0  0  0  0  0  0  0  0
   -0.3567    1.2762    0.1527 O   0  0  0  0  0  0  0  0  0  0  0  0
    2.8936    0.5008   -0.5346 C   0  0  0  0  0  0  0  0  0  0  0  0
    4.1312    0.6135    0.0671 C   0  0  0  0  0  0  0  0  0  0  0  0
    6.7640    0.7670    0.2005 H   0  0  0  0  0  0  0  0  0  0  0  0
    6.3577    1.8418    1.6501 H   0  0  0  0  0  0  0  0  0  0  0  0
    7.6092    0.5187    1.7438 H   0  0  0  0  0  0  0  0  0  0  0  0
    3.7276   -1.7949    2.3649 H   0  0  0  0  0  0  0  0  0  0  0  0
    1.4936   -1.9637    1.2426 H   0  0  0  0  0  0  0  0  0  0  0  0
   -3.0736    1.0543   -2.4563 H   0  0  0  0  0  0  0  0  0  0  0  0
   -2.3899    1.9831   -1.1155 H   0  0  0  0  0  0  0  0  0  0  0  0
   -4.5686   -0.8478   -1.9440 H   0  0  0  0  0  0  0  0  0  0  0  0
   -6.2472   -1.7763   -0.3622 H   0  0  0  0  0  0  0  0  0  0  0  0
   -4.5819    0.6132    2.7047 H   0  0  0  0  0  0  0  0  0  0  0  0
   -2.9072    1.5433    1.1365 H   0  0  0  0  0  0  0  0  0  0  0  0
    2.6871    1.1828   -1.3719 H   0  0  0  0  0  0  0  0  0  0  0  0
    4.8688    1.3504   -0.2786 H   0  0  0  0  0  0  0  0  0  0  0  0
  1  2  1  0
  2  3  1  0
  3  4  2  0
  4  5  1  0
  5  6  2  0
  6  7  1  0
  7  8  1  0
  8  9  1  0
  9 10  2  0
  9 11  1  0
 11 12  1  0
 12 13  1  0
 13 14  2  0
 14 15  1  0
 15 16  2  0
 16 17  1  0
 16 18  1  0
 18 19  2  0
 11 20  1  0
 20 21  2  0
  6 22  1  0
 22 23  2  0
 23  3  1  0
 20  7  1  0
 19 13  1  0
  1 24  1  0
  1 25  1  0
  1 26  1  0
  4 27  1  0
  5 28  1  0
 12 29  1  0
 12 30  1  0
 14 31  1  0
 15 32  1  0
 18 33  1  0
 19 34  1  0
 22 35  1  0
 23 36  1  0
M  END
$$$$
