@<TRIPOS>MOLECULE
*****
 81 82 0 0 0
SMALL
GASTEIGER

@<TRIPOS>ATOM
      1 CL          0.0000    0.0000    0.0000 Cl      1  UNL1        0.0000
      2 CL          0.0000    0.0000    0.0000 Cl      2  UNL2        0.0000
      3 SN          0.0000    0.0000    0.0000 Sn      3  UNL3        0.0000
      4 C          -5.9750    3.1536   -1.2762 C.3     4  UNL4        0.0000
      5 C          -5.5733    3.0289    0.1528 C.3     4  UNL4        0.0000
      6 C          -4.1514    2.5849    0.3355 C.ar    4  UNL4        0.0000
      7 C          -3.6405    1.3128    0.1808 C.ar    4  UNL4        0.0000
      8 N          -2.3279    1.3882    0.4448 N.ar    4  UNL4       -1.0000
      9 C          -1.9947    2.6545    0.7588 C.ar    4  UNL4        0.0000
     10 C          -0.7389    3.1018    1.0878 C.2     4  UNL4        0.0000
     11 C           0.4768    2.6634    0.6133 C.2     4  UNL4        0.0000
     12 N           0.8549    1.3940    0.6094 N.2     4  UNL4        0.0000
     13 C           2.0812    1.3405    0.0827 C.2     4  UNL4        0.0000
     14 C           2.6562    0.1098   -0.0229 C.2     4  UNL4        0.0000
     15 C           1.9960   -1.1087   -0.1121 C.ar    4  UNL4        0.0000
     16 N           0.7455   -1.2277   -0.5445 N.ar    4  UNL4       -1.0000
     17 C           0.4252   -2.5316   -0.5047 C.ar    4  UNL4        0.0000
     18 C          -0.7976   -3.0537   -0.8822 C.2     4  UNL4        0.0000
     19 C          -2.0649   -2.5513   -0.6240 C.2     4  UNL4        0.0000
     20 N          -2.3195   -1.2219   -0.5621 N.2     4  UNL4        0.0000
     21 C          -3.6114   -1.0753   -0.3037 C.2     4  UNL4        0.0000
     22 C          -4.2564    0.1343   -0.1684 C.2     4  UNL4        0.0000
     23 C          -4.2483   -2.4038   -0.1876 C.2     4  UNL4        0.0000
     24 C          -5.6693   -2.7257    0.0951 C.3     4  UNL4        0.0000
     25 C          -3.2925   -3.2958   -0.3858 C.2     4  UNL4        0.0000
     26 C          -3.5100   -4.7660   -0.3614 C.3     4  UNL4        0.0000
     27 C          -2.6851   -5.4318    0.7182 C.3     4  UNL4        0.0000
     28 C           1.4955   -3.2779   -0.0344 C.ar    4  UNL4        0.0000
     29 C           1.6801   -4.7334    0.1997 C.3     4  UNL4        0.0000
     30 C           2.5125   -2.3662    0.2212 C.ar    4  UNL4        0.0000
     31 C           3.8704   -2.6806    0.7355 C.3     4  UNL4        0.0000
     32 C           4.9266   -2.6621   -0.3221 C.3     4  UNL4        0.0000
     33 C           6.2333   -2.9958    0.3404 C.2     4  UNL4        0.0000
     34 O           6.8381   -4.2565    0.1945 O.3     4  UNL4        0.0000
     35 O           6.8673   -2.1927    1.0572 O.2     4  UNL4        0.0000
     36 C           2.5700    2.6605   -0.2957 C.2     4  UNL4        0.0000
     37 C           3.8385    3.1163   -0.9159 C.3     4  UNL4        0.0000
     38 C           5.0552    2.9088   -0.0678 C.3     4  UNL4        0.0000
     39 C           6.2800    3.4177   -0.7908 C.2     4  UNL4        0.0000
     40 O           7.4149    3.2257   -0.0172 O.3     4  UNL4        0.0000
     41 O           6.5047    3.9640   -1.9100 O.2     4  UNL4        0.0000
     42 C           1.5484    3.4709    0.0454 C.2     4  UNL4        0.0000
     43 C           1.5578    4.9466   -0.1480 C.3     4  UNL4        0.0000
     44 C          -3.1318    3.4410    0.6981 C.ar    4  UNL4        0.0000
     45 C          -3.2873    4.8996    0.9581 C.3     4  UNL4        0.0000
     46 H          -6.3208    4.2141   -1.4072 H       4  UNL4        0.0000
     47 H          -5.2208    2.8716   -2.0138 H       4  UNL4        0.0000
     48 H          -6.8922    2.5382   -1.4944 H       4  UNL4        0.0000
     49 H          -5.7526    3.9429    0.7720 H       4  UNL4        0.0000
     50 H          -6.2171    2.2466    0.6306 H       4  UNL4        0.0000
     51 H          -0.6308    3.9143    1.8220 H       4  UNL4        0.0000
     52 H           3.7263    0.0917   -0.0397 H       4  UNL4        0.0000
     53 H          -0.7684   -3.9905   -1.4671 H       4  UNL4        0.0000
     54 H          -5.3424    0.1874   -0.3502 H       4  UNL4        0.0000
     55 H          -6.2348   -2.8371   -0.8601 H       4  UNL4        0.0000
     56 H          -5.7657   -3.6291    0.7263 H       4  UNL4        0.0000
     57 H          -6.1536   -1.8711    0.6352 H       4  UNL4        0.0000
     58 H          -3.1942   -5.1779   -1.3428 H       4  UNL4        0.0000
     59 H          -4.5723   -5.0145   -0.1679 H       4  UNL4        0.0000
     60 H          -3.0939   -6.4333    0.9784 H       4  UNL4        0.0000
     61 H          -1.6113   -5.4377    0.5267 H       4  UNL4        0.0000
     62 H          -2.8526   -4.8222    1.6519 H       4  UNL4        0.0000
     63 H           0.7358   -5.2673    0.1472 H       4  UNL4        0.0000
     64 H           2.4645   -5.0909   -0.5019 H       4  UNL4        0.0000
     65 H           2.1031   -4.8879    1.2161 H       4  UNL4        0.0000
     66 H           3.8475   -3.7053    1.1585 H       4  UNL4        0.0000
     67 H           4.1629   -2.0027    1.5535 H       4  UNL4        0.0000
     68 H           5.0850   -1.7003   -0.8255 H       4  UNL4        0.0000
     69 H           4.7685   -3.4701   -1.0819 H       4  UNL4        0.0000
     70 H           7.6124   -4.5328    0.7738 H       4  UNL4        0.0000
     71 H           3.9536    2.6137   -1.9209 H       4  UNL4        0.0000
     72 H           3.7551    4.2066   -1.1154 H       4  UNL4        0.0000
     73 H           5.2397    1.8312    0.0609 H       4  UNL4        0.0000
     74 H           4.9770    3.3713    0.9277 H       4  UNL4        0.0000
     75 H           8.2715    3.7746   -0.1947 H       4  UNL4        0.0000
     76 H           0.6436    5.3771    0.2994 H       4  UNL4        0.0000
     77 H           1.6655    5.1489   -1.2324 H       4  UNL4        0.0000
     78 H           2.4283    5.3938    0.4010 H       4  UNL4        0.0000
     79 H          -2.3429    5.4082    0.7128 H       4  UNL4        0.0000
     80 H          -3.5570    5.0379    2.0214 H       4  UNL4        0.0000
     81 H          -4.0702    5.3411    0.2861 H       4  UNL4        0.0000
@<TRIPOS>UNITY_ATOM_ATTR
1 1
charge -1
2 1
charge -1
3 1
charge 4
8 1
charge -1
16 1
charge -1
@<TRIPOS>BOND
     1     4     5    1
     2     5     6    1
     3     6     7   ar
     4     7     8   ar
     5     8     9   ar
     6     9    10    1
     7    10    11    2
     8    11    12    1
     9    12    13    2
    10    13    14    1
    11    14    15    2
    12    15    16   ar
    13    16    17   ar
    14    17    18    2
    15    18    19    1
    16    19    20    2
    17    20    21    1
    18    21    22    2
    19    21    23    1
    20    23    24    1
    21    23    25    2
    22    25    26    1
    23    26    27    1
    24    17    28   ar
    25    28    29    1
    26    28    30   ar
    27    30    31    1
    28    31    32    1
    29    32    33    1
    30    33    34    1
    31    33    35    2
    32    13    36    1
    33    36    37    1
    34    37    38    1
    35    38    39    1
    36    39    40    1
    37    39    41    2
    38    36    42    2
    39    42    43    1
    40     9    44   ar
    41    44    45    1
    42    44     6   ar
    43    22     7    1
    44    42    11    1
    45    30    15   ar
    46    25    19    1
    47     4    46    1
    48     4    47    1
    49     4    48    1
    50     5    49    1
    51     5    50    1
    52    10    51    1
    53    14    52    1
    54    18    53    1
    55    22    54    1
    56    24    55    1
    57    24    56    1
    58    24    57    1
    59    26    58    1
    60    26    59    1
    61    27    60    1
    62    27    61    1
    63    27    62    1
    64    29    63    1
    65    29    64    1
    66    29    65    1
    67    31    66    1
    68    31    67    1
    69    32    68    1
    70    32    69    1
    71    34    70    1
    72    37    71    1
    73    37    72    1
    74    38    73    1
    75    38    74    1
    76    40    75    1
    77    43    76    1
    78    43    77    1
    79    43    78    1
    80    45    79    1
    81    45    80    1
    82    45    81    1
