@<TRIPOS>MOLECULE
*****
 42 44 0 0 0
SMALL
GASTEIGER

@<TRIPOS>ATOM
      1 C          -3.8987    2.0715   -0.3683 C.3     1  UNL1       -0.0612
      2 C          -3.6618    0.9915   -1.4109 C.3     1  UNL1       -0.0286
      3 C          -3.0494   -0.2025   -0.7841 C.ar    1  UNL1       -0.0237
      4 C          -1.7100   -0.2060   -0.4619 C.ar    1  UNL1        0.0502
      5 N          -0.6881    0.6869   -0.5849 N.ar    1  UNL1       -0.3552
      6 C           0.4426    0.1522   -0.0963 C.ar    1  UNL1        0.0531
      7 C           0.1975   -1.1343    0.3730 C.ar    1  UNL1       -0.0141
      8 C           1.2133   -2.0268    0.9839 C.3     1  UNL1       -0.0018
      9 C           2.3057   -1.2179    1.5401 C.3     1  UNL1        0.0529
     10 O           2.5447    0.0049    1.0628 O.3     1  UNL1       -0.3664
     11 C           1.8550    0.5715    0.0652 C.3     1  UNL1        0.1190
     12 C           1.8253    2.0751    0.3745 C.3     1  UNL1       -0.0205
     13 C           3.2008    2.6349    0.5615 C.3     1  UNL1       -0.0623
     14 C           2.6197    0.4001   -1.2542 C.3     1  UNL1        0.0793
     15 C           2.6053   -1.0048   -1.7029 C.2     1  UNL1        0.3079
     16 O           3.6169   -1.9716   -1.6113 O.3     1  UNL1       -0.4805
     17 O           1.4989   -1.3443   -2.2444 O.2     1  UNL1       -0.2509
     18 C          -1.1578   -1.3387    0.1338 C.ar    1  UNL1        0.0035
     19 C          -1.9717   -2.4425    0.3907 C.ar    1  UNL1       -0.0523
     20 C          -3.2888   -2.3909    0.0539 C.ar    1  UNL1       -0.0608
     21 C          -3.8807   -1.2891   -0.5387 C.ar    1  UNL1       -0.0566
     22 H          -4.9915    2.3574   -0.3547 H       1  UNL1        0.0233
     23 H          -3.7294    1.6642    0.6633 H       1  UNL1        0.0233
     24 H          -3.3188    2.9966   -0.5601 H       1  UNL1        0.0233
     25 H          -2.9448    1.4379   -2.1520 H       1  UNL1        0.0311
     26 H          -4.6313    0.7553   -1.8953 H       1  UNL1        0.0311
     27 H          -0.7745    1.6461   -0.9990 H       1  UNL1        0.1657
     28 H           1.4578   -2.8047    0.2595 H       1  UNL1        0.0336
     29 H           0.6698   -2.5787    1.8075 H       1  UNL1        0.0336
     30 H           2.1618   -1.1266    2.6540 H       1  UNL1        0.0563
     31 H           3.2483   -1.8306    1.4718 H       1  UNL1        0.0563
     32 H           1.2738    2.2659    1.3162 H       1  UNL1        0.0294
     33 H           1.3295    2.6641   -0.4206 H       1  UNL1        0.0294
     34 H           3.7322    2.8122   -0.4031 H       1  UNL1        0.0231
     35 H           3.0798    3.6529    0.9904 H       1  UNL1        0.0231
     36 H           3.8294    2.0871    1.2908 H       1  UNL1        0.0231
     37 H           2.2795    1.1073   -2.0318 H       1  UNL1        0.0410
     38 H           3.7009    0.6242   -1.0864 H       1  UNL1        0.0410
     39 H           3.4176   -2.9104   -1.9608 H       1  UNL1        0.2951
     40 H          -1.5362   -3.3249    0.8564 H       1  UNL1        0.0624
     41 H          -3.9352   -3.2247    0.2397 H       1  UNL1        0.0618
     42 H          -4.9374   -1.2897   -0.7916 H       1  UNL1        0.0621
@<TRIPOS>BOND
     1     1     2    1
     2     2     3    1
     3     3     4   ar
     4     4     5   ar
     5     5     6   ar
     6     6     7   ar
     7     7     8    1
     8     8     9    1
     9     9    10    1
    10    10    11    1
    11    11    12    1
    12    12    13    1
    13    11    14    1
    14    14    15    1
    15    15    16    1
    16    15    17    2
    17     7    18   ar
    18    18    19   ar
    19    19    20   ar
    20    20    21   ar
    21    21     3   ar
    22    18     4   ar
    23    11     6    1
    24     1    22    1
    25     1    23    1
    26     1    24    1
    27     2    25    1
    28     2    26    1
    29     5    27    1
    30     8    28    1
    31     8    29    1
    32     9    30    1
    33     9    31    1
    34    12    32    1
    35    12    33    1
    36    13    34    1
    37    13    35    1
    38    13    36    1
    39    14    37    1
    40    14    38    1
    41    16    39    1
    42    19    40    1
    43    20    41    1
    44    21    42    1
