
     RDKit          3D

 42 44  0  0  0  0  0  0  0  0999 V2000
   -3.8987    2.0715   -0.3683 C   0  0  0  0  0  0  0  0  0  0  0  0
   -3.6618    0.9915   -1.4109 C   0  0  0  0  0  0  0  0  0  0  0  0
   -3.0494   -0.2025   -0.7841 C   0  0  0  0  0  0  0  0  0  0  0  0
   -1.7100   -0.2060   -0.4619 C   0  0  0  0  0  0  0  0  0  0  0  0
   -0.6881    0.6869   -0.5849 N   0  0  0  0  0  0  0  0  0  0  0  0
    0.4426    0.1522   -0.0963 C   0  0  0  0  0  0  0  0  0  0  0  0
    0.1975   -1.1343    0.3730 C   0  0  0  0  0  0  0  0  0  0  0  0
    1.2133   -2.0268    0.9839 C   0  0  0  0  0  0  0  0  0  0  0  0
    2.3057   -1.2179    1.5401 C   0  0  0  0  0  0  0  0  0  0  0  0
    2.5447    0.0049    1.0628 O   0  0  0  0  0  0  0  0  0  0  0  0
    1.8550    0.5715    0.0652 C   0  0  0  0  0  0  0  0  0  0  0  0
    1.8253    2.0751    0.3745 C   0  0  0  0  0  0  0  0  0  0  0  0
    3.2008    2.6349    0.5615 C   0  0  0  0  0  0  0  0  0  0  0  0
    2.6197    0.4001   -1.2542 C   0  0  0  0  0  0  0  0  0  0  0  0
    2.6053   -1.0048   -1.7029 C   0  0  0  0  0  0  0  0  0  0  0  0
    3.6169   -1.9716   -1.6113 O   0  0  0  0  0  0  0  0  0  0  0  0
    1.4989   -1.3443   -2.2444 O   0  0  0  0  0  0  0  0  0  0  0  0
   -1.1578   -1.3387    0.1338 C   0  0  0  0  0  0  0  0  0  0  0  0
   -1.9717   -2.4425    0.3907 C   0  0  0  0  0  0  0  0  0  0  0  0
   -3.2888   -2.3909    0.0539 C   0  0  0  0  0  0  0  0  0  0  0  0
   -3.8807   -1.2891   -0.5387 C   0  0  0  0  0  0  0  0  0  0  0  0
   -4.9915    2.3574   -0.3547 H   0  0  0  0  0  0  0  0  0  0  0  0
   -3.7294    1.6642    0.6633 H   0  0  0  0  0  0  0  0  0  0  0  0
   -3.3188    2.9966   -0.5601 H   0  0  0  0  0  0  0  0  0  0  0  0
   -2.9448    1.4379   -2.1520 H   0  0  0  0  0  0  0  0  0  0  0  0
   -4.6313    0.7553   -1.8953 H   0  0  0  0  0  0  0  0  0  0  0  0
   -0.7745    1.6461   -0.9990 H   0  0  0  0  0  0  0  0  0  0  0  0
    1.4578   -2.8047    0.2595 H   0  0  0  0  0  0  0  0  0  0  0  0
    0.6698   -2.5787    1.8075 H   0  0  0  0  0  0  0  0  0  0  0  0
    2.1618   -1.1266    2.6540 H   0  0  0  0  0  0  0  0  0  0  0  0
    3.2483   -1.8306    1.4718 H   0  0  0  0  0  0  0  0  0  0  0  0
    1.2738    2.2659    1.3162 H   0  0  0  0  0  0  0  0  0  0  0  0
    1.3295    2.6641   -0.4206 H   0  0  0  0  0  0  0  0  0  0  0  0
    3.7322    2.8122   -0.4031 H   0  0  0  0  0  0  0  0  0  0  0  0
    3.0798    3.6529    0.9904 H   0  0  0  0  0  0  0  0  0  0  0  0
    3.8294    2.0871    1.2908 H   0  0  0  0  0  0  0  0  0  0  0  0
    2.2795    1.1073   -2.0318 H   0  0  0  0  0  0  0  0  0  0  0  0
    3.7009    0.6242   -1.0864 H   0  0  0  0  0  0  0  0  0  0  0  0
    3.4176   -2.9104   -1.9608 H   0  0  0  0  0  0  0  0  0  0  0  0
   -1.5362   -3.3249    0.8564 H   0  0  0  0  0  0  0  0  0  0  0  0
   -3.9352   -3.2247    0.2397 H   0  0  0  0  0  0  0  0  0  0  0  0
   -4.9374   -1.2897   -0.7916 H   0  0  0  0  0  0  0  0  0  0  0  0
  1  2  1  0
  2  3  1  0
  3  4  2  0
  4  5  1  0
  5  6  1  0
  6  7  2  0
  7  8  1  0
  8  9  1  0
  9 10  1  0
 10 11  1  0
 11 12  1  0
 12 13  1  0
 11 14  1  0
 14 15  1  0
 15 16  1  0
 15 17  2  0
  7 18  1  0
 18 19  2  0
 19 20  1  0
 20 21  2  0
 21  3  1  0
 18  4  1  0
 11  6  1  0
  1 22  1  0
  1 23  1  0
  1 24  1  0
  2 25  1  0
  2 26  1  0
  5 27  1  0
  8 28  1  0
  8 29  1  0
  9 30  1  0
  9 31  1  0
 12 32  1  0
 12 33  1  0
 13 34  1  0
 13 35  1  0
 13 36  1  0
 14 37  1  0
 14 38  1  0
 16 39  1  0
 19 40  1  0
 20 41  1  0
 21 42  1  0
M  END
$$$$
