
     RDKit          3D

 37 39  0  0  0  0  0  0  0  0999 V2000
   -3.4191    2.0409    0.8513 C   0  0  0  0  0  0  0  0  0  0  0  0
   -2.7125    2.0017   -0.3982 N   0  0  0  0  0  0  0  0  0  0  0  0
   -2.7833    0.7381   -1.0208 C   0  0  0  0  0  0  0  0  0  0  0  0
   -2.1449   -0.3963   -0.3272 C   0  0  0  0  0  0  0  0  0  0  0  0
   -2.9417   -1.2905    0.3904 C   0  0  0  0  0  0  0  0  0  0  0  0
   -2.3827   -2.3803    1.0177 C   0  0  0  0  0  0  0  0  0  0  0  0
   -3.3869   -3.5164    1.9285 Cl  0  0  0  0  0  0  0  0  0  0  0  0
   -1.0278   -2.6340    0.9653 C   0  0  0  0  0  0  0  0  0  0  0  0
   -0.2274   -1.7552    0.2582 C   0  0  0  0  0  0  0  0  0  0  0  0
   -0.7751   -0.6627   -0.3719 C   0  0  0  0  0  0  0  0  0  0  0  0
    0.1061    0.2849   -1.0650 C   0  0  0  0  0  0  0  0  0  0  0  0
    1.2991    0.5451   -0.2895 N   0  0  0  0  0  0  0  0  0  0  0  0
    1.3897    1.4407    0.6971 C   0  0  0  0  0  0  0  0  0  0  0  0
    0.1265    2.3454    1.1695 S   0  0  0  0  0  0  0  0  0  0  0  0
    2.5525    1.6691    1.3779 N   0  0  0  0  0  0  0  0  0  0  0  0
    3.6852    1.0086    1.0997 C   0  0  0  0  0  0  0  0  0  0  0  0
    4.7742    1.1967    1.7092 O   0  0  0  0  0  0  0  0  0  0  0  0
    3.6378    0.0750    0.0864 C   0  0  0  0  0  0  0  0  0  0  0  0
    4.5659   -0.7346   -0.4545 N   0  0  0  0  0  0  0  0  0  0  0  0
    4.0114   -1.4661   -1.4607 C   0  0  0  0  0  0  0  0  0  0  0  0
    2.6901   -1.0975   -1.5475 C   0  0  0  0  0  0  0  0  0  0  0  0
    2.4576   -0.1404   -0.5856 C   0  0  0  0  0  0  0  0  0  0  0  0
   -3.9548    3.0357    0.9032 H   0  0  0  0  0  0  0  0  0  0  0  0
   -2.7637    1.9975    1.7425 H   0  0  0  0  0  0  0  0  0  0  0  0
   -4.1520    1.2004    0.9695 H   0  0  0  0  0  0  0  0  0  0  0  0
   -3.0865    2.7251   -1.0422 H   0  0  0  0  0  0  0  0  0  0  0  0
   -2.4136    0.8488   -2.0701 H   0  0  0  0  0  0  0  0  0  0  0  0
   -3.8834    0.4977   -1.1695 H   0  0  0  0  0  0  0  0  0  0  0  0
   -4.0232   -1.1228    0.4531 H   0  0  0  0  0  0  0  0  0  0  0  0
   -0.6243   -3.4997    1.4702 H   0  0  0  0  0  0  0  0  0  0  0  0
    0.8212   -2.0115    0.2672 H   0  0  0  0  0  0  0  0  0  0  0  0
    0.4251   -0.1541   -2.0398 H   0  0  0  0  0  0  0  0  0  0  0  0
   -0.4350    1.2510   -1.2503 H   0  0  0  0  0  0  0  0  0  0  0  0
    2.6098    2.3750    2.1515 H   0  0  0  0  0  0  0  0  0  0  0  0
    5.5429   -0.7515   -0.1120 H   0  0  0  0  0  0  0  0  0  0  0  0
    4.4934   -2.1949   -2.0772 H   0  0  0  0  0  0  0  0  0  0  0  0
    1.9495   -1.4691   -2.2266 H   0  0  0  0  0  0  0  0  0  0  0  0
  1  2  1  0
  2  3  1  0
  3  4  1  0
  4  5  2  0
  5  6  1  0
  6  7  1  0
  6  8  2  0
  8  9  1  0
  9 10  2  0
 10 11  1  0
 11 12  1  0
 12 13  1  0
 13 14  2  0
 13 15  1  0
 15 16  1  0
 16 17  2  0
 16 18  1  0
 18 19  1  0
 19 20  1  0
 20 21  2  0
 21 22  1  0
 10  4  1  0
 22 12  1  0
 22 18  2  0
  1 23  1  0
  1 24  1  0
  1 25  1  0
  2 26  1  0
  3 27  1  0
  3 28  1  0
  5 29  1  0
  8 30  1  0
  9 31  1  0
 11 32  1  0
 11 33  1  0
 15 34  1  0
 19 35  1  0
 20 36  1  0
 21 37  1  0
M  END
$$$$
