@<TRIPOS>MOLECULE
*****
 37 39 0 0 0
SMALL
GASTEIGER

@<TRIPOS>ATOM
      1 C          -3.4191    2.0409    0.8513 C.3     1  UNL1       -0.0155
      2 N          -2.7125    2.0017   -0.3982 N.3     1  UNL1       -0.3150
      3 C          -2.7833    0.7381   -1.0208 C.3     1  UNL1        0.0213
      4 C          -2.1449   -0.3963   -0.3272 C.ar    1  UNL1       -0.0273
      5 C          -2.9417   -1.2905    0.3904 C.ar    1  UNL1       -0.0387
      6 C          -2.3827   -2.3803    1.0177 C.ar    1  UNL1        0.0413
      7 CL         -3.3869   -3.5164    1.9285 Cl      1  UNL1       -0.0835
      8 C          -1.0278   -2.6340    0.9653 C.ar    1  UNL1       -0.0431
      9 C          -0.2274   -1.7552    0.2582 C.ar    1  UNL1       -0.0552
     10 C          -0.7751   -0.6627   -0.3719 C.ar    1  UNL1       -0.0232
     11 C           0.1061    0.2849   -1.0650 C.3     1  UNL1        0.0510
     12 N           1.2991    0.5451   -0.2895 N.ar    1  UNL1       -0.3149
     13 C           1.3897    1.4407    0.6971 C.ar    1  UNL1        0.1614
     14 S           0.1265    2.3454    1.1695 S.2     1  UNL1       -0.0128
     15 N           2.5525    1.6691    1.3779 N.ar    1  UNL1       -0.3009
     16 C           3.6852    1.0086    1.0997 C.ar    1  UNL1        0.2761
     17 O           4.7742    1.1967    1.7092 O.2     1  UNL1       -0.2655
     18 C           3.6378    0.0750    0.0864 C.ar    1  UNL1        0.1283
     19 N           4.5659   -0.7346   -0.4545 N.ar    1  UNL1       -0.3553
     20 C           4.0114   -1.4661   -1.4607 C.ar    1  UNL1        0.0043
     21 C           2.6901   -1.0975   -1.5475 C.ar    1  UNL1       -0.0200
     22 C           2.4576   -0.1404   -0.5856 C.ar    1  UNL1        0.0743
     23 H          -3.9548    3.0357    0.9032 H       1  UNL1        0.0388
     24 H          -2.7637    1.9975    1.7425 H       1  UNL1        0.0388
     25 H          -4.1520    1.2004    0.9695 H       1  UNL1        0.0388
     26 H          -3.0865    2.7251   -1.0422 H       1  UNL1        0.1219
     27 H          -2.4136    0.8488   -2.0701 H       1  UNL1        0.0473
     28 H          -3.8834    0.4977   -1.1695 H       1  UNL1        0.0473
     29 H          -4.0232   -1.1228    0.4531 H       1  UNL1        0.0635
     30 H          -0.6243   -3.4997    1.4702 H       1  UNL1        0.0632
     31 H           0.8212   -2.0115    0.2672 H       1  UNL1        0.0621
     32 H           0.4251   -0.1541   -2.0398 H       1  UNL1        0.0542
     33 H          -0.4350    1.2510   -1.2503 H       1  UNL1        0.0542
     34 H           2.6098    2.3750    2.1515 H       1  UNL1        0.1709
     35 H           5.5429   -0.7515   -0.1120 H       1  UNL1        0.1655
     36 H           4.4934   -2.1949   -2.0772 H       1  UNL1        0.0807
     37 H           1.9495   -1.4691   -2.2266 H       1  UNL1        0.0653
@<TRIPOS>BOND
     1     1     2    1
     2     2     3    1
     3     3     4    1
     4     4     5   ar
     5     5     6   ar
     6     6     7    1
     7     6     8   ar
     8     8     9   ar
     9     9    10   ar
    10    10    11    1
    11    11    12    1
    12    12    13   ar
    13    13    14    2
    14    13    15   ar
    15    15    16   ar
    16    16    17    2
    17    16    18   ar
    18    18    19   ar
    19    19    20   ar
    20    20    21   ar
    21    21    22   ar
    22    10     4   ar
    23    22    12   ar
    24    22    18   ar
    25     1    23    1
    26     1    24    1
    27     1    25    1
    28     2    26    1
    29     3    27    1
    30     3    28    1
    31     5    29    1
    32     8    30    1
    33     9    31    1
    34    11    32    1
    35    11    33    1
    36    15    34    1
    37    19    35    1
    38    20    36    1
    39    21    37    1
