@<TRIPOS>MOLECULE
*****
 64 69 0 0 0
SMALL
GASTEIGER

@<TRIPOS>ATOM
      1 C           8.8153   -0.8822    1.1249 C.3     1  UNL1        0.0371
      2 O           7.9058   -1.7823    1.6267 O.3     1  UNL1       -0.3738
      3 C           6.6527   -1.6680    1.1038 C.3     1  UNL1        0.1235
      4 C           5.9570   -0.3932    1.3633 C.2     1  UNL1        0.2414
      5 O           6.4203    0.5391    2.0536 O.2     1  UNL1       -0.2731
      6 N           4.6520   -0.1653    0.8016 N.am    1  UNL1       -0.2955
      7 C           3.6560    0.8830    0.7966 C.3     1  UNL1        0.0371
      8 C           2.6088   -0.1299    0.4705 C.3     1  UNL1        0.0657
      9 N           1.7168    0.2422   -0.6185 N.ar    1  UNL1       -0.3417
     10 C           2.0677    0.6047   -1.8653 C.ar    1  UNL1        0.0090
     11 C           0.9517    0.8540   -2.6320 C.ar    1  UNL1       -0.0205
     12 C           0.8600    1.2783   -4.0453 C.3     1  UNL1       -0.0376
     13 C          -0.1411    0.6221   -1.7908 C.ar    1  UNL1        0.0630
     14 C           0.3585    0.2625   -0.5790 C.ar    1  UNL1        0.0570
     15 C          -0.8403    0.1715    0.3377 C.3     1  UNL1        0.0973
     16 C          -0.9957    1.5707    0.9044 C.ar    1  UNL1       -0.0208
     17 C           0.0605    2.4501    0.9479 C.ar    1  UNL1       -0.0550
     18 C          -0.0781    3.7450    1.4728 C.ar    1  UNL1       -0.0431
     19 C          -1.2813    4.1837    1.9646 C.ar    1  UNL1        0.0410
     20 CL         -1.4426    5.8001    2.6168 Cl      1  UNL1       -0.0835
     21 C          -2.3375    3.3206    1.9265 C.ar    1  UNL1       -0.0431
     22 C          -2.1924    2.0256    1.3999 C.ar    1  UNL1       -0.0550
     23 N          -1.9275   -0.0600   -0.5412 N.am    1  UNL1       -0.2530
     24 C          -3.1508   -0.7491   -0.1891 C.ar    1  UNL1        0.0545
     25 C          -3.2987   -1.3378    1.0505 C.ar    1  UNL1       -0.0324
     26 C          -4.4538   -1.9959    1.3982 C.ar    1  UNL1       -0.0041
     27 C          -4.5744   -2.6179    2.7457 C.3     1  UNL1       -0.0361
     28 C          -5.4832   -2.0765    0.5096 C.ar    1  UNL1        0.1641
     29 N          -6.7008   -2.6506    0.5926 N.ar    1  UNL1       -0.1292
     30 N          -7.3104   -2.4333   -0.5614 N.ar    1  UNL1       -0.1340
     31 C          -6.4797   -1.7331   -1.3492 C.ar    1  UNL1        0.1347
     32 C          -6.7756   -1.2816   -2.7294 C.3     1  UNL1       -0.0041
     33 N          -5.3320   -1.5035   -0.6896 N.ar    1  UNL1       -0.2846
     34 C          -4.2113   -0.8495   -1.0636 C.ar    1  UNL1        0.0344
     35 C          -1.6126    0.4533   -1.8178 C.2     1  UNL1        0.2538
     36 O          -2.3247    0.7294   -2.7918 O.2     1  UNL1       -0.2695
     37 C           3.7567   -0.9612   -0.0450 C.3     1  UNL1        0.0371
     38 H           8.5115    0.1467    1.3220 H       1  UNL1        0.0524
     39 H           9.8358   -1.1138    1.5329 H       1  UNL1        0.0524
     40 H           8.8298   -1.0207    0.0122 H       1  UNL1        0.0524
     41 H           6.7054   -1.8022   -0.0137 H       1  UNL1        0.0656
     42 H           6.0390   -2.5354    1.4937 H       1  UNL1        0.0656
     43 H           3.5353    1.3605    1.8115 H       1  UNL1        0.0485
     44 H           3.8361    1.6208   -0.0119 H       1  UNL1        0.0485
     45 H           2.0969   -0.5725    1.3348 H       1  UNL1        0.0559
     46 H           3.0864    0.6852   -2.2049 H       1  UNL1        0.0812
     47 H           1.7908    0.9465   -4.5516 H       1  UNL1        0.0278
     48 H           0.8021    2.3976   -4.1449 H       1  UNL1        0.0278
     49 H          -0.0548    0.8939   -4.5360 H       1  UNL1        0.0278
     50 H          -0.6712   -0.5540    1.1337 H       1  UNL1        0.0619
     51 H           1.0263    2.1514    0.5629 H       1  UNL1        0.0621
     52 H           0.7907    4.4019    1.4841 H       1  UNL1        0.0632
     53 H          -3.3191    3.6205    2.3057 H       1  UNL1        0.0632
     54 H          -3.0535    1.3757    1.3816 H       1  UNL1        0.0621
     55 H          -2.4606   -1.2629    1.7538 H       1  UNL1        0.0640
     56 H          -5.5749   -2.5320    3.1719 H       1  UNL1        0.0279
     57 H          -4.2787   -3.6917    2.6164 H       1  UNL1        0.0279
     58 H          -3.8374   -2.1517    3.4365 H       1  UNL1        0.0279
     59 H          -7.4563   -0.3844   -2.6999 H       1  UNL1        0.0308
     60 H          -5.8823   -1.0859   -3.3331 H       1  UNL1        0.0308
     61 H          -7.3386   -2.1245   -3.2234 H       1  UNL1        0.0308
     62 H          -4.1549   -0.4013   -2.0664 H       1  UNL1        0.0833
     63 H           3.9651   -0.8023   -1.1214 H       1  UNL1        0.0485
     64 H           3.7353   -2.0303    0.2619 H       1  UNL1        0.0485
@<TRIPOS>BOND
     1     1     2    1
     2     2     3    1
     3     3     4    1
     4     4     5    2
     5     4     6   am
     6     6     7    1
     7     7     8    1
     8     8     9    1
     9     9    10   ar
    10    10    11   ar
    11    11    12    1
    12    11    13   ar
    13    13    14   ar
    14    14    15    1
    15    15    16    1
    16    16    17   ar
    17    17    18   ar
    18    18    19   ar
    19    19    20    1
    20    19    21   ar
    21    21    22   ar
    22    15    23    1
    23    23    24    1
    24    24    25   ar
    25    25    26   ar
    26    26    27    1
    27    26    28   ar
    28    28    29   ar
    29    29    30   ar
    30    30    31   ar
    31    31    32    1
    32    31    33   ar
    33    33    34   ar
    34    23    35   am
    35    35    36    2
    36     8    37    1
    37    37     6    1
    38    14     9   ar
    39    22    16   ar
    40    34    24   ar
    41    35    13    1
    42    33    28   ar
    43     1    38    1
    44     1    39    1
    45     1    40    1
    46     3    41    1
    47     3    42    1
    48     7    43    1
    49     7    44    1
    50     8    45    1
    51    10    46    1
    52    12    47    1
    53    12    48    1
    54    12    49    1
    55    15    50    1
    56    17    51    1
    57    18    52    1
    58    21    53    1
    59    22    54    1
    60    25    55    1
    61    27    56    1
    62    27    57    1
    63    27    58    1
    64    32    59    1
    65    32    60    1
    66    32    61    1
    67    34    62    1
    68    37    63    1
    69    37    64    1
