
     RDKit          3D

 64 69  0  0  0  0  0  0  0  0999 V2000
    8.8153   -0.8822    1.1249 C   0  0  0  0  0  0  0  0  0  0  0  0
    7.9058   -1.7823    1.6267 O   0  0  0  0  0  0  0  0  0  0  0  0
    6.6527   -1.6680    1.1038 C   0  0  0  0  0  0  0  0  0  0  0  0
    5.9570   -0.3932    1.3633 C   0  0  0  0  0  0  0  0  0  0  0  0
    6.4203    0.5391    2.0536 O   0  0  0  0  0  0  0  0  0  0  0  0
    4.6520   -0.1653    0.8016 N   0  0  0  0  0  0  0  0  0  0  0  0
    3.6560    0.8830    0.7966 C   0  0  0  0  0  0  0  0  0  0  0  0
    2.6088   -0.1299    0.4705 C   0  0  0  0  0  0  0  0  0  0  0  0
    1.7168    0.2422   -0.6185 N   0  0  0  0  0  0  0  0  0  0  0  0
    2.0677    0.6047   -1.8653 C   0  0  0  0  0  0  0  0  0  0  0  0
    0.9517    0.8540   -2.6320 C   0  0  0  0  0  0  0  0  0  0  0  0
    0.8600    1.2783   -4.0453 C   0  0  0  0  0  0  0  0  0  0  0  0
   -0.1411    0.6221   -1.7908 C   0  0  0  0  0  0  0  0  0  0  0  0
    0.3585    0.2625   -0.5790 C   0  0  0  0  0  0  0  0  0  0  0  0
   -0.8403    0.1715    0.3377 C   0  0  0  0  0  0  0  0  0  0  0  0
   -0.9957    1.5707    0.9044 C   0  0  0  0  0  0  0  0  0  0  0  0
    0.0605    2.4501    0.9479 C   0  0  0  0  0  0  0  0  0  0  0  0
   -0.0781    3.7450    1.4728 C   0  0  0  0  0  0  0  0  0  0  0  0
   -1.2813    4.1837    1.9646 C   0  0  0  0  0  0  0  0  0  0  0  0
   -1.4426    5.8001    2.6168 Cl  0  0  0  0  0  0  0  0  0  0  0  0
   -2.3375    3.3206    1.9265 C   0  0  0  0  0  0  0  0  0  0  0  0
   -2.1924    2.0256    1.3999 C   0  0  0  0  0  0  0  0  0  0  0  0
   -1.9275   -0.0600   -0.5412 N   0  0  0  0  0  0  0  0  0  0  0  0
   -3.1508   -0.7491   -0.1891 C   0  0  0  0  0  0  0  0  0  0  0  0
   -3.2987   -1.3378    1.0505 C   0  0  0  0  0  0  0  0  0  0  0  0
   -4.4538   -1.9959    1.3982 C   0  0  0  0  0  0  0  0  0  0  0  0
   -4.5744   -2.6179    2.7457 C   0  0  0  0  0  0  0  0  0  0  0  0
   -5.4832   -2.0765    0.5096 C   0  0  0  0  0  0  0  0  0  0  0  0
   -6.7008   -2.6506    0.5926 N   0  0  0  0  0  0  0  0  0  0  0  0
   -7.3104   -2.4333   -0.5614 N   0  0  0  0  0  0  0  0  0  0  0  0
   -6.4797   -1.7331   -1.3492 C   0  0  0  0  0  0  0  0  0  0  0  0
   -6.7756   -1.2816   -2.7294 C   0  0  0  0  0  0  0  0  0  0  0  0
   -5.3320   -1.5035   -0.6896 N   0  0  0  0  0  0  0  0  0  0  0  0
   -4.2113   -0.8495   -1.0636 C   0  0  0  0  0  0  0  0  0  0  0  0
   -1.6126    0.4533   -1.8178 C   0  0  0  0  0  0  0  0  0  0  0  0
   -2.3247    0.7294   -2.7918 O   0  0  0  0  0  0  0  0  0  0  0  0
    3.7567   -0.9612   -0.0450 C   0  0  0  0  0  0  0  0  0  0  0  0
    8.5115    0.1467    1.3220 H   0  0  0  0  0  0  0  0  0  0  0  0
    9.8358   -1.1138    1.5329 H   0  0  0  0  0  0  0  0  0  0  0  0
    8.8298   -1.0207    0.0122 H   0  0  0  0  0  0  0  0  0  0  0  0
    6.7054   -1.8022   -0.0137 H   0  0  0  0  0  0  0  0  0  0  0  0
    6.0390   -2.5354    1.4937 H   0  0  0  0  0  0  0  0  0  0  0  0
    3.5353    1.3605    1.8115 H   0  0  0  0  0  0  0  0  0  0  0  0
    3.8361    1.6208   -0.0119 H   0  0  0  0  0  0  0  0  0  0  0  0
    2.0969   -0.5725    1.3348 H   0  0  0  0  0  0  0  0  0  0  0  0
    3.0864    0.6852   -2.2049 H   0  0  0  0  0  0  0  0  0  0  0  0
    1.7908    0.9465   -4.5516 H   0  0  0  0  0  0  0  0  0  0  0  0
    0.8021    2.3976   -4.1449 H   0  0  0  0  0  0  0  0  0  0  0  0
   -0.0548    0.8939   -4.5360 H   0  0  0  0  0  0  0  0  0  0  0  0
   -0.6712   -0.5540    1.1337 H   0  0  0  0  0  0  0  0  0  0  0  0
    1.0263    2.1514    0.5629 H   0  0  0  0  0  0  0  0  0  0  0  0
    0.7907    4.4019    1.4841 H   0  0  0  0  0  0  0  0  0  0  0  0
   -3.3191    3.6205    2.3057 H   0  0  0  0  0  0  0  0  0  0  0  0
   -3.0535    1.3757    1.3816 H   0  0  0  0  0  0  0  0  0  0  0  0
   -2.4606   -1.2629    1.7538 H   0  0  0  0  0  0  0  0  0  0  0  0
   -5.5749   -2.5320    3.1719 H   0  0  0  0  0  0  0  0  0  0  0  0
   -4.2787   -3.6917    2.6164 H   0  0  0  0  0  0  0  0  0  0  0  0
   -3.8374   -2.1517    3.4365 H   0  0  0  0  0  0  0  0  0  0  0  0
   -7.4563   -0.3844   -2.6999 H   0  0  0  0  0  0  0  0  0  0  0  0
   -5.8823   -1.0859   -3.3331 H   0  0  0  0  0  0  0  0  0  0  0  0
   -7.3386   -2.1245   -3.2234 H   0  0  0  0  0  0  0  0  0  0  0  0
   -4.1549   -0.4013   -2.0664 H   0  0  0  0  0  0  0  0  0  0  0  0
    3.9651   -0.8023   -1.1214 H   0  0  0  0  0  0  0  0  0  0  0  0
    3.7353   -2.0303    0.2619 H   0  0  0  0  0  0  0  0  0  0  0  0
  1  2  1  0
  2  3  1  0
  3  4  1  0
  4  5  2  0
  4  6  1  0
  6  7  1  0
  7  8  1  0
  8  9  1  0
  9 10  1  0
 10 11  2  0
 11 12  1  0
 11 13  1  0
 13 14  2  0
 14 15  1  0
 15 16  1  0
 16 17  2  0
 17 18  1  0
 18 19  2  0
 19 20  1  0
 19 21  1  0
 21 22  2  0
 15 23  1  0
 23 24  1  0
 24 25  1  0
 25 26  2  0
 26 27  1  0
 26 28  1  0
 28 29  2  0
 29 30  1  0
 30 31  2  0
 31 32  1  0
 31 33  1  0
 33 34  1  0
 23 35  1  0
 35 36  2  0
  8 37  1  0
 37  6  1  0
 14  9  1  0
 22 16  1  0
 34 24  2  0
 35 13  1  0
 33 28  1  0
  1 38  1  0
  1 39  1  0
  1 40  1  0
  3 41  1  0
  3 42  1  0
  7 43  1  0
  7 44  1  0
  8 45  1  0
 10 46  1  0
 12 47  1  0
 12 48  1  0
 12 49  1  0
 15 50  1  0
 17 51  1  0
 18 52  1  0
 21 53  1  0
 22 54  1  0
 25 55  1  0
 27 56  1  0
 27 57  1  0
 27 58  1  0
 32 59  1  0
 32 60  1  0
 32 61  1  0
 34 62  1  0
 37 63  1  0
 37 64  1  0
M  END
$$$$
