@<TRIPOS>MOLECULE
*****
 38 39 0 0 0
SMALL
GASTEIGER

@<TRIPOS>ATOM
      1 O          -2.8683    4.4114    0.2426 O.3     1  UNL1       -0.4783
      2 C          -2.2861    3.1874   -0.0307 C.2     1  UNL1        0.3427
      3 O          -1.1670    3.2984   -0.6280 O.2     1  UNL1       -0.2472
      4 C          -2.9643    1.9183    0.3664 C.3     1  UNL1        0.1857
      5 O          -2.2211    0.7886    0.0037 O.3     1  UNL1       -0.4800
      6 C          -2.5918   -0.5231    0.2362 C.ar    1  UNL1        0.1348
      7 C          -3.7971   -0.6894    0.8793 C.ar    1  UNL1       -0.0008
      8 C          -4.2037   -1.9824    1.1301 C.ar    1  UNL1        0.0445
      9 CL         -5.7277   -2.2565    1.9444 Cl      1  UNL1       -0.0834
     10 C          -3.3988   -3.0268    0.7323 C.ar    1  UNL1       -0.0424
     11 C          -2.2030   -2.7942    0.0923 C.ar    1  UNL1       -0.0447
     12 C          -1.7406   -1.5163   -0.1875 C.ar    1  UNL1        0.0784
     13 C          -0.4808   -1.3762   -0.8583 C.2     1  UNL1        0.2479
     14 O           0.1601   -2.4206   -1.1680 O.2     1  UNL1       -0.2701
     15 N           0.2156   -0.2196   -1.2600 N.am    1  UNL1       -0.3071
     16 C           1.4866   -0.1202   -1.9328 C.3     1  UNL1        0.0374
     17 C           2.5701   -0.3560   -0.9321 C.ar    1  UNL1       -0.0239
     18 C           2.9941    0.7809   -0.2425 C.ar    1  UNL1        0.0202
     19 C           3.9863    0.7731    0.7155 C.ar    1  UNL1        0.2735
     20 C           4.6103   -0.4028    1.0301 C.ar    1  UNL1        0.0156
     21 C           4.1997   -1.5530    0.3499 C.ar    1  UNL1       -0.0550
     22 C           3.2064   -1.5308   -0.6057 C.ar    1  UNL1       -0.0567
     23 N           4.3624    1.9875    1.3765 N.pl3   1  UNL1        0.0796
     24 O           3.7456    3.1995    1.0797 O.co2   1  UNL1       -0.5760
     25 O           5.2638    1.9610    2.2379 O.2     1  UNL1        0.0414
     26 H          -2.7211    5.2421   -0.3185 H       1  UNL1        0.2952
     27 H          -3.9946    1.8857   -0.0421 H       1  UNL1        0.0815
     28 H          -3.0964    1.8787    1.4869 H       1  UNL1        0.0815
     29 H          -4.4056    0.1313    1.1789 H       1  UNL1        0.0669
     30 H          -3.7134   -4.0424    0.9269 H       1  UNL1        0.0632
     31 H          -1.6243   -3.6653   -0.1906 H       1  UNL1        0.0627
     32 H          -0.2408    0.6916   -1.0453 H       1  UNL1        0.1493
     33 H           1.6360    0.8632   -2.3853 H       1  UNL1        0.0512
     34 H           1.5404   -0.8782   -2.7522 H       1  UNL1        0.0512
     35 H           2.5444    1.7513   -0.4391 H       1  UNL1        0.0688
     36 H           5.3950   -0.4813    1.7701 H       1  UNL1        0.0685
     37 H           4.6583   -2.5224    0.5553 H       1  UNL1        0.0620
     38 H           2.8712   -2.3925   -1.1488 H       1  UNL1        0.0621
@<TRIPOS>UNITY_ATOM_ATTR
23 1
charge 1
24 1
charge -1
@<TRIPOS>BOND
     1     1     2    1
     2     2     3    2
     3     2     4    1
     4     4     5    1
     5     5     6    1
     6     6     7   ar
     7     7     8   ar
     8     8     9    1
     9     8    10   ar
    10    10    11   ar
    11    11    12   ar
    12    12    13    1
    13    13    14    2
    14    13    15   am
    15    15    16    1
    16    16    17    1
    17    17    18   ar
    18    18    19   ar
    19    19    20   ar
    20    20    21   ar
    21    21    22   ar
    22    19    23    1
    23    23    24    1
    24    23    25    2
    25    12     6   ar
    26    22    17   ar
    27     1    26    1
    28     4    27    1
    29     4    28    1
    30     7    29    1
    31    10    30    1
    32    11    31    1
    33    15    32    1
    34    16    33    1
    35    16    34    1
    36    18    35    1
    37    20    36    1
    38    21    37    1
    39    22    38    1
