
     RDKit          3D

 38 39  0  0  0  0  0  0  0  0999 V2000
   -2.8683    4.4114    0.2426 O   0  0  0  0  0  0  0  0  0  0  0  0
   -2.2861    3.1874   -0.0307 C   0  0  0  0  0  0  0  0  0  0  0  0
   -1.1670    3.2984   -0.6280 O   0  0  0  0  0  0  0  0  0  0  0  0
   -2.9643    1.9183    0.3664 C   0  0  0  0  0  0  0  0  0  0  0  0
   -2.2211    0.7886    0.0037 O   0  0  0  0  0  0  0  0  0  0  0  0
   -2.5918   -0.5231    0.2362 C   0  0  0  0  0  0  0  0  0  0  0  0
   -3.7971   -0.6894    0.8793 C   0  0  0  0  0  0  0  0  0  0  0  0
   -4.2037   -1.9824    1.1301 C   0  0  0  0  0  0  0  0  0  0  0  0
   -5.7277   -2.2565    1.9444 Cl  0  0  0  0  0  0  0  0  0  0  0  0
   -3.3988   -3.0268    0.7323 C   0  0  0  0  0  0  0  0  0  0  0  0
   -2.2030   -2.7942    0.0923 C   0  0  0  0  0  0  0  0  0  0  0  0
   -1.7406   -1.5163   -0.1875 C   0  0  0  0  0  0  0  0  0  0  0  0
   -0.4808   -1.3762   -0.8583 C   0  0  0  0  0  0  0  0  0  0  0  0
    0.1601   -2.4206   -1.1680 O   0  0  0  0  0  0  0  0  0  0  0  0
    0.2156   -0.2196   -1.2600 N   0  0  0  0  0  0  0  0  0  0  0  0
    1.4866   -0.1202   -1.9328 C   0  0  0  0  0  0  0  0  0  0  0  0
    2.5701   -0.3560   -0.9321 C   0  0  0  0  0  0  0  0  0  0  0  0
    2.9941    0.7809   -0.2425 C   0  0  0  0  0  0  0  0  0  0  0  0
    3.9863    0.7731    0.7155 C   0  0  0  0  0  0  0  0  0  0  0  0
    4.6103   -0.4028    1.0301 C   0  0  0  0  0  0  0  0  0  0  0  0
    4.1997   -1.5530    0.3499 C   0  0  0  0  0  0  0  0  0  0  0  0
    3.2064   -1.5308   -0.6057 C   0  0  0  0  0  0  0  0  0  0  0  0
    4.3624    1.9875    1.3765 N   0  0  0  0  0  4  0  0  0  0  0  0
    3.7456    3.1995    1.0797 O   0  0  0  0  0  1  0  0  0  0  0  0
    5.2638    1.9610    2.2379 O   0  0  0  0  0  0  0  0  0  0  0  0
   -2.7211    5.2421   -0.3185 H   0  0  0  0  0  0  0  0  0  0  0  0
   -3.9946    1.8857   -0.0421 H   0  0  0  0  0  0  0  0  0  0  0  0
   -3.0964    1.8787    1.4869 H   0  0  0  0  0  0  0  0  0  0  0  0
   -4.4056    0.1313    1.1789 H   0  0  0  0  0  0  0  0  0  0  0  0
   -3.7134   -4.0424    0.9269 H   0  0  0  0  0  0  0  0  0  0  0  0
   -1.6243   -3.6653   -0.1906 H   0  0  0  0  0  0  0  0  0  0  0  0
   -0.2408    0.6916   -1.0453 H   0  0  0  0  0  0  0  0  0  0  0  0
    1.6360    0.8632   -2.3853 H   0  0  0  0  0  0  0  0  0  0  0  0
    1.5404   -0.8782   -2.7522 H   0  0  0  0  0  0  0  0  0  0  0  0
    2.5444    1.7513   -0.4391 H   0  0  0  0  0  0  0  0  0  0  0  0
    5.3950   -0.4813    1.7701 H   0  0  0  0  0  0  0  0  0  0  0  0
    4.6583   -2.5224    0.5553 H   0  0  0  0  0  0  0  0  0  0  0  0
    2.8712   -2.3925   -1.1488 H   0  0  0  0  0  0  0  0  0  0  0  0
  1  2  1  0
  2  3  2  0
  2  4  1  0
  4  5  1  0
  5  6  1  0
  6  7  2  0
  7  8  1  0
  8  9  1  0
  8 10  2  0
 10 11  1  0
 11 12  2  0
 12 13  1  0
 13 14  2  0
 13 15  1  0
 15 16  1  0
 16 17  1  0
 17 18  2  0
 18 19  1  0
 19 20  2  0
 20 21  1  0
 21 22  2  0
 19 23  1  0
 23 24  1  0
 23 25  2  0
 12  6  1  0
 22 17  1  0
  1 26  1  0
  4 27  1  0
  4 28  1  0
  7 29  1  0
 10 30  1  0
 11 31  1  0
 15 32  1  0
 16 33  1  0
 16 34  1  0
 18 35  1  0
 20 36  1  0
 21 37  1  0
 22 38  1  0
M  CHG  2  23   1  24  -1
M  END
$$$$
