
     RDKit          3D

 40 42  0  0  0  0  0  0  0  0999 V2000
   -3.9227   -3.4560   -0.5937 C   0  0  0  0  0  0  0  0  0  0  0  0
   -3.2145   -2.1915   -0.3291 C   0  0  0  0  0  0  0  0  0  0  0  0
   -2.0521   -2.1769    0.4165 C   0  0  0  0  0  0  0  0  0  0  0  0
   -1.3683   -1.0063    0.6797 C   0  0  0  0  0  0  0  0  0  0  0  0
   -1.8437    0.1732    0.1956 C   0  0  0  0  0  0  0  0  0  0  0  0
   -3.0203    0.1750   -0.5617 C   0  0  0  0  0  0  0  0  0  0  0  0
   -3.7065   -1.0016   -0.8255 C   0  0  0  0  0  0  0  0  0  0  0  0
   -1.3227    1.5312    0.3256 C   0  0  0  0  0  0  0  0  0  0  0  0
   -1.8967    2.7553    0.6153 C   0  0  0  0  0  0  0  0  0  0  0  0
   -0.8404    3.6605    0.5847 C   0  0  0  0  0  0  0  0  0  0  0  0
    0.2723    2.9770    0.2921 N   0  0  0  0  0  0  0  0  0  0  0  0
   -0.0094    1.6834    0.1328 N   0  0  0  0  0  0  0  0  0  0  0  0
    1.1424    0.9055   -0.1814 C   0  0  0  0  0  0  0  0  0  0  0  0
    2.0024    0.6742    0.8917 C   0  0  0  0  0  0  0  0  0  0  0  0
    3.1630   -0.0592    0.7638 C   0  0  0  0  0  0  0  0  0  0  0  0
    3.4925   -0.5869   -0.4677 C   0  0  0  0  0  0  0  0  0  0  0  0
    2.6555   -0.3658   -1.5275 C   0  0  0  0  0  0  0  0  0  0  0  0
    1.5037    0.3595   -1.4100 C   0  0  0  0  0  0  0  0  0  0  0  0
    4.9753   -1.5087   -0.5741 S   0  0  0  0  0  0  0  0  0  0  0  0
    4.7154   -3.1651   -0.2592 N   0  0  0  0  0  0  0  0  0  0  0  0
    5.5981   -1.3556   -1.9203 O   0  0  0  0  0  0  0  0  0  0  0  0
    5.9914   -1.0078    0.4213 O   0  0  0  0  0  0  0  0  0  0  0  0
   -1.0765    5.1085    0.8542 C   0  0  0  0  0  0  0  0  0  0  0  0
   -1.9905    5.2285    1.8743 F   0  0  0  0  0  0  0  0  0  0  0  0
    0.1028    5.7818    1.0770 F   0  0  0  0  0  0  0  0  0  0  0  0
   -1.6734    5.7059   -0.2639 F   0  0  0  0  0  0  0  0  0  0  0  0
   -3.2470   -4.3275   -0.7574 H   0  0  0  0  0  0  0  0  0  0  0  0
   -4.6033   -3.6515    0.2630 H   0  0  0  0  0  0  0  0  0  0  0  0
   -4.5708   -3.3059   -1.4948 H   0  0  0  0  0  0  0  0  0  0  0  0
   -1.6093   -3.0913    0.8396 H   0  0  0  0  0  0  0  0  0  0  0  0
   -0.4608   -0.8891    1.2458 H   0  0  0  0  0  0  0  0  0  0  0  0
   -3.5121    1.0510   -1.0106 H   0  0  0  0  0  0  0  0  0  0  0  0
   -4.6192   -1.0427   -1.4065 H   0  0  0  0  0  0  0  0  0  0  0  0
   -2.9575    2.8342    0.8031 H   0  0  0  0  0  0  0  0  0  0  0  0
    1.7904    1.0681    1.8876 H   0  0  0  0  0  0  0  0  0  0  0  0
    3.8078   -0.2200    1.6160 H   0  0  0  0  0  0  0  0  0  0  0  0
    2.9124   -0.7771   -2.4875 H   0  0  0  0  0  0  0  0  0  0  0  0
    0.8072    0.5696   -2.1939 H   0  0  0  0  0  0  0  0  0  0  0  0
    4.5349   -3.7414   -1.0965 H   0  0  0  0  0  0  0  0  0  0  0  0
    4.0505   -3.3149    0.5186 H   0  0  0  0  0  0  0  0  0  0  0  0
  1  2  1  0
  2  3  2  0
  3  4  1  0
  4  5  2  0
  5  6  1  0
  6  7  2  0
  5  8  1  0
  8  9  2  0
  9 10  1  0
 10 11  2  0
 11 12  1  0
 12 13  1  0
 13 14  2  0
 14 15  1  0
 15 16  2  0
 16 17  1  0
 17 18  2  0
 16 19  1  0
 19 20  1  0
 19 21  2  0
 19 22  2  0
 10 23  1  0
 23 24  1  0
 23 25  1  0
 23 26  1  0
  7  2  1  0
 12  8  1  0
 18 13  1  0
  1 27  1  0
  1 28  1  0
  1 29  1  0
  3 30  1  0
  4 31  1  0
  6 32  1  0
  7 33  1  0
  9 34  1  0
 14 35  1  0
 15 36  1  0
 17 37  1  0
 18 38  1  0
 20 39  1  0
 20 40  1  0
M  END
$$$$
