@<TRIPOS>MOLECULE
*****
 67 69 0 0 0
SMALL
GASTEIGER

@<TRIPOS>ATOM
      1 C           7.6340   -3.6288   -2.9916 C.3     1  UNL1       -0.0556
      2 C           7.4645   -2.2712   -2.2981 C.3     1  UNL1        0.0165
      3 C           8.7780   -1.9356   -1.6187 C.3     1  UNL1       -0.0556
      4 C           6.3560   -2.4063   -1.3369 C.2     1  UNL1        0.1657
      5 O           5.7703   -3.5145   -1.1566 O.2     1  UNL1       -0.2918
      6 C           5.9035   -1.2671   -0.5669 C.ar    1  UNL1        0.0179
      7 C           6.5046   -0.0448   -0.7679 C.ar    1  UNL1       -0.0478
      8 C           6.0855    1.0190   -0.0433 C.ar    1  UNL1       -0.0193
      9 C           5.0552    0.9692    0.9245 C.ar    1  UNL1        0.1210
     10 O           4.6953    2.0630    1.6037 O.3     1  UNL1       -0.4874
     11 C           3.7860    2.3524    2.5404 C.3     1  UNL1        0.1146
     12 C           2.3455    2.1943    2.2260 C.ar    1  UNL1       -0.0104
     13 C           1.7076    3.2099    1.4984 C.ar    1  UNL1       -0.0548
     14 C           0.3722    3.1455    1.2049 C.ar    1  UNL1       -0.0537
     15 C          -0.3999    2.0771    1.6142 C.ar    1  UNL1       -0.0179
     16 C          -1.8203    2.0890    1.2582 C.ar    1  UNL1       -0.0178
     17 C          -2.2428    2.6815    0.0854 C.ar    1  UNL1       -0.0522
     18 C          -3.5698    2.7197   -0.2906 C.ar    1  UNL1       -0.0348
     19 C          -4.5403    2.1565    0.5070 C.ar    1  UNL1        0.1053
     20 S          -6.2400    2.1821    0.0805 S.O2    1  UNL1        0.0591
     21 O          -6.9834    2.4585    1.3592 O.2     1  UNL1       -0.1530
     22 O          -6.4228    3.4551   -0.7482 O.2     1  UNL1       -0.1530
     23 N          -6.7918    0.9042   -0.8115 N.3     1  UNL1       -0.1759
     24 C          -6.7467   -0.4047   -0.3272 C.3     1  UNL1        0.1276
     25 C          -8.1577   -0.8888   -0.0903 C.2     1  UNL1        0.3238
     26 O          -9.1502   -0.1686   -0.3188 O.2     1  UNL1       -0.2492
     27 O          -8.4010   -2.1686    0.3964 O.3     1  UNL1       -0.4795
     28 C          -5.9532   -1.3922   -1.1325 C.3     1  UNL1       -0.0194
     29 C          -6.4504   -1.5569   -2.5326 C.3     1  UNL1       -0.0607
     30 C          -6.0118   -2.7638   -0.4811 C.3     1  UNL1       -0.0607
     31 C          -4.1242    1.5609    1.6833 C.ar    1  UNL1       -0.0348
     32 C          -2.7931    1.5244    2.0573 C.ar    1  UNL1       -0.0522
     33 C           0.1924    1.0661    2.3283 C.ar    1  UNL1       -0.0537
     34 C           1.5566    1.1566    2.6145 C.ar    1  UNL1       -0.0548
     35 C           4.4887   -0.2712    1.0871 C.ar    1  UNL1       -0.0193
     36 C           4.8935   -1.3912    0.3591 C.ar    1  UNL1       -0.0478
     37 H           8.0158   -4.3779   -2.2512 H       1  UNL1        0.0236
     38 H           8.4228   -3.5171   -3.7721 H       1  UNL1        0.0236
     39 H           6.6860   -3.9848   -3.3997 H       1  UNL1        0.0236
     40 H           7.2055   -1.5363   -3.0975 H       1  UNL1        0.0375
     41 H           9.4290   -2.8139   -1.6617 H       1  UNL1        0.0236
     42 H           8.6445   -1.6799   -0.5423 H       1  UNL1        0.0236
     43 H           9.3162   -1.1160   -2.1569 H       1  UNL1        0.0236
     44 H           7.3111    0.0322   -1.5205 H       1  UNL1        0.0626
     45 H           6.5383    1.9910   -0.1795 H       1  UNL1        0.0654
     46 H           3.8946    3.4296    2.9055 H       1  UNL1        0.0748
     47 H           3.9139    1.7715    3.5173 H       1  UNL1        0.0748
     48 H           2.2716    4.0587    1.1606 H       1  UNL1        0.0622
     49 H          -0.0680    3.9691    0.6330 H       1  UNL1        0.0624
     50 H          -1.4938    3.1366   -0.5672 H       1  UNL1        0.0624
     51 H          -3.9066    3.1825   -1.2085 H       1  UNL1        0.0637
     52 H          -7.3640    1.0954   -1.6496 H       1  UNL1        0.1489
     53 H          -6.2917   -0.3865    0.6898 H       1  UNL1        0.0595
     54 H          -9.1914   -2.7300    0.0470 H       1  UNL1        0.2951
     55 H          -4.8872   -1.0776   -1.0642 H       1  UNL1        0.0316
     56 H          -5.5704   -1.8374   -3.1677 H       1  UNL1        0.0233
     57 H          -7.1426   -2.4194   -2.5871 H       1  UNL1        0.0233
     58 H          -6.9012   -0.6453   -2.9620 H       1  UNL1        0.0233
     59 H          -6.0670   -2.6512    0.6075 H       1  UNL1        0.0233
     60 H          -6.8508   -3.3793   -0.8610 H       1  UNL1        0.0233
     61 H          -5.0895   -3.3570   -0.7184 H       1  UNL1        0.0233
     62 H          -4.8852    1.1105    2.3243 H       1  UNL1        0.0637
     63 H          -2.4682    1.0534    2.9859 H       1  UNL1        0.0624
     64 H          -0.4008    0.2239    2.6551 H       1  UNL1        0.0624
     65 H           2.0104    0.3491    3.1960 H       1  UNL1        0.0622
     66 H           3.6939   -0.4593    1.8044 H       1  UNL1        0.0654
     67 H           4.4347   -2.3453    0.5057 H       1  UNL1        0.0626
@<TRIPOS>BOND
     1     1     2    1
     2     2     3    1
     3     2     4    1
     4     4     5    2
     5     4     6    1
     6     6     7   ar
     7     7     8   ar
     8     8     9   ar
     9     9    10    1
    10    10    11    1
    11    11    12    1
    12    12    13   ar
    13    13    14   ar
    14    14    15   ar
    15    15    16    1
    16    16    17   ar
    17    17    18   ar
    18    18    19   ar
    19    19    20    1
    20    20    21    2
    21    20    22    2
    22    20    23    1
    23    23    24    1
    24    24    25    1
    25    25    26    2
    26    25    27    1
    27    24    28    1
    28    28    29    1
    29    28    30    1
    30    19    31   ar
    31    31    32   ar
    32    15    33   ar
    33    33    34   ar
    34     9    35   ar
    35    35    36   ar
    36    36     6   ar
    37    34    12   ar
    38    32    16   ar
    39     1    37    1
    40     1    38    1
    41     1    39    1
    42     2    40    1
    43     3    41    1
    44     3    42    1
    45     3    43    1
    46     7    44    1
    47     8    45    1
    48    11    46    1
    49    11    47    1
    50    13    48    1
    51    14    49    1
    52    17    50    1
    53    18    51    1
    54    23    52    1
    55    24    53    1
    56    27    54    1
    57    28    55    1
    58    29    56    1
    59    29    57    1
    60    29    58    1
    61    30    59    1
    62    30    60    1
    63    30    61    1
    64    31    62    1
    65    32    63    1
    66    33    64    1
    67    34    65    1
    68    35    66    1
    69    36    67    1
