
     RDKit          3D

 67 69  0  0  0  0  0  0  0  0999 V2000
    7.6340   -3.6288   -2.9916 C   0  0  0  0  0  0  0  0  0  0  0  0
    7.4645   -2.2712   -2.2981 C   0  0  0  0  0  0  0  0  0  0  0  0
    8.7780   -1.9356   -1.6187 C   0  0  0  0  0  0  0  0  0  0  0  0
    6.3560   -2.4063   -1.3369 C   0  0  0  0  0  0  0  0  0  0  0  0
    5.7703   -3.5145   -1.1566 O   0  0  0  0  0  0  0  0  0  0  0  0
    5.9035   -1.2671   -0.5669 C   0  0  0  0  0  0  0  0  0  0  0  0
    6.5046   -0.0448   -0.7679 C   0  0  0  0  0  0  0  0  0  0  0  0
    6.0855    1.0190   -0.0433 C   0  0  0  0  0  0  0  0  0  0  0  0
    5.0552    0.9692    0.9245 C   0  0  0  0  0  0  0  0  0  0  0  0
    4.6953    2.0630    1.6037 O   0  0  0  0  0  0  0  0  0  0  0  0
    3.7860    2.3524    2.5404 C   0  0  0  0  0  0  0  0  0  0  0  0
    2.3455    2.1943    2.2260 C   0  0  0  0  0  0  0  0  0  0  0  0
    1.7076    3.2099    1.4984 C   0  0  0  0  0  0  0  0  0  0  0  0
    0.3722    3.1455    1.2049 C   0  0  0  0  0  0  0  0  0  0  0  0
   -0.3999    2.0771    1.6142 C   0  0  0  0  0  0  0  0  0  0  0  0
   -1.8203    2.0890    1.2582 C   0  0  0  0  0  0  0  0  0  0  0  0
   -2.2428    2.6815    0.0854 C   0  0  0  0  0  0  0  0  0  0  0  0
   -3.5698    2.7197   -0.2906 C   0  0  0  0  0  0  0  0  0  0  0  0
   -4.5403    2.1565    0.5070 C   0  0  0  0  0  0  0  0  0  0  0  0
   -6.2400    2.1821    0.0805 S   0  0  0  0  0  6  0  0  0  0  0  0
   -6.9834    2.4585    1.3592 O   0  0  0  0  0  0  0  0  0  0  0  0
   -6.4228    3.4551   -0.7482 O   0  0  0  0  0  0  0  0  0  0  0  0
   -6.7918    0.9042   -0.8115 N   0  0  0  0  0  0  0  0  0  0  0  0
   -6.7467   -0.4047   -0.3272 C   0  0  1  0  0  0  0  0  0  0  0  0
   -8.1577   -0.8888   -0.0903 C   0  0  0  0  0  0  0  0  0  0  0  0
   -9.1502   -0.1686   -0.3188 O   0  0  0  0  0  0  0  0  0  0  0  0
   -8.4010   -2.1686    0.3964 O   0  0  0  0  0  0  0  0  0  0  0  0
   -5.9532   -1.3922   -1.1325 C   0  0  0  0  0  0  0  0  0  0  0  0
   -6.4504   -1.5569   -2.5326 C   0  0  0  0  0  0  0  0  0  0  0  0
   -6.0118   -2.7638   -0.4811 C   0  0  0  0  0  0  0  0  0  0  0  0
   -4.1242    1.5609    1.6833 C   0  0  0  0  0  0  0  0  0  0  0  0
   -2.7931    1.5244    2.0573 C   0  0  0  0  0  0  0  0  0  0  0  0
    0.1924    1.0661    2.3283 C   0  0  0  0  0  0  0  0  0  0  0  0
    1.5566    1.1566    2.6145 C   0  0  0  0  0  0  0  0  0  0  0  0
    4.4887   -0.2712    1.0871 C   0  0  0  0  0  0  0  0  0  0  0  0
    4.8935   -1.3912    0.3591 C   0  0  0  0  0  0  0  0  0  0  0  0
    8.0158   -4.3779   -2.2512 H   0  0  0  0  0  0  0  0  0  0  0  0
    8.4228   -3.5171   -3.7721 H   0  0  0  0  0  0  0  0  0  0  0  0
    6.6860   -3.9848   -3.3997 H   0  0  0  0  0  0  0  0  0  0  0  0
    7.2055   -1.5363   -3.0975 H   0  0  0  0  0  0  0  0  0  0  0  0
    9.4290   -2.8139   -1.6617 H   0  0  0  0  0  0  0  0  0  0  0  0
    8.6445   -1.6799   -0.5423 H   0  0  0  0  0  0  0  0  0  0  0  0
    9.3162   -1.1160   -2.1569 H   0  0  0  0  0  0  0  0  0  0  0  0
    7.3111    0.0322   -1.5205 H   0  0  0  0  0  0  0  0  0  0  0  0
    6.5383    1.9910   -0.1795 H   0  0  0  0  0  0  0  0  0  0  0  0
    3.8946    3.4296    2.9055 H   0  0  0  0  0  0  0  0  0  0  0  0
    3.9139    1.7715    3.5173 H   0  0  0  0  0  0  0  0  0  0  0  0
    2.2716    4.0587    1.1606 H   0  0  0  0  0  0  0  0  0  0  0  0
   -0.0680    3.9691    0.6330 H   0  0  0  0  0  0  0  0  0  0  0  0
   -1.4938    3.1366   -0.5672 H   0  0  0  0  0  0  0  0  0  0  0  0
   -3.9066    3.1825   -1.2085 H   0  0  0  0  0  0  0  0  0  0  0  0
   -7.3640    1.0954   -1.6496 H   0  0  0  0  0  0  0  0  0  0  0  0
   -6.2917   -0.3865    0.6898 H   0  0  0  0  0  0  0  0  0  0  0  0
   -9.1914   -2.7300    0.0470 H   0  0  0  0  0  0  0  0  0  0  0  0
   -4.8872   -1.0776   -1.0642 H   0  0  0  0  0  0  0  0  0  0  0  0
   -5.5704   -1.8374   -3.1677 H   0  0  0  0  0  0  0  0  0  0  0  0
   -7.1426   -2.4194   -2.5871 H   0  0  0  0  0  0  0  0  0  0  0  0
   -6.9012   -0.6453   -2.9620 H   0  0  0  0  0  0  0  0  0  0  0  0
   -6.0670   -2.6512    0.6075 H   0  0  0  0  0  0  0  0  0  0  0  0
   -6.8508   -3.3793   -0.8610 H   0  0  0  0  0  0  0  0  0  0  0  0
   -5.0895   -3.3570   -0.7184 H   0  0  0  0  0  0  0  0  0  0  0  0
   -4.8852    1.1105    2.3243 H   0  0  0  0  0  0  0  0  0  0  0  0
   -2.4682    1.0534    2.9859 H   0  0  0  0  0  0  0  0  0  0  0  0
   -0.4008    0.2239    2.6551 H   0  0  0  0  0  0  0  0  0  0  0  0
    2.0104    0.3491    3.1960 H   0  0  0  0  0  0  0  0  0  0  0  0
    3.6939   -0.4593    1.8044 H   0  0  0  0  0  0  0  0  0  0  0  0
    4.4347   -2.3453    0.5057 H   0  0  0  0  0  0  0  0  0  0  0  0
  1  2  1  0
  2  3  1  0
  2  4  1  0
  4  5  2  0
  4  6  1  0
  6  7  2  0
  7  8  1  0
  8  9  2  0
  9 10  1  0
 10 11  1  0
 11 12  1  0
 12 13  2  0
 13 14  1  0
 14 15  2  0
 15 16  1  0
 16 17  2  0
 17 18  1  0
 18 19  2  0
 19 20  1  0
 20 21  2  0
 20 22  2  0
 20 23  1  0
 23 24  1  0
 24 25  1  0
 25 26  2  0
 25 27  1  0
 24 28  1  0
 28 29  1  0
 28 30  1  0
 19 31  1  0
 31 32  2  0
 15 33  1  0
 33 34  2  0
  9 35  1  0
 35 36  2  0
 36  6  1  0
 34 12  1  0
 32 16  1  0
  1 37  1  0
  1 38  1  0
  1 39  1  0
  2 40  1  0
  3 41  1  0
  3 42  1  0
  3 43  1  0
  7 44  1  0
  8 45  1  0
 11 46  1  0
 11 47  1  0
 13 48  1  0
 14 49  1  0
 17 50  1  0
 18 51  1  0
 23 52  1  0
 24 53  1  1
 27 54  1  0
 28 55  1  0
 29 56  1  0
 29 57  1  0
 29 58  1  0
 30 59  1  0
 30 60  1  0
 30 61  1  0
 31 62  1  0
 32 63  1  0
 33 64  1  0
 34 65  1  0
 35 66  1  0
 36 67  1  0
M  END
$$$$
