@<TRIPOS>MOLECULE
*****
 56 60 0 0 0
SMALL
GASTEIGER

@<TRIPOS>ATOM
      1 C           7.6544    3.5909   -0.3895 C.3     1  UNL1       -0.0305
      2 C           7.0576    2.2272   -0.2217 C.3     1  UNL1        0.0913
      3 O           5.6343    2.3050   -0.1603 O.3     1  UNL1       -0.4504
      4 C           4.9339    1.0932   -0.0029 C.2     1  UNL1        0.4046
      5 O           5.5768    0.0206    0.0749 O.2     1  UNL1       -0.2261
      6 N           3.5141    1.0967    0.0659 N.am    1  UNL1       -0.2490
      7 C           2.7383   -0.0856    0.2240 C.ar    1  UNL1        0.0664
      8 C           3.1258   -1.3809    0.3367 C.ar    1  UNL1        0.0267
      9 N           2.0347   -2.1423    0.4674 N.ar    1  UNL1       -0.3492
     10 C           2.0239   -3.5662    0.6128 C.3     1  UNL1        0.0117
     11 C           0.9183   -1.3482    0.4411 C.ar    1  UNL1        0.0581
     12 C           1.3463   -0.0629    0.2898 C.ar    1  UNL1        0.0814
     13 C           0.1774    0.7940    0.2646 C.2     1  UNL1        0.2563
     14 O           0.2074    2.0670    0.1345 O.2     1  UNL1       -0.2694
     15 N          -0.9749   -0.0189    0.4072 N.am    1  UNL1       -0.2387
     16 C          -2.2854    0.5644    0.4275 C.ar    1  UNL1        0.1313
     17 C          -3.3796   -0.2444    0.5778 C.ar    1  UNL1       -0.0161
     18 C          -4.6848    0.2515    0.6053 C.ar    1  UNL1       -0.0164
     19 C          -5.8394   -0.6596    0.7698 C.3     1  UNL1       -0.0374
     20 C          -4.8515    1.5994    0.4753 C.ar    1  UNL1        0.1345
     21 N          -5.9241    2.4101    0.4560 N.ar    1  UNL1       -0.1276
     22 N          -5.4977    3.6443    0.3020 N.ar    1  UNL1       -0.0635
     23 N          -4.1685    3.6826    0.2176 N.ar    1  UNL1       -0.2297
     24 C          -3.3673    4.8792    0.0447 C.3     1  UNL1        0.0341
     25 C          -3.7513    2.4103    0.3245 C.ar    1  UNL1        0.1803
     26 N          -2.5142    1.8838    0.3043 N.ar    1  UNL1       -0.2108
     27 C          -0.5551   -1.3556    0.5091 C.3     1  UNL1        0.0986
     28 C          -1.0978   -2.2666   -0.5240 C.ar    1  UNL1       -0.0207
     29 C          -1.1718   -1.9403   -1.8403 C.ar    1  UNL1       -0.0550
     30 C          -1.6892   -2.8483   -2.7602 C.ar    1  UNL1       -0.0431
     31 C          -2.1297   -4.0834   -2.3444 C.ar    1  UNL1        0.0410
     32 CL         -2.7911   -5.2697   -3.4541 Cl      1  UNL1       -0.0835
     33 C          -2.0640   -4.4365   -1.0114 C.ar    1  UNL1       -0.0431
     34 C          -1.5446   -3.5095   -0.1276 C.ar    1  UNL1       -0.0550
     35 H           8.4588    3.5599   -1.1580 H       1  UNL1        0.0262
     36 H           8.1348    3.9453    0.5614 H       1  UNL1        0.0262
     37 H           6.9165    4.3551   -0.6976 H       1  UNL1        0.0262
     38 H           7.3737    1.5853   -1.0655 H       1  UNL1        0.0695
     39 H           7.4505    1.8043    0.7381 H       1  UNL1        0.0695
     40 H           3.0665    2.0419   -0.0085 H       1  UNL1        0.1582
     41 H           4.1429   -1.7677    0.3263 H       1  UNL1        0.0828
     42 H           1.3572   -3.9171    1.4302 H       1  UNL1        0.0456
     43 H           3.0382   -3.9355    0.8703 H       1  UNL1        0.0456
     44 H           1.7645   -4.0806   -0.3591 H       1  UNL1        0.0456
     45 H          -3.2195   -1.3065    0.6796 H       1  UNL1        0.0655
     46 H          -6.2733   -0.4752    1.7814 H       1  UNL1        0.0278
     47 H          -6.6512   -0.4522    0.0420 H       1  UNL1        0.0278
     48 H          -5.5181   -1.7024    0.6204 H       1  UNL1        0.0278
     49 H          -3.3982    5.2532   -1.0003 H       1  UNL1        0.0474
     50 H          -3.6988    5.6493    0.7743 H       1  UNL1        0.0474
     51 H          -2.3047    4.6592    0.2757 H       1  UNL1        0.0474
     52 H          -0.8138   -1.7353    1.5241 H       1  UNL1        0.0620
     53 H          -0.8246   -0.9641   -2.1748 H       1  UNL1        0.0621
     54 H          -1.7590   -2.6124   -3.8149 H       1  UNL1        0.0632
     55 H          -2.4093   -5.4143   -0.6600 H       1  UNL1        0.0632
     56 H          -1.4945   -3.7915    0.9216 H       1  UNL1        0.0621
@<TRIPOS>BOND
     1     1     2    1
     2     2     3    1
     3     3     4    1
     4     4     5    2
     5     4     6   am
     6     6     7    1
     7     7     8   ar
     8     8     9   ar
     9     9    10    1
    10     9    11   ar
    11    11    12   ar
    12    12    13    1
    13    13    14    2
    14    13    15   am
    15    15    16    1
    16    16    17   ar
    17    17    18   ar
    18    18    19    1
    19    18    20   ar
    20    20    21   ar
    21    21    22   ar
    22    22    23   ar
    23    23    24    1
    24    23    25   ar
    25    25    26   ar
    26    15    27    1
    27    27    28    1
    28    28    29   ar
    29    29    30   ar
    30    30    31   ar
    31    31    32    1
    32    31    33   ar
    33    33    34   ar
    34    12     7   ar
    35    26    16   ar
    36    34    28   ar
    37    27    11    1
    38    25    20   ar
    39     1    35    1
    40     1    36    1
    41     1    37    1
    42     2    38    1
    43     2    39    1
    44     6    40    1
    45     8    41    1
    46    10    42    1
    47    10    43    1
    48    10    44    1
    49    17    45    1
    50    19    46    1
    51    19    47    1
    52    19    48    1
    53    24    49    1
    54    24    50    1
    55    24    51    1
    56    27    52    1
    57    29    53    1
    58    30    54    1
    59    33    55    1
    60    34    56    1
