@<TRIPOS>MOLECULE
*****
 61 62 0 0 0
SMALL
GASTEIGER

@<TRIPOS>ATOM
      1 C           6.7091    1.7799   -0.4730 C.3     1  UNL1       -0.0449
      2 C           6.4187    0.6410    0.4433 C.3     1  UNL1        0.0370
      3 C           7.3540   -0.5205    0.1622 C.3     1  UNL1       -0.0449
      4 C           6.7263    1.1055    1.8719 C.3     1  UNL1        0.0619
      5 O           8.0376    1.5829    1.9147 O.3     1  UNL1       -0.3932
      6 N           5.0778    0.1422    0.3569 N.3     1  UNL1       -0.3021
      7 C           4.0591    1.0880    0.6612 C.3     1  UNL1        0.0602
      8 C           2.7421    0.4224    0.5273 C.ar    1  UNL1        0.1854
      9 N           2.0655   -0.2286    1.4877 N.ar    1  UNL1       -0.0600
     10 O           0.9338   -0.6832    0.9817 O.2     1  UNL1       -0.3377
     11 C           0.8613   -0.3442   -0.2771 C.ar    1  UNL1        0.2310
     12 C          -0.2182   -0.6324   -1.2437 C.3     1  UNL1        0.0464
     13 C          -1.3743    0.2954   -0.9059 C.3     1  UNL1       -0.0413
     14 C          -1.9272    0.1219    0.4570 C.3     1  UNL1       -0.0521
     15 C          -3.0564    1.0823    0.7002 C.3     1  UNL1       -0.0502
     16 C          -4.1900    0.8547   -0.2625 C.3     1  UNL1       -0.0410
     17 C          -4.6626   -0.5683   -0.0601 C.3     1  UNL1       -0.0502
     18 C          -6.1694   -0.6140   -0.1758 C.3     1  UNL1       -0.0528
     19 C          -6.7147    0.0803    1.0644 C.3     1  UNL1       -0.0530
     20 C          -6.1870    1.4898    1.1245 C.3     1  UNL1       -0.0528
     21 C          -5.3129    1.8503   -0.0390 C.3     1  UNL1       -0.0502
     22 C          -0.6040   -2.0729   -1.2017 C.3     1  UNL1        0.0372
     23 C          -1.6654   -2.4217   -2.1585 C.2     1  UNL1        0.2362
     24 O          -2.1423   -1.5899   -2.9558 O.2     1  UNL1       -0.2737
     25 N          -2.1502   -3.7617   -2.1567 N.am    1  UNL1       -0.1975
     26 O          -3.1188   -4.1098   -3.0188 O.3     1  UNL1       -0.2952
     27 N           1.9834    0.3446   -0.5682 N.ar    1  UNL1       -0.1945
     28 H           7.8241    1.9167   -0.5053 H       1  UNL1        0.0248
     29 H           6.2990    2.7388   -0.1340 H       1  UNL1        0.0248
     30 H           6.4099    1.4908   -1.4978 H       1  UNL1        0.0248
     31 H           6.8762   -1.4201    0.6045 H       1  UNL1        0.0248
     32 H           7.3518   -0.6796   -0.9370 H       1  UNL1        0.0248
     33 H           8.3729   -0.3398    0.5592 H       1  UNL1        0.0248
     34 H           6.0629    1.9268    2.1865 H       1  UNL1        0.0575
     35 H           6.6288    0.2747    2.5704 H       1  UNL1        0.0575
     36 H           8.3330    1.6258    2.8655 H       1  UNL1        0.2095
     37 H           4.9819   -0.7865    0.7903 H       1  UNL1        0.1229
     38 H           4.1149    1.9046   -0.1057 H       1  UNL1        0.0506
     39 H           4.1284    1.5485    1.6610 H       1  UNL1        0.0506
     40 H           0.0967   -0.3567   -2.2632 H       1  UNL1        0.0401
     41 H          -2.1345    0.2909   -1.6766 H       1  UNL1        0.0273
     42 H          -0.9092    1.3311   -0.9287 H       1  UNL1        0.0273
     43 H          -2.3689   -0.9044    0.5383 H       1  UNL1        0.0266
     44 H          -1.1668    0.1603    1.2650 H       1  UNL1        0.0266
     45 H          -3.3847    0.8964    1.7623 H       1  UNL1        0.0268
     46 H          -2.6940    2.1437    0.6620 H       1  UNL1        0.0268
     47 H          -3.9175    0.9651   -1.3203 H       1  UNL1        0.0301
     48 H          -4.2423   -1.2711   -0.8012 H       1  UNL1        0.0268
     49 H          -4.3677   -0.9513    0.9465 H       1  UNL1        0.0268
     50 H          -6.4918   -1.6553   -0.1586 H       1  UNL1        0.0265
     51 H          -6.4442   -0.0487   -1.0760 H       1  UNL1        0.0265
     52 H          -7.8108    0.0193    1.0313 H       1  UNL1        0.0265
     53 H          -6.3333   -0.4632    1.9484 H       1  UNL1        0.0265
     54 H          -5.6932    1.7018    2.0993 H       1  UNL1        0.0265
     55 H          -7.0722    2.1643    1.0878 H       1  UNL1        0.0265
     56 H          -4.8345    2.8249    0.1920 H       1  UNL1        0.0268
     57 H          -5.9222    2.0021   -0.9535 H       1  UNL1        0.0268
     58 H           0.3147   -2.6709   -1.4275 H       1  UNL1        0.0366
     59 H          -0.9109   -2.4063   -0.1811 H       1  UNL1        0.0366
     60 H          -1.7377   -4.4581   -1.4756 H       1  UNL1        0.1822
     61 H          -2.8342   -4.8476   -3.5843 H       1  UNL1        0.2414
@<TRIPOS>BOND
     1     1     2    1
     2     2     3    1
     3     2     4    1
     4     4     5    1
     5     2     6    1
     6     6     7    1
     7     7     8    1
     8     8     9   ar
     9     9    10   ar
    10    10    11   ar
    11    11    12    1
    12    12    13    1
    13    13    14    1
    14    14    15    1
    15    15    16    1
    16    16    17    1
    17    17    18    1
    18    18    19    1
    19    19    20    1
    20    20    21    1
    21    12    22    1
    22    22    23    1
    23    23    24    2
    24    23    25   am
    25    25    26    1
    26    11    27   ar
    27    27     8   ar
    28    21    16    1
    29     1    28    1
    30     1    29    1
    31     1    30    1
    32     3    31    1
    33     3    32    1
    34     3    33    1
    35     4    34    1
    36     4    35    1
    37     5    36    1
    38     6    37    1
    39     7    38    1
    40     7    39    1
    41    12    40    1
    42    13    41    1
    43    13    42    1
    44    14    43    1
    45    14    44    1
    46    15    45    1
    47    15    46    1
    48    16    47    1
    49    17    48    1
    50    17    49    1
    51    18    50    1
    52    18    51    1
    53    19    52    1
    54    19    53    1
    55    20    54    1
    56    20    55    1
    57    21    56    1
    58    21    57    1
    59    22    58    1
    60    22    59    1
    61    25    60    1
    62    26    61    1
