
     RDKit          3D

 61 62  0  0  0  0  0  0  0  0999 V2000
    6.7091    1.7799   -0.4730 C   0  0  0  0  0  0  0  0  0  0  0  0
    6.4187    0.6410    0.4433 C   0  0  0  0  0  0  0  0  0  0  0  0
    7.3540   -0.5205    0.1622 C   0  0  0  0  0  0  0  0  0  0  0  0
    6.7263    1.1055    1.8719 C   0  0  0  0  0  0  0  0  0  0  0  0
    8.0376    1.5829    1.9147 O   0  0  0  0  0  0  0  0  0  0  0  0
    5.0778    0.1422    0.3569 N   0  0  0  0  0  0  0  0  0  0  0  0
    4.0591    1.0880    0.6612 C   0  0  0  0  0  0  0  0  0  0  0  0
    2.7421    0.4224    0.5273 C   0  0  0  0  0  0  0  0  0  0  0  0
    2.0655   -0.2286    1.4877 N   0  0  0  0  0  0  0  0  0  0  0  0
    0.9338   -0.6832    0.9817 O   0  0  0  0  0  0  0  0  0  0  0  0
    0.8613   -0.3442   -0.2771 C   0  0  0  0  0  0  0  0  0  0  0  0
   -0.2182   -0.6324   -1.2437 C   0  0  2  0  0  0  0  0  0  0  0  0
   -1.3743    0.2954   -0.9059 C   0  0  0  0  0  0  0  0  0  0  0  0
   -1.9272    0.1219    0.4570 C   0  0  0  0  0  0  0  0  0  0  0  0
   -3.0564    1.0823    0.7002 C   0  0  0  0  0  0  0  0  0  0  0  0
   -4.1900    0.8547   -0.2625 C   0  0  0  0  0  0  0  0  0  0  0  0
   -4.6626   -0.5683   -0.0601 C   0  0  0  0  0  0  0  0  0  0  0  0
   -6.1694   -0.6140   -0.1758 C   0  0  0  0  0  0  0  0  0  0  0  0
   -6.7147    0.0803    1.0644 C   0  0  0  0  0  0  0  0  0  0  0  0
   -6.1870    1.4898    1.1245 C   0  0  0  0  0  0  0  0  0  0  0  0
   -5.3129    1.8503   -0.0390 C   0  0  0  0  0  0  0  0  0  0  0  0
   -0.6040   -2.0729   -1.2017 C   0  0  0  0  0  0  0  0  0  0  0  0
   -1.6654   -2.4217   -2.1585 C   0  0  0  0  0  0  0  0  0  0  0  0
   -2.1423   -1.5899   -2.9558 O   0  0  0  0  0  0  0  0  0  0  0  0
   -2.1502   -3.7617   -2.1567 N   0  0  0  0  0  0  0  0  0  0  0  0
   -3.1188   -4.1098   -3.0188 O   0  0  0  0  0  0  0  0  0  0  0  0
    1.9834    0.3446   -0.5682 N   0  0  0  0  0  0  0  0  0  0  0  0
    7.8241    1.9167   -0.5053 H   0  0  0  0  0  0  0  0  0  0  0  0
    6.2990    2.7388   -0.1340 H   0  0  0  0  0  0  0  0  0  0  0  0
    6.4099    1.4908   -1.4978 H   0  0  0  0  0  0  0  0  0  0  0  0
    6.8762   -1.4201    0.6045 H   0  0  0  0  0  0  0  0  0  0  0  0
    7.3518   -0.6796   -0.9370 H   0  0  0  0  0  0  0  0  0  0  0  0
    8.3729   -0.3398    0.5592 H   0  0  0  0  0  0  0  0  0  0  0  0
    6.0629    1.9268    2.1865 H   0  0  0  0  0  0  0  0  0  0  0  0
    6.6288    0.2747    2.5704 H   0  0  0  0  0  0  0  0  0  0  0  0
    8.3330    1.6258    2.8655 H   0  0  0  0  0  0  0  0  0  0  0  0
    4.9819   -0.7865    0.7903 H   0  0  0  0  0  0  0  0  0  0  0  0
    4.1149    1.9046   -0.1057 H   0  0  0  0  0  0  0  0  0  0  0  0
    4.1284    1.5485    1.6610 H   0  0  0  0  0  0  0  0  0  0  0  0
    0.0967   -0.3567   -2.2632 H   0  0  0  0  0  0  0  0  0  0  0  0
   -2.1345    0.2909   -1.6766 H   0  0  0  0  0  0  0  0  0  0  0  0
   -0.9092    1.3311   -0.9287 H   0  0  0  0  0  0  0  0  0  0  0  0
   -2.3689   -0.9044    0.5383 H   0  0  0  0  0  0  0  0  0  0  0  0
   -1.1668    0.1603    1.2650 H   0  0  0  0  0  0  0  0  0  0  0  0
   -3.3847    0.8964    1.7623 H   0  0  0  0  0  0  0  0  0  0  0  0
   -2.6940    2.1437    0.6620 H   0  0  0  0  0  0  0  0  0  0  0  0
   -3.9175    0.9651   -1.3203 H   0  0  0  0  0  0  0  0  0  0  0  0
   -4.2423   -1.2711   -0.8012 H   0  0  0  0  0  0  0  0  0  0  0  0
   -4.3677   -0.9513    0.9465 H   0  0  0  0  0  0  0  0  0  0  0  0
   -6.4918   -1.6553   -0.1586 H   0  0  0  0  0  0  0  0  0  0  0  0
   -6.4442   -0.0487   -1.0760 H   0  0  0  0  0  0  0  0  0  0  0  0
   -7.8108    0.0193    1.0313 H   0  0  0  0  0  0  0  0  0  0  0  0
   -6.3333   -0.4632    1.9484 H   0  0  0  0  0  0  0  0  0  0  0  0
   -5.6932    1.7018    2.0993 H   0  0  0  0  0  0  0  0  0  0  0  0
   -7.0722    2.1643    1.0878 H   0  0  0  0  0  0  0  0  0  0  0  0
   -4.8345    2.8249    0.1920 H   0  0  0  0  0  0  0  0  0  0  0  0
   -5.9222    2.0021   -0.9535 H   0  0  0  0  0  0  0  0  0  0  0  0
    0.3147   -2.6709   -1.4275 H   0  0  0  0  0  0  0  0  0  0  0  0
   -0.9109   -2.4063   -0.1811 H   0  0  0  0  0  0  0  0  0  0  0  0
   -1.7377   -4.4581   -1.4756 H   0  0  0  0  0  0  0  0  0  0  0  0
   -2.8342   -4.8476   -3.5843 H   0  0  0  0  0  0  0  0  0  0  0  0
  1  2  1  0
  2  3  1  0
  2  4  1  0
  4  5  1  0
  2  6  1  0
  6  7  1  0
  7  8  1  0
  8  9  2  0
  9 10  1  0
 10 11  1  0
 11 12  1  0
 12 13  1  0
 13 14  1  0
 14 15  1  0
 15 16  1  0
 16 17  1  0
 17 18  1  0
 18 19  1  0
 19 20  1  0
 20 21  1  0
 12 22  1  0
 22 23  1  0
 23 24  2  0
 23 25  1  0
 25 26  1  0
 11 27  2  0
 27  8  1  0
 21 16  1  0
  1 28  1  0
  1 29  1  0
  1 30  1  0
  3 31  1  0
  3 32  1  0
  3 33  1  0
  4 34  1  0
  4 35  1  0
  5 36  1  0
  6 37  1  0
  7 38  1  0
  7 39  1  0
 12 40  1  6
 13 41  1  0
 13 42  1  0
 14 43  1  0
 14 44  1  0
 15 45  1  0
 15 46  1  0
 16 47  1  0
 17 48  1  0
 17 49  1  0
 18 50  1  0
 18 51  1  0
 19 52  1  0
 19 53  1  0
 20 54  1  0
 20 55  1  0
 21 56  1  0
 21 57  1  0
 22 58  1  0
 22 59  1  0
 25 60  1  0
 26 61  1  0
M  END
$$$$
