
     RDKit          3D

 25 27  0  0  0  0  0  0  0  0999 V2000
    4.3161    0.5217    0.4661 N   0  0  0  0  0  0  0  0  0  0  0  0
    2.9519    0.2587    0.1596 C   0  0  0  0  0  0  0  0  0  0  0  0
    2.0164    0.6467    1.0765 N   0  0  0  0  0  0  0  0  0  0  0  0
    0.7195    0.4151    0.8216 C   0  0  0  0  0  0  0  0  0  0  0  0
    0.3741   -0.2096   -0.3625 C   0  0  0  0  0  0  0  0  0  0  0  0
   -1.0026   -0.4491   -0.6141 N   0  0  0  0  0  0  0  0  0  0  0  0
   -2.0037    0.4368   -0.0276 C   0  0  1  0  0  0  0  0  0  0  0  0
   -3.2950   -0.2225   -0.3587 C   0  0  0  0  0  0  0  0  0  0  0  0
   -2.9721   -0.9906   -1.5106 O   0  0  0  0  0  0  0  0  0  0  0  0
   -1.6479   -1.4544   -1.3782 C   0  0  0  0  0  0  0  0  0  0  0  0
   -1.1534   -2.5173   -1.8339 O   0  0  0  0  0  0  0  0  0  0  0  0
   -1.7623    0.6455    1.4243 C   0  0  0  0  0  0  0  0  0  0  0  0
   -0.3455    0.7693    1.6902 N   0  0  0  0  0  0  0  0  0  0  0  0
    1.2880   -0.6160   -1.3130 C   0  0  0  0  0  0  0  0  0  0  0  0
    0.9934   -1.1843   -2.3949 O   0  0  0  0  0  0  0  0  0  0  0  0
    2.5917   -0.3513   -0.9934 N   0  0  0  0  0  0  0  0  0  0  0  0
    4.5670    1.3893    0.9902 H   0  0  0  0  0  0  0  0  0  0  0  0
    5.1688   -0.0391    0.2437 H   0  0  0  0  0  0  0  0  0  0  0  0
   -1.9084    1.3858   -0.5924 H   0  0  0  0  0  0  0  0  0  0  0  0
   -4.0644    0.5581   -0.6033 H   0  0  0  0  0  0  0  0  0  0  0  0
   -3.6502   -0.9384    0.4007 H   0  0  0  0  0  0  0  0  0  0  0  0
   -2.2516    1.5996    1.7380 H   0  0  0  0  0  0  0  0  0  0  0  0
   -2.1943   -0.1802    2.0224 H   0  0  0  0  0  0  0  0  0  0  0  0
   -0.0674    1.1647    2.6291 H   0  0  0  0  0  0  0  0  0  0  0  0
    3.3320   -0.6387   -1.6800 H   0  0  0  0  0  0  0  0  0  0  0  0
  1  2  1  0
  2  3  2  0
  3  4  1  0
  4  5  2  0
  5  6  1  0
  6  7  1  0
  7  8  1  0
  8  9  1  0
  9 10  1  0
 10 11  2  0
  7 12  1  0
 12 13  1  0
  5 14  1  0
 14 15  2  0
 14 16  1  0
 16  2  1  0
 13  4  1  0
 10  6  1  0
  1 17  1  0
  1 18  1  0
  7 19  1  6
  8 20  1  0
  8 21  1  0
 12 22  1  0
 12 23  1  0
 13 24  1  0
 16 25  1  0
M  END
$$$$
