
     RDKit          3D

 56 55  0  0  0  0  0  0  0  0999 V2000
   -7.6994   -1.3401    0.5526 C   0  0  0  0  0  0  0  0  0  0  0  0
   -6.9307   -0.1241    0.1772 C   0  0  0  0  0  0  0  0  0  0  0  0
   -6.0095   -0.2999   -0.9858 C   0  0  0  0  0  0  0  0  0  0  0  0
   -4.9569   -1.3326   -0.8078 C   0  0  0  0  0  0  0  0  0  0  0  0
   -4.0262   -1.0896    0.3428 C   0  0  0  0  0  0  0  0  0  0  0  0
   -3.2855    0.2231    0.1888 C   0  0  0  0  0  0  0  0  0  0  0  0
   -2.3522    0.4720    1.3336 C   0  0  0  0  0  0  0  0  0  0  0  0
   -1.5843    1.7295    1.2724 C   0  0  0  0  0  0  0  0  0  0  0  0
   -0.6855    1.9047    0.0925 C   0  0  0  0  0  0  0  0  0  0  0  0
    0.3773    0.7972    0.0246 C   0  0  0  0  0  0  0  0  0  0  0  0
    1.2241    1.0673   -1.1927 C   0  0  0  0  0  0  0  0  0  0  0  0
    2.2814    0.0112   -1.3149 C   0  0  0  0  0  0  0  0  0  0  0  0
    3.1786   -0.0122   -0.1131 C   0  0  0  0  0  0  0  0  0  0  0  0
    4.1998   -1.1075   -0.3544 C   0  0  0  0  0  0  0  0  0  0  0  0
    5.1684   -1.2305    0.7959 C   0  0  0  0  0  0  0  0  0  0  0  0
    5.9405    0.0230    1.0407 C   0  0  0  0  0  0  0  0  0  0  0  0
    6.7726    0.4790   -0.1200 C   0  0  0  0  0  0  0  0  0  0  0  0
    7.7756   -0.5849   -0.4513 C   0  0  0  0  0  0  0  0  0  0  0  0
    8.5266   -0.1626   -1.5353 O   0  0  0  0  0  0  0  0  0  0  0  0
    8.0744   -1.7181    0.0098 O   0  0  0  0  0  0  0  0  0  0  0  0
   -7.3606   -1.7545    1.5466 H   0  0  0  0  0  0  0  0  0  0  0  0
   -7.6905   -2.1448   -0.1841 H   0  0  0  0  0  0  0  0  0  0  0  0
   -8.7773   -1.1056    0.7251 H   0  0  0  0  0  0  0  0  0  0  0  0
   -6.3988    0.2747    1.0559 H   0  0  0  0  0  0  0  0  0  0  0  0
   -7.6501    0.6865   -0.1110 H   0  0  0  0  0  0  0  0  0  0  0  0
   -5.5729    0.6744   -1.2545 H   0  0  0  0  0  0  0  0  0  0  0  0
   -6.6100   -0.6143   -1.8844 H   0  0  0  0  0  0  0  0  0  0  0  0
   -4.3157   -1.2788   -1.7378 H   0  0  0  0  0  0  0  0  0  0  0  0
   -5.3481   -2.3648   -0.8268 H   0  0  0  0  0  0  0  0  0  0  0  0
   -3.3499   -1.9405    0.4985 H   0  0  0  0  0  0  0  0  0  0  0  0
   -4.6627   -0.9680    1.2645 H   0  0  0  0  0  0  0  0  0  0  0  0
   -2.6489    0.1521   -0.7393 H   0  0  0  0  0  0  0  0  0  0  0  0
   -4.0258    0.9978    0.0232 H   0  0  0  0  0  0  0  0  0  0  0  0
   -1.6878   -0.4020    1.4933 H   0  0  0  0  0  0  0  0  0  0  0  0
   -2.9906    0.5227    2.2419 H   0  0  0  0  0  0  0  0  0  0  0  0
   -0.9254    1.7669    2.1659 H   0  0  0  0  0  0  0  0  0  0  0  0
   -2.2291    2.6235    1.3505 H   0  0  0  0  0  0  0  0  0  0  0  0
   -1.2029    2.0316   -0.8621 H   0  0  0  0  0  0  0  0  0  0  0  0
   -0.1049    2.8374    0.2628 H   0  0  0  0  0  0  0  0  0  0  0  0
    1.0147    0.9988    0.9346 H   0  0  0  0  0  0  0  0  0  0  0  0
   -0.0732   -0.1919    0.0337 H   0  0  0  0  0  0  0  0  0  0  0  0
    1.6830    2.0782   -1.0949 H   0  0  0  0  0  0  0  0  0  0  0  0
    0.5724    1.0159   -2.0983 H   0  0  0  0  0  0  0  0  0  0  0  0
    1.7424   -0.9709   -1.4082 H   0  0  0  0  0  0  0  0  0  0  0  0
    2.8914    0.1285   -2.2256 H   0  0  0  0  0  0  0  0  0  0  0  0
    2.6193   -0.2333    0.8220 H   0  0  0  0  0  0  0  0  0  0  0  0
    3.6217    0.9879    0.0029 H   0  0  0  0  0  0  0  0  0  0  0  0
    4.7374   -0.9709   -1.2976 H   0  0  0  0  0  0  0  0  0  0  0  0
    3.6381   -2.0546   -0.4270 H   0  0  0  0  0  0  0  0  0  0  0  0
    5.8599   -2.0530    0.5720 H   0  0  0  0  0  0  0  0  0  0  0  0
    4.5933   -1.5209    1.7034 H   0  0  0  0  0  0  0  0  0  0  0  0
    6.6425   -0.1236    1.8900 H   0  0  0  0  0  0  0  0  0  0  0  0
    5.3013    0.8811    1.3371 H   0  0  0  0  0  0  0  0  0  0  0  0
    6.1494    0.6819   -1.0176 H   0  0  0  0  0  0  0  0  0  0  0  0
    7.3302    1.3820    0.2139 H   0  0  0  0  0  0  0  0  0  0  0  0
    9.2393   -0.7830   -1.9241 H   0  0  0  0  0  0  0  0  0  0  0  0
  1  2  1  0
  2  3  1  0
  3  4  1  0
  4  5  1  0
  5  6  1  0
  6  7  1  0
  7  8  1  0
  8  9  1  0
  9 10  1  0
 10 11  1  0
 11 12  1  0
 12 13  1  0
 13 14  1  0
 14 15  1  0
 15 16  1  0
 16 17  1  0
 17 18  1  0
 18 19  1  0
 18 20  2  0
  1 21  1  0
  1 22  1  0
  1 23  1  0
  2 24  1  0
  2 25  1  0
  3 26  1  0
  3 27  1  0
  4 28  1  0
  4 29  1  0
  5 30  1  0
  5 31  1  0
  6 32  1  0
  6 33  1  0
  7 34  1  0
  7 35  1  0
  8 36  1  0
  8 37  1  0
  9 38  1  0
  9 39  1  0
 10 40  1  0
 10 41  1  0
 11 42  1  0
 11 43  1  0
 12 44  1  0
 12 45  1  0
 13 46  1  0
 13 47  1  0
 14 48  1  0
 14 49  1  0
 15 50  1  0
 15 51  1  0
 16 52  1  0
 16 53  1  0
 17 54  1  0
 17 55  1  0
 19 56  1  0
M  END
$$$$
