@<TRIPOS>MOLECULE
*****
 29 31 0 0 0
SMALL
GASTEIGER

@<TRIPOS>ATOM
      1 O           1.8194   -3.0362   -0.2541 O.2     1  UNL1       -0.4784
      2 C           2.2275   -1.7660    0.1325 C.2     1  UNL1        0.3291
      3 N           3.3649   -1.4157    0.6259 N.2     1  UNL1       -0.0304
      4 C           3.3770   -0.0149    0.8870 C.cat   1  UNL1        0.4191
      5 N           4.4670    0.4368    1.3806 N.2     1  UNL1       -0.1281
      6 N           2.1135    0.5044    0.5060 N.pl3   1  UNL1       -0.1956
      7 C           1.3678   -0.5937    0.0218 C.2     1  UNL1        0.1753
      8 C           0.1057   -0.4959   -0.3472 C.2     1  UNL1        0.0069
      9 C          -0.6016   -1.7484   -0.7033 C.3     1  UNL1       -0.0040
     10 C          -2.0683   -1.6464   -0.8687 C.3     1  UNL1        0.0475
     11 N          -2.8513   -0.9104    0.0546 N.2     1  UNL1       -0.2488
     12 C          -2.7954    0.3172    0.4670 C.2     1  UNL1        0.2325
     13 O          -3.6300    0.9476    1.3894 O.2     1  UNL1       -0.4912
     14 C          -1.7639    1.2548   -0.0308 C.ar    1  UNL1        0.1087
     15 C          -0.4664    0.8632   -0.4138 C.ar    1  UNL1        0.0114
     16 C           0.2755    1.9281   -0.8753 C.ar    1  UNL1       -0.0361
     17 C          -0.6287    2.9963   -0.7528 C.ar    1  UNL1        0.0029
     18 N          -1.8322    2.5854   -0.2516 N.ar    1  UNL1       -0.3565
     19 H           2.4103   -3.8555   -0.1074 H       1  UNL1        0.2952
     20 H           4.6969    1.3982    1.6433 H       1  UNL1        0.3061
     21 H           2.0158    1.5127    0.6882 H       1  UNL1        0.2517
     22 H          -0.3805   -2.4790    0.1194 H       1  UNL1        0.0332
     23 H          -0.1815   -2.0891   -1.6701 H       1  UNL1        0.0332
     24 H          -2.2733   -1.3827   -1.9346 H       1  UNL1        0.0512
     25 H          -2.4540   -2.7149   -0.8082 H       1  UNL1        0.0512
     26 H          -4.4311    0.3771    1.6555 H       1  UNL1        0.2938
     27 H           1.2789    1.9473   -1.2644 H       1  UNL1        0.0639
     28 H          -0.4465    4.0256   -1.0070 H       1  UNL1        0.0807
     29 H          -2.7156    3.0540   -0.0236 H       1  UNL1        0.1655
@<TRIPOS>BOND
     1     1     2    1
     2     2     3    2
     3     3     4    1
     4     4     5    2
     5     4     6    1
     6     6     7    1
     7     7     8    2
     8     8     9    1
     9     9    10    1
    10    10    11    1
    11    11    12    2
    12    12    13    1
    13    12    14    1
    14    14    15   ar
    15    15    16   ar
    16    16    17   ar
    17    17    18   ar
    18     7     2    1
    19    15     8    1
    20    18    14   ar
    21     1    19    1
    22     5    20    1
    23     6    21    1
    24     9    22    1
    25     9    23    1
    26    10    24    1
    27    10    25    1
    28    13    26    1
    29    16    27    1
    30    17    28    1
    31    18    29    1
