
     RDKit          3D

 29 31  0  0  0  0  0  0  0  0999 V2000
    1.8194   -3.0362   -0.2541 O   0  0  0  0  0  0  0  0  0  0  0  0
    2.2275   -1.7660    0.1325 C   0  0  0  0  0  0  0  0  0  0  0  0
    3.3649   -1.4157    0.6259 N   0  0  0  0  0  0  0  0  0  0  0  0
    3.3770   -0.0149    0.8870 C   0  0  0  0  0  0  0  0  0  0  0  0
    4.4670    0.4368    1.3806 N   0  0  0  0  0  0  0  0  0  0  0  0
    2.1135    0.5044    0.5060 N   0  0  0  0  0  0  0  0  0  0  0  0
    1.3678   -0.5937    0.0218 C   0  0  0  0  0  0  0  0  0  0  0  0
    0.1057   -0.4959   -0.3472 C   0  0  0  0  0  0  0  0  0  0  0  0
   -0.6016   -1.7484   -0.7033 C   0  0  0  0  0  0  0  0  0  0  0  0
   -2.0683   -1.6464   -0.8687 C   0  0  0  0  0  0  0  0  0  0  0  0
   -2.8513   -0.9104    0.0546 N   0  0  0  0  0  0  0  0  0  0  0  0
   -2.7954    0.3172    0.4670 C   0  0  0  0  0  0  0  0  0  0  0  0
   -3.6300    0.9476    1.3894 O   0  0  0  0  0  0  0  0  0  0  0  0
   -1.7639    1.2548   -0.0308 C   0  0  0  0  0  0  0  0  0  0  0  0
   -0.4664    0.8632   -0.4138 C   0  0  0  0  0  0  0  0  0  0  0  0
    0.2755    1.9281   -0.8753 C   0  0  0  0  0  0  0  0  0  0  0  0
   -0.6287    2.9963   -0.7528 C   0  0  0  0  0  0  0  0  0  0  0  0
   -1.8322    2.5854   -0.2516 N   0  0  0  0  0  0  0  0  0  0  0  0
    2.4103   -3.8555   -0.1074 H   0  0  0  0  0  0  0  0  0  0  0  0
    4.6969    1.3982    1.6433 H   0  0  0  0  0  0  0  0  0  0  0  0
    2.0158    1.5127    0.6882 H   0  0  0  0  0  0  0  0  0  0  0  0
   -0.3805   -2.4790    0.1194 H   0  0  0  0  0  0  0  0  0  0  0  0
   -0.1815   -2.0891   -1.6701 H   0  0  0  0  0  0  0  0  0  0  0  0
   -2.2733   -1.3827   -1.9346 H   0  0  0  0  0  0  0  0  0  0  0  0
   -2.4540   -2.7149   -0.8082 H   0  0  0  0  0  0  0  0  0  0  0  0
   -4.4311    0.3771    1.6555 H   0  0  0  0  0  0  0  0  0  0  0  0
    1.2789    1.9473   -1.2644 H   0  0  0  0  0  0  0  0  0  0  0  0
   -0.4465    4.0256   -1.0070 H   0  0  0  0  0  0  0  0  0  0  0  0
   -2.7156    3.0540   -0.0236 H   0  0  0  0  0  0  0  0  0  0  0  0
  1  2  1  0
  2  3  2  0
  3  4  1  0
  4  5  2  3
  4  6  1  0
  6  7  1  0
  7  8  2  0
  8  9  1  0
  9 10  1  0
 10 11  1  0
 11 12  2  0
 12 13  1  0
 12 14  1  0
 14 15  2  0
 15 16  1  0
 16 17  2  0
 17 18  1  0
  7  2  1  0
 15  8  1  0
 18 14  1  0
  1 19  1  0
  5 20  1  0
  6 21  1  0
  9 22  1  0
  9 23  1  0
 10 24  1  0
 10 25  1  0
 13 26  1  0
 16 27  1  0
 17 28  1  0
 18 29  1  0
M  END
$$$$
