@<TRIPOS>MOLECULE
*****
 57 59 0 0 0
SMALL
GASTEIGER

@<TRIPOS>ATOM
      1 C          -7.6717   -1.4201    3.2460 C.3     1  UNL1        0.0365
      2 O          -7.5804   -0.5063    2.2205 O.3     1  UNL1       -0.3817
      3 C          -6.3315   -0.5460    1.5951 C.3     1  UNL1        0.0600
      4 C          -6.2446    0.4520    0.4838 C.3     1  UNL1        0.0224
      5 N          -4.9917    0.4637   -0.1995 N.3     1  UNL1       -0.2990
      6 C          -4.8767   -0.7956   -0.9286 C.3     1  UNL1       -0.0123
      7 C          -3.8785    0.5955    0.6913 C.3     1  UNL1        0.0238
      8 C          -2.5782    0.6266    0.0004 C.ar    1  UNL1       -0.0333
      9 C          -1.8796   -0.5362   -0.2429 C.ar    1  UNL1       -0.0566
     10 C          -0.6516   -0.5217   -0.8917 C.ar    1  UNL1       -0.0493
     11 C          -0.1024    0.6587   -1.3081 C.ar    1  UNL1        0.0370
     12 C           1.1786    0.6892   -1.9826 C.2     1  UNL1        0.2483
     13 O           1.6516    1.8157   -2.3751 O.2     1  UNL1       -0.2699
     14 N           1.9809   -0.4292   -2.2583 N.am    1  UNL1       -0.2808
     15 C           3.2306   -0.3706   -2.9196 C.ar    1  UNL1        0.0459
     16 C           3.3460   -0.4740   -4.2986 C.ar    1  UNL1       -0.0384
     17 C           4.5617   -0.4130   -4.9469 C.ar    1  UNL1       -0.0416
     18 C           5.7121   -0.2427   -4.2035 C.ar    1  UNL1        0.0418
     19 CL          7.2862   -0.1580   -4.9819 Cl      1  UNL1       -0.0835
     20 C           5.5913   -0.1391   -2.8150 C.ar    1  UNL1       -0.0295
     21 C           4.3731   -0.2003   -2.1642 C.ar    1  UNL1        0.0596
     22 C           4.2427   -0.0957   -0.7042 C.2     1  UNL1        0.2511
     23 O           3.1001   -0.1789   -0.2096 O.2     1  UNL1       -0.2697
     24 N           5.3158    0.0916    0.1757 N.am    1  UNL1       -0.2663
     25 C           5.3063    0.2032    1.5755 C.ar    1  UNL1        0.1252
     26 C           4.2212    0.1380    2.3945 C.ar    1  UNL1       -0.0201
     27 C           4.3164    0.2651    3.7945 C.ar    1  UNL1       -0.0387
     28 C           5.5427    0.4632    4.3769 C.ar    1  UNL1        0.0592
     29 CL          5.7435    0.6308    6.1124 Cl      1  UNL1       -0.0820
     30 C           6.6279    0.5263    3.5332 C.ar    1  UNL1        0.0480
     31 N           6.5055    0.4019    2.2071 N.ar    1  UNL1       -0.2387
     32 C          -0.7953    1.8256   -1.0684 C.ar    1  UNL1       -0.0493
     33 C          -2.0239    1.8168   -0.4198 C.ar    1  UNL1       -0.0566
     34 H          -8.6503   -1.3835    3.7292 H       1  UNL1        0.0523
     35 H          -6.8915   -1.1966    4.0259 H       1  UNL1        0.0523
     36 H          -7.4426   -2.4681    2.9175 H       1  UNL1        0.0523
     37 H          -5.5944   -0.3538    2.4010 H       1  UNL1        0.0572
     38 H          -6.1423   -1.5906    1.2503 H       1  UNL1        0.0572
     39 H          -7.0323    0.2114   -0.2589 H       1  UNL1        0.0449
     40 H          -6.4719    1.4478    0.9166 H       1  UNL1        0.0449
     41 H          -5.8001   -0.9726   -1.5420 H       1  UNL1        0.0391
     42 H          -4.7455   -1.6619   -0.2533 H       1  UNL1        0.0391
     43 H          -4.0147   -0.7218   -1.6196 H       1  UNL1        0.0391
     44 H          -3.9855    1.5257    1.2862 H       1  UNL1        0.0476
     45 H          -3.8435   -0.2950    1.3757 H       1  UNL1        0.0476
     46 H          -2.3299   -1.4597    0.0938 H       1  UNL1        0.0621
     47 H          -0.1352   -1.4406   -1.0652 H       1  UNL1        0.0625
     48 H           1.6541   -1.3711   -1.9662 H       1  UNL1        0.1552
     49 H           2.4286   -0.6089   -4.8793 H       1  UNL1        0.0637
     50 H           4.6195   -0.4969   -6.0245 H       1  UNL1        0.0633
     51 H           6.4998   -0.0079   -2.2642 H       1  UNL1        0.0640
     52 H           6.2691    0.1566   -0.3063 H       1  UNL1        0.1566
     53 H           3.2460   -0.0188    1.9510 H       1  UNL1        0.0652
     54 H           3.4308    0.2052    4.3836 H       1  UNL1        0.0634
     55 H           7.6072    0.6847    4.0008 H       1  UNL1        0.0845
     56 H          -0.3418    2.7393   -1.4055 H       1  UNL1        0.0625
     57 H          -2.5618    2.7338   -0.2350 H       1  UNL1        0.0621
@<TRIPOS>BOND
     1     1     2    1
     2     2     3    1
     3     3     4    1
     4     4     5    1
     5     5     6    1
     6     5     7    1
     7     7     8    1
     8     8     9   ar
     9     9    10   ar
    10    10    11   ar
    11    11    12    1
    12    12    13    2
    13    12    14   am
    14    14    15    1
    15    15    16   ar
    16    16    17   ar
    17    17    18   ar
    18    18    19    1
    19    18    20   ar
    20    20    21   ar
    21    21    22    1
    22    22    23    2
    23    22    24   am
    24    24    25    1
    25    25    26   ar
    26    26    27   ar
    27    27    28   ar
    28    28    29    1
    29    28    30   ar
    30    30    31   ar
    31    11    32   ar
    32    32    33   ar
    33    33     8   ar
    34    21    15   ar
    35    31    25   ar
    36     1    34    1
    37     1    35    1
    38     1    36    1
    39     3    37    1
    40     3    38    1
    41     4    39    1
    42     4    40    1
    43     6    41    1
    44     6    42    1
    45     6    43    1
    46     7    44    1
    47     7    45    1
    48     9    46    1
    49    10    47    1
    50    14    48    1
    51    16    49    1
    52    17    50    1
    53    20    51    1
    54    24    52    1
    55    26    53    1
    56    27    54    1
    57    30    55    1
    58    32    56    1
    59    33    57    1
