@<TRIPOS>MOLECULE
*****
 68 70 0 0 0
SMALL
GASTEIGER

@<TRIPOS>ATOM
      1 C          -4.5257   -0.3292    1.4419 C.3     1  UNL1       -0.0643
      2 C          -4.3858   -1.7467    1.0081 C.3     1  UNL1       -0.0406
      3 C          -2.9574   -2.1793    0.7834 C.3     1  UNL1        0.0619
      4 C          -3.0047   -3.6317    0.3516 C.3     1  UNL1       -0.0497
      5 C          -2.1704   -2.1378    2.0829 C.3     1  UNL1       -0.0497
      6 C          -2.2967   -1.3888   -0.2883 C.2     1  UNL1        0.3130
      7 O          -1.8458   -1.9534   -1.3160 O.2     1  UNL1       -0.2502
      8 O          -2.1417   -0.0160   -0.2208 O.3     1  UNL1       -0.4603
      9 C          -1.5132    0.7327   -1.2286 C.3     1  UNL1        0.1106
     10 C          -2.5367    1.6139   -1.9509 C.3     1  UNL1       -0.0090
     11 C          -1.9635    2.9714   -2.2670 C.3     1  UNL1       -0.0218
     12 C          -2.9379    3.7938   -3.0398 C.3     1  UNL1       -0.0588
     13 C          -1.6496    3.5936   -0.9297 C.2     1  UNL1       -0.0775
     14 C          -0.8348    2.8661   -0.1850 C.2     1  UNL1       -0.0444
     15 C          -0.4013    3.2952    1.1610 C.2     1  UNL1       -0.0621
     16 C           0.7466    2.8533    1.6460 C.2     1  UNL1       -0.0806
     17 C           1.5120    1.9399    0.7599 C.3     1  UNL1       -0.0219
     18 C           2.0629    2.8169   -0.3653 C.3     1  UNL1       -0.0587
     19 C           0.5557    0.9102    0.2157 C.3     1  UNL1       -0.0247
     20 C           1.3188   -0.2183   -0.3852 C.3     1  UNL1       -0.0457
     21 C           2.1886   -0.9251    0.5942 C.3     1  UNL1       -0.0153
     22 C           2.8970   -2.0564   -0.1390 C.3     1  UNL1        0.1054
     23 C           3.7897   -2.8015    0.8117 C.3     1  UNL1        0.0109
     24 C           5.0549   -2.0451    1.1123 C.3     1  UNL1        0.0686
     25 O           5.8503   -2.7446    2.0143 O.3     1  UNL1       -0.3911
     26 C           5.7907   -1.7341   -0.1725 C.3     1  UNL1        0.0710
     27 C           4.8495   -1.0204   -1.0685 C.2     1  UNL1        0.3098
     28 O           5.2241    0.0668   -1.6216 O.2     1  UNL1       -0.2507
     29 O           3.5975   -1.5719   -1.2650 O.3     1  UNL1       -0.4612
     30 C          -0.3660    1.5831   -0.7585 C.3     1  UNL1        0.0243
     31 H          -4.9602    0.2556    0.5906 H       1  UNL1        0.0230
     32 H          -3.5972    0.1556    1.7527 H       1  UNL1        0.0230
     33 H          -5.2556   -0.1910    2.2817 H       1  UNL1        0.0230
     34 H          -4.7948   -2.3998    1.8071 H       1  UNL1        0.0273
     35 H          -4.9690   -1.9749    0.0926 H       1  UNL1        0.0273
     36 H          -3.1713   -3.6120   -0.7579 H       1  UNL1        0.0240
     37 H          -3.8957   -4.1314    0.7753 H       1  UNL1        0.0240
     38 H          -2.0671   -4.1720    0.6040 H       1  UNL1        0.0240
     39 H          -1.1263   -1.7981    1.9222 H       1  UNL1        0.0240
     40 H          -2.0936   -3.1553    2.5436 H       1  UNL1        0.0240
     41 H          -2.7008   -1.5136    2.8511 H       1  UNL1        0.0240
     42 H          -1.1483    0.0366   -2.0060 H       1  UNL1        0.0740
     43 H          -3.3973    1.7967   -1.2518 H       1  UNL1        0.0307
     44 H          -2.8753    1.1559   -2.8964 H       1  UNL1        0.0307
     45 H          -1.0246    2.8782   -2.8610 H       1  UNL1        0.0342
     46 H          -3.9453    3.3129   -3.0942 H       1  UNL1        0.0235
     47 H          -3.0010    4.7980   -2.5335 H       1  UNL1        0.0235
     48 H          -2.5785    3.9866   -4.0782 H       1  UNL1        0.0235
     49 H          -2.0305    4.5234   -0.5888 H       1  UNL1        0.0578
     50 H          -1.0575    3.9574    1.6761 H       1  UNL1        0.0617
     51 H           1.1173    3.1192    2.6012 H       1  UNL1        0.0575
     52 H           2.3973    1.5258    1.2710 H       1  UNL1        0.0343
     53 H           1.4356    3.7192   -0.5402 H       1  UNL1        0.0235
     54 H           2.2160    2.2137   -1.2837 H       1  UNL1        0.0235
     55 H           3.0589    3.1768   -0.0595 H       1  UNL1        0.0235
     56 H          -0.0262    0.5228    1.0967 H       1  UNL1        0.0313
     57 H           0.6028   -0.9079   -0.8742 H       1  UNL1        0.0269
     58 H           1.9488    0.1713   -1.2383 H       1  UNL1        0.0269
     59 H           1.5066   -1.4401    1.3251 H       1  UNL1        0.0301
     60 H           2.8763   -0.3345    1.1817 H       1  UNL1        0.0301
     61 H           2.0842   -2.7033   -0.5418 H       1  UNL1        0.0734
     62 H           3.2210   -2.9327    1.7695 H       1  UNL1        0.0326
     63 H           3.9735   -3.8150    0.4287 H       1  UNL1        0.0326
     64 H           4.7515   -1.0520    1.5381 H       1  UNL1        0.0600
     65 H           5.5811   -3.7091    2.0301 H       1  UNL1        0.2098
     66 H           6.0857   -2.6859   -0.7000 H       1  UNL1        0.0403
     67 H           6.7046   -1.1480    0.0451 H       1  UNL1        0.0403
     68 H           0.2478    1.8342   -1.6598 H       1  UNL1        0.0388
@<TRIPOS>BOND
     1     1     2    1
     2     2     3    1
     3     3     4    1
     4     3     5    1
     5     3     6    1
     6     6     7    2
     7     6     8    1
     8     8     9    1
     9     9    10    1
    10    10    11    1
    11    11    12    1
    12    11    13    1
    13    13    14    2
    14    14    15    1
    15    15    16    2
    16    16    17    1
    17    17    18    1
    18    17    19    1
    19    19    20    1
    20    20    21    1
    21    21    22    1
    22    22    23    1
    23    23    24    1
    24    24    25    1
    25    24    26    1
    26    26    27    1
    27    27    28    2
    28    27    29    1
    29    19    30    1
    30    30     9    1
    31    30    14    1
    32    29    22    1
    33     1    31    1
    34     1    32    1
    35     1    33    1
    36     2    34    1
    37     2    35    1
    38     4    36    1
    39     4    37    1
    40     4    38    1
    41     5    39    1
    42     5    40    1
    43     5    41    1
    44     9    42    1
    45    10    43    1
    46    10    44    1
    47    11    45    1
    48    12    46    1
    49    12    47    1
    50    12    48    1
    51    13    49    1
    52    15    50    1
    53    16    51    1
    54    17    52    1
    55    18    53    1
    56    18    54    1
    57    18    55    1
    58    19    56    1
    59    20    57    1
    60    20    58    1
    61    21    59    1
    62    21    60    1
    63    22    61    1
    64    23    62    1
    65    23    63    1
    66    24    64    1
    67    25    65    1
    68    26    66    1
    69    26    67    1
    70    30    68    1
