@<TRIPOS>MOLECULE
*****
 59 61 0 0 0
SMALL
GASTEIGER

@<TRIPOS>ATOM
      1 C          -2.3321    3.5699   -1.4580 C.3     1  UNL1        0.0122
      2 C          -2.2205    3.4856    0.0145 C.2     1  UNL1        0.2105
      3 O          -1.6477    4.4031    0.6491 O.2     1  UNL1       -0.2761
      4 N          -2.7371    2.3992    0.7713 N.am    1  UNL1       -0.3037
      5 C          -2.6305    2.3133    2.2033 C.3     1  UNL1        0.1094
      6 C          -3.9902    2.2194    2.8721 C.3     1  UNL1        0.0716
      7 C          -4.8355    3.4015    2.5699 C.2     1  UNL1        0.3070
      8 O          -4.5073    4.3639    1.8640 O.2     1  UNL1       -0.2509
      9 O          -6.1061    3.4206    3.1335 O.3     1  UNL1       -0.4806
     10 C          -1.8451    1.0754    2.5547 C.2     1  UNL1        0.2345
     11 O          -1.5934    0.7566    3.7406 O.2     1  UNL1       -0.2737
     12 N          -1.3508    0.2058    1.5459 N.am    1  UNL1       -0.3025
     13 C          -0.5967   -0.9922    1.7806 C.3     1  UNL1        0.0997
     14 C          -1.2789   -2.2445    1.3675 C.3     1  UNL1       -0.0259
     15 C          -1.1147   -2.5331   -0.1078 C.3     1  UNL1       -0.0485
     16 C           0.0878   -3.3309   -0.4644 C.3     1  UNL1       -0.0248
     17 C           1.1529   -3.3641    0.5505 C.3     1  UNL1        0.0732
     18 S           2.6653   -4.1978   -0.0390 S.3     1  UNL1       -0.1360
     19 C           3.7776   -3.1634    1.0112 C.3     1  UNL1        0.0226
     20 C           3.0367   -1.8624    0.8388 C.3     1  UNL1        0.1122
     21 C           3.5396   -1.2773   -0.4492 C.2     1  UNL1        0.2348
     22 O           4.8012   -1.1580   -0.6333 O.2     1  UNL1       -0.2737
     23 N           2.7068   -0.8355   -1.5001 N.am    1  UNL1       -0.3044
     24 C           3.3047   -0.2823   -2.7041 C.3     1  UNL1        0.0954
     25 C           2.7558   -0.8793   -3.9551 C.3     1  UNL1        0.0692
     26 C           2.0833    0.2404   -4.6655 C.2     1  UNL1        0.3113
     27 O           1.6976    0.2668   -5.8561 O.2     1  UNL1       -0.2507
     28 O           1.9453    1.2855   -3.7726 O.3     1  UNL1       -0.4332
     29 C           2.9807    1.1985   -2.8358 C.3     1  UNL1        0.2213
     30 O           2.6413    1.7388   -1.5887 O.3     1  UNL1       -0.3563
     31 N           1.6267   -2.0433    0.8825 N.am    1  UNL1       -0.2756
     32 C           0.7654   -0.9520    1.2392 C.2     1  UNL1        0.2374
     33 O           1.2631    0.2042    1.0569 O.2     1  UNL1       -0.2735
     34 H          -1.3373    3.6839   -1.9040 H       1  UNL1        0.0322
     35 H          -3.0471    4.3651   -1.7912 H       1  UNL1        0.0322
     36 H          -2.7713    2.6088   -1.7988 H       1  UNL1        0.0322
     37 H          -3.2138    1.6369    0.2415 H       1  UNL1        0.1495
     38 H          -2.1165    3.1952    2.6274 H       1  UNL1        0.0600
     39 H          -3.8329    2.2231    3.9766 H       1  UNL1        0.0401
     40 H          -4.4874    1.2531    2.6484 H       1  UNL1        0.0401
     41 H          -6.5470    4.3275    3.3157 H       1  UNL1        0.2951
     42 H          -1.5552    0.4619    0.5544 H       1  UNL1        0.1495
     43 H          -0.4817   -1.0521    2.9066 H       1  UNL1        0.0594
     44 H          -2.3904   -2.2189    1.6318 H       1  UNL1        0.0288
     45 H          -0.9314   -3.1446    1.9108 H       1  UNL1        0.0288
     46 H          -2.0266   -3.1476   -0.3816 H       1  UNL1        0.0267
     47 H          -1.2235   -1.6101   -0.7179 H       1  UNL1        0.0267
     48 H          -0.2070   -4.3906   -0.7370 H       1  UNL1        0.0291
     49 H           0.4682   -2.9301   -1.4448 H       1  UNL1        0.0291
     50 H           0.8201   -3.9383    1.4603 H       1  UNL1        0.0616
     51 H           3.7522   -3.5354    2.0541 H       1  UNL1        0.0400
     52 H           4.7714   -3.0784    0.5746 H       1  UNL1        0.0400
     53 H           3.3221   -1.1755    1.6859 H       1  UNL1        0.0605
     54 H           1.6895   -0.9041   -1.4056 H       1  UNL1        0.1493
     55 H           4.4306   -0.3220   -2.6392 H       1  UNL1        0.0565
     56 H           2.0484   -1.7208   -3.7908 H       1  UNL1        0.0398
     57 H           3.6224   -1.2107   -4.5760 H       1  UNL1        0.0398
     58 H           3.8671    1.7809   -3.1876 H       1  UNL1        0.1074
     59 H           3.3320    1.4102   -0.9396 H       1  UNL1        0.2136
@<TRIPOS>BOND
     1     1     2    1
     2     2     3    2
     3     2     4   am
     4     4     5    1
     5     5     6    1
     6     6     7    1
     7     7     8    2
     8     7     9    1
     9     5    10    1
    10    10    11    2
    11    10    12   am
    12    12    13    1
    13    13    14    1
    14    14    15    1
    15    15    16    1
    16    16    17    1
    17    17    18    1
    18    18    19    1
    19    19    20    1
    20    20    21    1
    21    21    22    2
    22    21    23   am
    23    23    24    1
    24    24    25    1
    25    25    26    1
    26    26    27    2
    27    26    28    1
    28    28    29    1
    29    29    30    1
    30    20    31    1
    31    31    32   am
    32    32    33    2
    33    32    13    1
    34    31    17    1
    35    29    24    1
    36     1    34    1
    37     1    35    1
    38     1    36    1
    39     4    37    1
    40     5    38    1
    41     6    39    1
    42     6    40    1
    43     9    41    1
    44    12    42    1
    45    13    43    1
    46    14    44    1
    47    14    45    1
    48    15    46    1
    49    15    47    1
    50    16    48    1
    51    16    49    1
    52    17    50    1
    53    19    51    1
    54    19    52    1
    55    20    53    1
    56    23    54    1
    57    24    55    1
    58    25    56    1
    59    25    57    1
    60    29    58    1
    61    30    59    1
