
     RDKit          3D

 59 61  0  0  0  0  0  0  0  0999 V2000
   -2.3321    3.5699   -1.4580 C   0  0  0  0  0  0  0  0  0  0  0  0
   -2.2205    3.4856    0.0145 C   0  0  0  0  0  0  0  0  0  0  0  0
   -1.6477    4.4031    0.6491 O   0  0  0  0  0  0  0  0  0  0  0  0
   -2.7371    2.3992    0.7713 N   0  0  0  0  0  0  0  0  0  0  0  0
   -2.6305    2.3133    2.2033 C   0  0  1  0  0  0  0  0  0  0  0  0
   -3.9902    2.2194    2.8721 C   0  0  0  0  0  0  0  0  0  0  0  0
   -4.8355    3.4015    2.5699 C   0  0  0  0  0  0  0  0  0  0  0  0
   -4.5073    4.3639    1.8640 O   0  0  0  0  0  0  0  0  0  0  0  0
   -6.1061    3.4206    3.1335 O   0  0  0  0  0  0  0  0  0  0  0  0
   -1.8451    1.0754    2.5547 C   0  0  0  0  0  0  0  0  0  0  0  0
   -1.5934    0.7566    3.7406 O   0  0  0  0  0  0  0  0  0  0  0  0
   -1.3508    0.2058    1.5459 N   0  0  0  0  0  0  0  0  0  0  0  0
   -0.5967   -0.9922    1.7806 C   0  0  1  0  0  0  0  0  0  0  0  0
   -1.2789   -2.2445    1.3675 C   0  0  0  0  0  0  0  0  0  0  0  0
   -1.1147   -2.5331   -0.1078 C   0  0  0  0  0  0  0  0  0  0  0  0
    0.0878   -3.3309   -0.4644 C   0  0  0  0  0  0  0  0  0  0  0  0
    1.1529   -3.3641    0.5505 C   0  0  1  0  0  0  0  0  0  0  0  0
    2.6653   -4.1978   -0.0390 S   0  0  0  0  0  0  0  0  0  0  0  0
    3.7776   -3.1634    1.0112 C   0  0  0  0  0  0  0  0  0  0  0  0
    3.0367   -1.8624    0.8388 C   0  0  1  0  0  0  0  0  0  0  0  0
    3.5396   -1.2773   -0.4492 C   0  0  0  0  0  0  0  0  0  0  0  0
    4.8012   -1.1580   -0.6333 O   0  0  0  0  0  0  0  0  0  0  0  0
    2.7068   -0.8355   -1.5001 N   0  0  0  0  0  0  0  0  0  0  0  0
    3.3047   -0.2823   -2.7041 C   0  0  1  0  0  0  0  0  0  0  0  0
    2.7558   -0.8793   -3.9551 C   0  0  0  0  0  0  0  0  0  0  0  0
    2.0833    0.2404   -4.6655 C   0  0  0  0  0  0  0  0  0  0  0  0
    1.6976    0.2668   -5.8561 O   0  0  0  0  0  0  0  0  0  0  0  0
    1.9453    1.2855   -3.7726 O   0  0  0  0  0  0  0  0  0  0  0  0
    2.9807    1.1985   -2.8358 C   0  0  0  0  0  0  0  0  0  0  0  0
    2.6413    1.7388   -1.5887 O   0  0  0  0  0  0  0  0  0  0  0  0
    1.6267   -2.0433    0.8825 N   0  0  0  0  0  0  0  0  0  0  0  0
    0.7654   -0.9520    1.2392 C   0  0  0  0  0  0  0  0  0  0  0  0
    1.2631    0.2042    1.0569 O   0  0  0  0  0  0  0  0  0  0  0  0
   -1.3373    3.6839   -1.9040 H   0  0  0  0  0  0  0  0  0  0  0  0
   -3.0471    4.3651   -1.7912 H   0  0  0  0  0  0  0  0  0  0  0  0
   -2.7713    2.6088   -1.7988 H   0  0  0  0  0  0  0  0  0  0  0  0
   -3.2138    1.6369    0.2415 H   0  0  0  0  0  0  0  0  0  0  0  0
   -2.1165    3.1952    2.6274 H   0  0  0  0  0  0  0  0  0  0  0  0
   -3.8329    2.2231    3.9766 H   0  0  0  0  0  0  0  0  0  0  0  0
   -4.4874    1.2531    2.6484 H   0  0  0  0  0  0  0  0  0  0  0  0
   -6.5470    4.3275    3.3157 H   0  0  0  0  0  0  0  0  0  0  0  0
   -1.5552    0.4619    0.5544 H   0  0  0  0  0  0  0  0  0  0  0  0
   -0.4817   -1.0521    2.9066 H   0  0  0  0  0  0  0  0  0  0  0  0
   -2.3904   -2.2189    1.6318 H   0  0  0  0  0  0  0  0  0  0  0  0
   -0.9314   -3.1446    1.9108 H   0  0  0  0  0  0  0  0  0  0  0  0
   -2.0266   -3.1476   -0.3816 H   0  0  0  0  0  0  0  0  0  0  0  0
   -1.2235   -1.6101   -0.7179 H   0  0  0  0  0  0  0  0  0  0  0  0
   -0.2070   -4.3906   -0.7370 H   0  0  0  0  0  0  0  0  0  0  0  0
    0.4682   -2.9301   -1.4448 H   0  0  0  0  0  0  0  0  0  0  0  0
    0.8201   -3.9383    1.4603 H   0  0  0  0  0  0  0  0  0  0  0  0
    3.7522   -3.5354    2.0541 H   0  0  0  0  0  0  0  0  0  0  0  0
    4.7714   -3.0784    0.5746 H   0  0  0  0  0  0  0  0  0  0  0  0
    3.3221   -1.1755    1.6859 H   0  0  0  0  0  0  0  0  0  0  0  0
    1.6895   -0.9041   -1.4056 H   0  0  0  0  0  0  0  0  0  0  0  0
    4.4306   -0.3220   -2.6392 H   0  0  0  0  0  0  0  0  0  0  0  0
    2.0484   -1.7208   -3.7908 H   0  0  0  0  0  0  0  0  0  0  0  0
    3.6224   -1.2107   -4.5760 H   0  0  0  0  0  0  0  0  0  0  0  0
    3.8671    1.7809   -3.1876 H   0  0  0  0  0  0  0  0  0  0  0  0
    3.3320    1.4102   -0.9396 H   0  0  0  0  0  0  0  0  0  0  0  0
  1  2  1  0
  2  3  2  0
  2  4  1  0
  4  5  1  0
  5  6  1  0
  6  7  1  0
  7  8  2  0
  7  9  1  0
  5 10  1  0
 10 11  2  0
 10 12  1  0
 12 13  1  0
 13 14  1  0
 14 15  1  0
 15 16  1  0
 16 17  1  0
 17 18  1  0
 18 19  1  0
 19 20  1  0
 20 21  1  0
 21 22  2  0
 21 23  1  0
 23 24  1  0
 24 25  1  0
 25 26  1  0
 26 27  2  0
 26 28  1  0
 28 29  1  0
 29 30  1  0
 20 31  1  0
 31 32  1  0
 32 33  2  0
 32 13  1  0
 31 17  1  0
 29 24  1  0
  1 34  1  0
  1 35  1  0
  1 36  1  0
  4 37  1  0
  5 38  1  1
  6 39  1  0
  6 40  1  0
  9 41  1  0
 12 42  1  0
 13 43  1  1
 14 44  1  0
 14 45  1  0
 15 46  1  0
 15 47  1  0
 16 48  1  0
 16 49  1  0
 17 50  1  1
 19 51  1  0
 19 52  1  0
 20 53  1  1
 23 54  1  0
 24 55  1  1
 25 56  1  0
 25 57  1  0
 29 58  1  0
 30 59  1  0
M  END
$$$$
