@<TRIPOS>MOLECULE
*****
 40 42 0 0 0
SMALL
GASTEIGER

@<TRIPOS>ATOM
      1 C           3.8153    0.8350   -0.8060 C.3     1  UNL1       -0.0130
      2 N           2.6246    0.9842    0.0010 N.3     1  UNL1       -0.3083
      3 C           3.0294    1.7008    1.2077 C.3     1  UNL1       -0.0130
      4 C           2.0766   -0.2787    0.4214 C.3     1  UNL1       -0.0003
      5 C           1.5163   -1.0613   -0.7194 C.3     1  UNL1       -0.0240
      6 C           0.3685   -0.4896   -1.4635 C.3     1  UNL1        0.0185
      7 N          -0.8381   -0.2705   -0.6997 N.pl3   1  UNL1       -0.2983
      8 C          -1.2374    0.9370   -0.0795 C.ar    1  UNL1        0.0479
      9 C          -0.4752    2.0630   -0.2859 C.ar    1  UNL1       -0.0393
     10 C          -0.7642    3.3052    0.2339 C.ar    1  UNL1       -0.0599
     11 C          -1.9026    3.4687    1.0298 C.ar    1  UNL1       -0.0606
     12 C          -2.6787    2.3481    1.2458 C.ar    1  UNL1       -0.0462
     13 C          -2.3204    1.1608    0.6948 C.ar    1  UNL1        0.0341
     14 S          -3.4389   -0.1660    1.0629 S.3     1  UNL1       -0.0857
     15 C          -2.7940   -1.5724    0.1815 C.ar    1  UNL1        0.0341
     16 C          -3.5508   -2.6728    0.3318 C.ar    1  UNL1       -0.0462
     17 C          -3.1596   -3.8505   -0.2891 C.ar    1  UNL1       -0.0606
     18 C          -2.0031   -3.8365   -1.0375 C.ar    1  UNL1       -0.0599
     19 C          -1.2997   -2.6540   -1.1278 C.ar    1  UNL1       -0.0393
     20 C          -1.6285   -1.4533   -0.5409 C.ar    1  UNL1        0.0479
     21 H           4.3419   -0.0868   -0.4859 H       1  UNL1        0.0391
     22 H           3.5363    0.7911   -1.8951 H       1  UNL1        0.0391
     23 H           4.4943    1.6877   -0.6016 H       1  UNL1        0.0391
     24 H           2.2848    1.6247    2.0040 H       1  UNL1        0.0391
     25 H           3.2316    2.7572    0.9053 H       1  UNL1        0.0391
     26 H           3.9559    1.1993    1.5772 H       1  UNL1        0.0391
     27 H           2.8523   -0.8985    0.9238 H       1  UNL1        0.0427
     28 H           1.2458   -0.0450    1.1228 H       1  UNL1        0.0427
     29 H           1.3158   -2.0797   -0.3015 H       1  UNL1        0.0293
     30 H           2.3798   -1.1341   -1.4592 H       1  UNL1        0.0293
     31 H           0.1232   -1.0693   -2.3843 H       1  UNL1        0.0468
     32 H           0.7112    0.5346   -1.8103 H       1  UNL1        0.0468
     33 H           0.4028    2.1234   -0.8766 H       1  UNL1        0.0636
     34 H          -0.1854    4.2196    0.0935 H       1  UNL1        0.0618
     35 H          -2.1594    4.4266    1.4515 H       1  UNL1        0.0618
     36 H          -3.5512    2.5141    1.8668 H       1  UNL1        0.0629
     37 H          -4.4581   -2.7580    0.8970 H       1  UNL1        0.0629
     38 H          -3.7284   -4.7621   -0.2033 H       1  UNL1        0.0618
     39 H          -1.7130   -4.7629   -1.5135 H       1  UNL1        0.0618
     40 H          -0.4198   -2.7790   -1.7353 H       1  UNL1        0.0636
@<TRIPOS>BOND
     1     1     2    1
     2     2     3    1
     3     2     4    1
     4     4     5    1
     5     5     6    1
     6     6     7    1
     7     7     8    1
     8     8     9   ar
     9     9    10   ar
    10    10    11   ar
    11    11    12   ar
    12    12    13   ar
    13    13    14    1
    14    14    15    1
    15    15    16   ar
    16    16    17   ar
    17    17    18   ar
    18    18    19   ar
    19    19    20   ar
    20    20     7    1
    21    13     8   ar
    22    20    15   ar
    23     1    21    1
    24     1    22    1
    25     1    23    1
    26     3    24    1
    27     3    25    1
    28     3    26    1
    29     4    27    1
    30     4    28    1
    31     5    29    1
    32     5    30    1
    33     6    31    1
    34     6    32    1
    35     9    33    1
    36    10    34    1
    37    11    35    1
    38    12    36    1
    39    16    37    1
    40    17    38    1
    41    18    39    1
    42    19    40    1
