@<TRIPOS>MOLECULE
*****
 52 56 0 0 0
SMALL
GASTEIGER

@<TRIPOS>ATOM
      1 C          -3.4214    0.1652    3.6773 C.3     1  UNL1       -0.0045
      2 C          -3.7482    0.2257    2.2283 C.ar    1  UNL1        0.1283
      3 N          -4.9108   -0.2541    1.7107 N.ar    1  UNL1       -0.2371
      4 C          -5.1579   -0.1718    0.3707 C.ar    1  UNL1        0.0467
      5 C          -6.4326   -0.6980   -0.1941 C.3     1  UNL1       -0.0219
      6 C          -4.2087    0.4058   -0.4481 C.ar    1  UNL1        0.0144
      7 C          -4.5312    0.4688   -1.9065 C.3     1  UNL1       -0.0144
      8 C          -3.7381    1.5541   -2.5981 C.3     1  UNL1        0.0287
      9 C          -2.3193    1.5720   -2.1596 C.2     1  UNL1        0.2215
     10 O          -1.3683    1.6402   -2.9805 O.2     1  UNL1       -0.2752
     11 N          -2.0076    1.5106   -0.7660 N.am    1  UNL1       -0.2514
     12 C          -0.7970    2.0090   -0.2149 C.3     1  UNL1        0.0462
     13 C           0.3332    1.1146   -0.1210 C.ar    1  UNL1       -0.0296
     14 C           0.5604    0.3234    0.9967 C.ar    1  UNL1       -0.0565
     15 C           1.6432   -0.5550    1.1288 C.ar    1  UNL1       -0.0537
     16 C           2.5522   -0.6385    0.0653 C.ar    1  UNL1       -0.0172
     17 C           2.3529    0.1366   -1.0610 C.ar    1  UNL1       -0.0537
     18 C           1.2584    0.9788   -1.1122 C.ar    1  UNL1       -0.0565
     19 C           3.6381   -1.5854    0.3124 C.ar    1  UNL1       -0.0071
     20 C           3.3393   -2.9470    0.4420 C.ar    1  UNL1       -0.0534
     21 C           4.3449   -3.8811    0.6741 C.ar    1  UNL1       -0.0611
     22 C           5.6093   -3.3933    0.7646 C.ar    1  UNL1       -0.0611
     23 C           5.9497   -2.0446    0.6415 C.ar    1  UNL1       -0.0503
     24 C           4.9380   -1.1360    0.4119 C.ar    1  UNL1        0.0304
     25 C           5.3069    0.2674    0.2884 C.ar    1  UNL1        0.2049
     26 N           6.5675    0.7134    0.3830 N.ar    1  UNL1       -0.1331
     27 N           6.6096    2.0279    0.2327 N.ar    1  UNL1       -0.1761
     28 N           5.3724    2.4541    0.0380 N.ar    1  UNL1       -0.0485
     29 N           4.5955    1.3869    0.0732 N.ar    1  UNL1       -0.1080
     30 C          -3.0212    0.8984    0.0635 C.ar    1  UNL1        0.1347
     31 N          -2.8516    0.7807    1.3925 N.ar    1  UNL1       -0.2170
     32 H          -2.3649   -0.1484    3.8264 H       1  UNL1        0.0308
     33 H          -4.0617   -0.5385    4.2344 H       1  UNL1        0.0308
     34 H          -3.5177    1.2130    4.0493 H       1  UNL1        0.0308
     35 H          -6.2818   -1.3704   -1.0585 H       1  UNL1        0.0293
     36 H          -6.9071   -1.3531    0.5915 H       1  UNL1        0.0293
     37 H          -7.1510    0.1233   -0.3696 H       1  UNL1        0.0293
     38 H          -4.4315   -0.4945   -2.4086 H       1  UNL1        0.0319
     39 H          -5.6042    0.7630   -1.9682 H       1  UNL1        0.0319
     40 H          -3.7979    1.3859   -3.6924 H       1  UNL1        0.0362
     41 H          -4.1617    2.5644   -2.4162 H       1  UNL1        0.0362
     42 H          -0.4850    2.9038   -0.8326 H       1  UNL1        0.0518
     43 H          -0.9782    2.4733    0.7999 H       1  UNL1        0.0518
     44 H          -0.1267    0.3554    1.8576 H       1  UNL1        0.0621
     45 H           1.7416   -1.1389    2.0463 H       1  UNL1        0.0624
     46 H           3.0922    0.0148   -1.8340 H       1  UNL1        0.0624
     47 H           1.2068    1.5322   -2.0353 H       1  UNL1        0.0621
     48 H           2.3254   -3.3046    0.3653 H       1  UNL1        0.0624
     49 H           4.1155   -4.9362    0.7748 H       1  UNL1        0.0618
     50 H           6.4002   -4.1147    0.9456 H       1  UNL1        0.0618
     51 H           7.0081   -1.7741    0.7338 H       1  UNL1        0.0625
     52 H           7.5222    2.5154    0.2809 H       1  UNL1        0.2143
@<TRIPOS>BOND
     1     1     2    1
     2     2     3   ar
     3     3     4   ar
     4     4     5    1
     5     4     6   ar
     6     6     7    1
     7     7     8    1
     8     8     9    1
     9     9    10    2
    10     9    11   am
    11    11    12    1
    12    12    13    1
    13    13    14   ar
    14    14    15   ar
    15    15    16   ar
    16    16    17   ar
    17    17    18   ar
    18    16    19    1
    19    19    20   ar
    20    20    21   ar
    21    21    22   ar
    22    22    23   ar
    23    23    24   ar
    24    24    25    1
    25    25    26   ar
    26    26    27   ar
    27    27    28   ar
    28    28    29   ar
    29    11    30    1
    30    30    31   ar
    31    31     2   ar
    32    30     6   ar
    33    18    13   ar
    34    24    19   ar
    35    29    25   ar
    36     1    32    1
    37     1    33    1
    38     1    34    1
    39     5    35    1
    40     5    36    1
    41     5    37    1
    42     7    38    1
    43     7    39    1
    44     8    40    1
    45     8    41    1
    46    12    42    1
    47    12    43    1
    48    14    44    1
    49    15    45    1
    50    17    46    1
    51    18    47    1
    52    20    48    1
    53    21    49    1
    54    22    50    1
    55    23    51    1
    56    27    52    1
