
     RDKit          3D

 52 56  0  0  0  0  0  0  0  0999 V2000
   -3.4214    0.1652    3.6773 C   0  0  0  0  0  0  0  0  0  0  0  0
   -3.7482    0.2257    2.2283 C   0  0  0  0  0  0  0  0  0  0  0  0
   -4.9108   -0.2541    1.7107 N   0  0  0  0  0  0  0  0  0  0  0  0
   -5.1579   -0.1718    0.3707 C   0  0  0  0  0  0  0  0  0  0  0  0
   -6.4326   -0.6980   -0.1941 C   0  0  0  0  0  0  0  0  0  0  0  0
   -4.2087    0.4058   -0.4481 C   0  0  0  0  0  0  0  0  0  0  0  0
   -4.5312    0.4688   -1.9065 C   0  0  0  0  0  0  0  0  0  0  0  0
   -3.7381    1.5541   -2.5981 C   0  0  0  0  0  0  0  0  0  0  0  0
   -2.3193    1.5720   -2.1596 C   0  0  0  0  0  0  0  0  0  0  0  0
   -1.3683    1.6402   -2.9805 O   0  0  0  0  0  0  0  0  0  0  0  0
   -2.0076    1.5106   -0.7660 N   0  0  0  0  0  0  0  0  0  0  0  0
   -0.7970    2.0090   -0.2149 C   0  0  0  0  0  0  0  0  0  0  0  0
    0.3332    1.1146   -0.1210 C   0  0  0  0  0  0  0  0  0  0  0  0
    0.5604    0.3234    0.9967 C   0  0  0  0  0  0  0  0  0  0  0  0
    1.6432   -0.5550    1.1288 C   0  0  0  0  0  0  0  0  0  0  0  0
    2.5522   -0.6385    0.0653 C   0  0  0  0  0  0  0  0  0  0  0  0
    2.3529    0.1366   -1.0610 C   0  0  0  0  0  0  0  0  0  0  0  0
    1.2584    0.9788   -1.1122 C   0  0  0  0  0  0  0  0  0  0  0  0
    3.6381   -1.5854    0.3124 C   0  0  0  0  0  0  0  0  0  0  0  0
    3.3393   -2.9470    0.4420 C   0  0  0  0  0  0  0  0  0  0  0  0
    4.3449   -3.8811    0.6741 C   0  0  0  0  0  0  0  0  0  0  0  0
    5.6093   -3.3933    0.7646 C   0  0  0  0  0  0  0  0  0  0  0  0
    5.9497   -2.0446    0.6415 C   0  0  0  0  0  0  0  0  0  0  0  0
    4.9380   -1.1360    0.4119 C   0  0  0  0  0  0  0  0  0  0  0  0
    5.3069    0.2674    0.2884 C   0  0  0  0  0  0  0  0  0  0  0  0
    6.5675    0.7134    0.3830 N   0  0  0  0  0  0  0  0  0  0  0  0
    6.6096    2.0279    0.2327 N   0  0  0  0  0  0  0  0  0  0  0  0
    5.3724    2.4541    0.0380 N   0  0  0  0  0  0  0  0  0  0  0  0
    4.5955    1.3869    0.0732 N   0  0  0  0  0  0  0  0  0  0  0  0
   -3.0212    0.8984    0.0635 C   0  0  0  0  0  0  0  0  0  0  0  0
   -2.8516    0.7807    1.3925 N   0  0  0  0  0  0  0  0  0  0  0  0
   -2.3649   -0.1484    3.8264 H   0  0  0  0  0  0  0  0  0  0  0  0
   -4.0617   -0.5385    4.2344 H   0  0  0  0  0  0  0  0  0  0  0  0
   -3.5177    1.2130    4.0493 H   0  0  0  0  0  0  0  0  0  0  0  0
   -6.2818   -1.3704   -1.0585 H   0  0  0  0  0  0  0  0  0  0  0  0
   -6.9071   -1.3531    0.5915 H   0  0  0  0  0  0  0  0  0  0  0  0
   -7.1510    0.1233   -0.3696 H   0  0  0  0  0  0  0  0  0  0  0  0
   -4.4315   -0.4945   -2.4086 H   0  0  0  0  0  0  0  0  0  0  0  0
   -5.6042    0.7630   -1.9682 H   0  0  0  0  0  0  0  0  0  0  0  0
   -3.7979    1.3859   -3.6924 H   0  0  0  0  0  0  0  0  0  0  0  0
   -4.1617    2.5644   -2.4162 H   0  0  0  0  0  0  0  0  0  0  0  0
   -0.4850    2.9038   -0.8326 H   0  0  0  0  0  0  0  0  0  0  0  0
   -0.9782    2.4733    0.7999 H   0  0  0  0  0  0  0  0  0  0  0  0
   -0.1267    0.3554    1.8576 H   0  0  0  0  0  0  0  0  0  0  0  0
    1.7416   -1.1389    2.0463 H   0  0  0  0  0  0  0  0  0  0  0  0
    3.0922    0.0148   -1.8340 H   0  0  0  0  0  0  0  0  0  0  0  0
    1.2068    1.5322   -2.0353 H   0  0  0  0  0  0  0  0  0  0  0  0
    2.3254   -3.3046    0.3653 H   0  0  0  0  0  0  0  0  0  0  0  0
    4.1155   -4.9362    0.7748 H   0  0  0  0  0  0  0  0  0  0  0  0
    6.4002   -4.1147    0.9456 H   0  0  0  0  0  0  0  0  0  0  0  0
    7.0081   -1.7741    0.7338 H   0  0  0  0  0  0  0  0  0  0  0  0
    7.5222    2.5154    0.2809 H   0  0  0  0  0  0  0  0  0  0  0  0
  1  2  1  0
  2  3  2  0
  3  4  1  0
  4  5  1  0
  4  6  2  0
  6  7  1  0
  7  8  1  0
  8  9  1  0
  9 10  2  0
  9 11  1  0
 11 12  1  0
 12 13  1  0
 13 14  2  0
 14 15  1  0
 15 16  2  0
 16 17  1  0
 17 18  2  0
 16 19  1  0
 19 20  2  0
 20 21  1  0
 21 22  2  0
 22 23  1  0
 23 24  2  0
 24 25  1  0
 25 26  2  0
 26 27  1  0
 27 28  1  0
 28 29  2  0
 11 30  1  0
 30 31  2  0
 31  2  1  0
 30  6  1  0
 18 13  1  0
 24 19  1  0
 29 25  1  0
  1 32  1  0
  1 33  1  0
  1 34  1  0
  5 35  1  0
  5 36  1  0
  5 37  1  0
  7 38  1  0
  7 39  1  0
  8 40  1  0
  8 41  1  0
 12 42  1  0
 12 43  1  0
 14 44  1  0
 15 45  1  0
 17 46  1  0
 18 47  1  0
 20 48  1  0
 21 49  1  0
 22 50  1  0
 23 51  1  0
 27 52  1  0
M  END
$$$$
