@<TRIPOS>MOLECULE
*****
 30 30 0 0 0
SMALL
GASTEIGER

@<TRIPOS>ATOM
      1 O          -0.8600    1.5576    1.6727 O.2     1  UNL1       -0.2562
      2 P          -1.8992    1.2988    0.5900 P.3     1  UNL1        0.3596
      3 O          -1.9005    2.5531   -0.5314 O.3     1  UNL1       -0.3224
      4 O          -3.4130    1.3241    1.3642 O.3     1  UNL1       -0.3224
      5 C          -1.6354   -0.3102   -0.1225 C.3     1  UNL1        0.2245
      6 N          -0.5110   -1.0324    0.4153 N.pl3   1  UNL1       -0.3213
      7 C           0.8224   -0.6231    0.3687 C.ar    1  UNL1        0.0282
      8 C           1.8188   -1.3932    0.9212 C.ar    1  UNL1       -0.0403
      9 C           3.1474   -1.0270    0.8955 C.ar    1  UNL1       -0.0484
     10 C           3.5323    0.1516    0.3010 C.ar    1  UNL1        0.0549
     11 C           4.9669    0.5770    0.2569 C.3     1  UNL1        0.4174
     12 F           5.4362    0.6123   -1.0474 F       1  UNL1       -0.1659
     13 F           5.7097   -0.3449    0.9324 F       1  UNL1       -0.1659
     14 F           5.0519    1.7896    0.8830 F       1  UNL1       -0.1659
     15 C           2.5439    0.9479   -0.2649 C.ar    1  UNL1       -0.0484
     16 C           1.2046    0.5548   -0.2259 C.ar    1  UNL1       -0.0403
     17 P          -3.1625   -1.2649   -0.0782 P.3     1  UNL1        0.3596
     18 O          -2.9213   -2.7245    0.1708 O.2     1  UNL1       -0.2562
     19 O          -4.1932   -0.6893    1.1320 O.3     1  UNL1       -0.3224
     20 O          -4.0158   -1.1271   -1.5539 O.3     1  UNL1       -0.3224
     21 H          -2.4768    3.2798   -0.1965 H       1  UNL1        0.2198
     22 H          -4.1226    1.6214    0.7402 H       1  UNL1        0.2198
     23 H          -1.3967   -0.1577   -1.2179 H       1  UNL1        0.0754
     24 H          -0.7503   -1.9568    0.8841 H       1  UNL1        0.1475
     25 H           1.5839   -2.3412    1.4093 H       1  UNL1        0.0636
     26 H           3.9117   -1.6436    1.3336 H       1  UNL1        0.0624
     27 H           2.8539    1.8719   -0.7299 H       1  UNL1        0.0624
     28 H           0.5010    1.2290   -0.6888 H       1  UNL1        0.0636
     29 H          -5.1220   -0.9035    0.8657 H       1  UNL1        0.2198
     30 H          -4.7042   -1.8294   -1.5236 H       1  UNL1        0.2198
@<TRIPOS>BOND
     1     1     2    2
     2     2     3    1
     3     2     4    1
     4     2     5    1
     5     5     6    1
     6     6     7    1
     7     7     8   ar
     8     8     9   ar
     9     9    10   ar
    10    10    11    1
    11    11    12    1
    12    11    13    1
    13    11    14    1
    14    10    15   ar
    15    15    16   ar
    16     5    17    1
    17    17    18    2
    18    17    19    1
    19    17    20    1
    20    16     7   ar
    21     3    21    1
    22     4    22    1
    23     5    23    1
    24     6    24    1
    25     8    25    1
    26     9    26    1
    27    15    27    1
    28    16    28    1
    29    19    29    1
    30    20    30    1
