@<TRIPOS>MOLECULE
*****
 48 50 0 0 0
SMALL
GASTEIGER

@<TRIPOS>ATOM
      1 C          -7.2232    3.6810    0.4518 C.3     1  UNL1        0.0004
      2 N          -6.8408    2.3526    0.0622 N.am    1  UNL1       -0.3132
      3 C          -5.8566    1.5922    0.7397 C.2     1  UNL1        0.2623
      4 O          -5.2920    2.1104    1.7314 O.2     1  UNL1       -0.2685
      5 C          -5.5503    0.2605    0.2586 C.ar    1  UNL1        0.1288
      6 C          -4.5750   -0.4513    0.9562 C.ar    1  UNL1        0.0112
      7 C          -4.2648   -1.7118    0.5247 C.ar    1  UNL1        0.1321
      8 O          -3.3056   -2.4564    1.1827 O.3     1  UNL1       -0.4559
      9 C          -1.9752   -2.3260    0.7349 C.ar    1  UNL1        0.1286
     10 C          -1.4725   -3.1432   -0.2456 C.ar    1  UNL1       -0.0176
     11 C          -0.1734   -3.0101   -0.6775 C.ar    1  UNL1       -0.0370
     12 C           0.6856   -2.0432   -0.1402 C.ar    1  UNL1        0.0350
     13 N           1.9988   -1.9731   -0.6371 N.am    1  UNL1       -0.2692
     14 C           2.9828   -1.0620   -0.2057 C.2     1  UNL1        0.3081
     15 O           2.7567   -0.2241    0.6757 O.2     1  UNL1       -0.2522
     16 N           4.2805   -1.1050   -0.8018 N.am    1  UNL1       -0.2692
     17 C           5.3085   -0.1931   -0.3885 C.ar    1  UNL1        0.0354
     18 C           6.1571   -0.5371    0.6426 C.ar    1  UNL1       -0.0390
     19 C           7.1641    0.3004    1.0825 C.ar    1  UNL1       -0.0411
     20 C           7.3501    1.5109    0.4997 C.ar    1  UNL1        0.0527
     21 CL          8.6096    2.6449    0.9956 Cl      1  UNL1       -0.0830
     22 C           6.5010    1.8754   -0.5447 C.ar    1  UNL1        0.0748
     23 C           6.7049    3.2011   -1.1828 C.3     1  UNL1        0.4188
     24 F           5.7598    3.3405   -2.1777 F       1  UNL1       -0.1658
     25 F           6.5791    4.2007   -0.2291 F       1  UNL1       -0.1658
     26 F           7.9639    3.2643   -1.7668 F       1  UNL1       -0.1658
     27 C           5.4988    1.0338   -0.9774 C.ar    1  UNL1       -0.0274
     28 C           0.1404   -1.2599    0.8267 C.ar    1  UNL1       -0.0370
     29 C          -1.1756   -1.3681    1.2892 C.ar    1  UNL1       -0.0176
     30 C          -4.9195   -2.2242   -0.5694 C.ar    1  UNL1       -0.0012
     31 C          -5.8863   -1.4793   -1.2361 C.ar    1  UNL1        0.0319
     32 N          -6.1670   -0.2593   -0.7954 N.ar    1  UNL1       -0.2501
     33 H          -8.1198    3.6012    1.1004 H       1  UNL1        0.0426
     34 H          -6.3823    4.1626    0.9727 H       1  UNL1        0.0426
     35 H          -7.4189    4.2581   -0.4796 H       1  UNL1        0.0426
     36 H          -7.3230    1.9290   -0.7727 H       1  UNL1        0.1487
     37 H          -4.0666   -0.0312    1.8199 H       1  UNL1        0.0677
     38 H          -2.1437   -3.8865   -0.6540 H       1  UNL1        0.0655
     39 H           0.2047   -3.6538   -1.4422 H       1  UNL1        0.0637
     40 H           2.2913   -2.6719   -1.4167 H       1  UNL1        0.1564
     41 H           4.4888   -1.8043   -1.5457 H       1  UNL1        0.1564
     42 H           5.9890   -1.5177    1.0980 H       1  UNL1        0.0636
     43 H           7.7989   -0.0088    1.8864 H       1  UNL1        0.0633
     44 H           4.8551    1.3477   -1.7928 H       1  UNL1        0.0642
     45 H           0.7193   -0.5013    1.2890 H       1  UNL1        0.0637
     46 H          -1.5328   -0.6879    2.0791 H       1  UNL1        0.0655
     47 H          -4.7072   -3.2171   -0.9469 H       1  UNL1        0.0669
     48 H          -6.4168   -1.8592   -2.1003 H       1  UNL1        0.0831
@<TRIPOS>BOND
     1     1     2    1
     2     2     3   am
     3     3     4    2
     4     3     5    1
     5     5     6   ar
     6     6     7   ar
     7     7     8    1
     8     8     9    1
     9     9    10   ar
    10    10    11   ar
    11    11    12   ar
    12    12    13    1
    13    13    14   am
    14    14    15    2
    15    14    16   am
    16    16    17    1
    17    17    18   ar
    18    18    19   ar
    19    19    20   ar
    20    20    21    1
    21    20    22   ar
    22    22    23    1
    23    23    24    1
    24    23    25    1
    25    23    26    1
    26    22    27   ar
    27    12    28   ar
    28    28    29   ar
    29     7    30   ar
    30    30    31   ar
    31    31    32   ar
    32    32     5   ar
    33    29     9   ar
    34    27    17   ar
    35     1    33    1
    36     1    34    1
    37     1    35    1
    38     2    36    1
    39     6    37    1
    40    10    38    1
    41    11    39    1
    42    13    40    1
    43    16    41    1
    44    18    42    1
    45    19    43    1
    46    27    44    1
    47    28    45    1
    48    29    46    1
    49    30    47    1
    50    31    48    1
