@<TRIPOS>MOLECULE
*****
 63 66 0 0 0
SMALL
GASTEIGER

@<TRIPOS>ATOM
      1 C           0.8783    2.0946    1.9164 C.3     1  UNL1       -0.0421
      2 C           1.1460    1.6384    0.4700 C.3     1  UNL1        0.0515
      3 C           2.4616    1.0297    0.3380 C.ar    1  UNL1       -0.0271
      4 C           3.4014    1.0706    1.3433 C.ar    1  UNL1       -0.0562
      5 C           4.6586    0.4864    1.1904 C.ar    1  UNL1       -0.0537
      6 C           5.0065   -0.1562    0.0207 C.ar    1  UNL1       -0.0177
      7 C           6.2939   -0.7727   -0.1983 C.ar    1  UNL1       -0.0114
      8 C           7.0084   -1.3368    0.8315 C.ar    1  UNL1       -0.0378
      9 C           8.2481   -1.9085    0.5599 C.ar    1  UNL1        0.0055
     10 N           8.7769   -1.9338   -0.6584 N.ar    1  UNL1       -0.3291
     11 C           8.0986   -1.3910   -1.6724 C.ar    1  UNL1        0.2493
     12 O           8.6131   -1.4223   -2.8223 O.2     1  UNL1       -0.2679
     13 C           6.8534   -0.8011   -1.4810 C.ar    1  UNL1        0.0105
     14 C           4.0742   -0.1998   -0.9829 C.ar    1  UNL1       -0.0537
     15 C           2.8389    0.3825   -0.8135 C.ar    1  UNL1       -0.0562
     16 N           0.0308    0.8864   -0.0032 N.am    1  UNL1       -0.2605
     17 C          -0.3722   -0.4399    0.4173 C.3     1  UNL1        0.0224
     18 C          -1.7828   -0.3821    0.9867 C.3     1  UNL1        0.0075
     19 C          -2.7694    0.0796   -0.0934 C.3     1  UNL1        0.1428
     20 C          -3.6714    1.1004    0.4821 C.3     1  UNL1        0.0095
     21 C          -4.6844    1.7329   -0.3745 C.3     1  UNL1        0.0557
     22 C          -5.4397    2.7490    0.5211 C.3     1  UNL1       -0.0468
     23 C          -5.7629    0.8118   -0.8901 C.3     1  UNL1       -0.0468
     24 C          -4.0758    2.4344   -1.4963 C.1     1  UNL1        0.0688
     25 N          -3.5736    2.9946   -2.3798 N.1     1  UNL1       -0.1960
     26 C          -3.4367   -1.1788   -0.5250 C.ar    1  UNL1       -0.0041
     27 C          -4.3696   -1.7287    0.3236 C.ar    1  UNL1       -0.0548
     28 C          -5.0495   -2.8985    0.0084 C.ar    1  UNL1       -0.0614
     29 C          -4.7961   -3.5403   -1.1841 C.ar    1  UNL1       -0.0617
     30 C          -3.8615   -2.9845   -2.0289 C.ar    1  UNL1       -0.0614
     31 C          -3.1788   -1.8104   -1.7116 C.ar    1  UNL1       -0.0548
     32 O          -2.0368    0.6680   -1.1261 O.3     1  UNL1       -0.4388
     33 C          -0.8733    1.4083   -1.0083 C.2     1  UNL1        0.4042
     34 O          -0.5793    2.4285   -1.6722 O.2     1  UNL1       -0.2262
     35 H           1.5879    2.9409    2.0900 H       1  UNL1        0.0251
     36 H          -0.1815    2.4190    1.9317 H       1  UNL1        0.0251
     37 H           1.1237    1.3187    2.6398 H       1  UNL1        0.0251
     38 H           1.1289    2.6243   -0.0932 H       1  UNL1        0.0549
     39 H           3.1170    1.5822    2.2648 H       1  UNL1        0.0621
     40 H           5.3657    0.5405    2.0019 H       1  UNL1        0.0624
     41 H           6.5867   -1.3195    1.8255 H       1  UNL1        0.0638
     42 H           8.8128   -2.3579    1.3869 H       1  UNL1        0.0808
     43 H           9.7193   -2.3717   -0.8428 H       1  UNL1        0.1683
     44 H           6.2897   -0.3605   -2.2758 H       1  UNL1        0.0678
     45 H           4.3048   -0.6941   -1.9154 H       1  UNL1        0.0624
     46 H           2.1491    0.3135   -1.6380 H       1  UNL1        0.0621
     47 H          -0.4312   -1.0858   -0.4991 H       1  UNL1        0.0467
     48 H           0.3153   -0.9330    1.0929 H       1  UNL1        0.0467
     49 H          -1.8462    0.3503    1.8128 H       1  UNL1        0.0322
     50 H          -2.0363   -1.3588    1.4057 H       1  UNL1        0.0322
     51 H          -3.0156    1.8894    0.9499 H       1  UNL1        0.0322
     52 H          -4.2290    0.6878    1.3873 H       1  UNL1        0.0322
     53 H          -4.7229    3.4992    0.8723 H       1  UNL1        0.0245
     54 H          -5.7608    2.1685    1.4100 H       1  UNL1        0.0245
     55 H          -6.3299    3.1278    0.0221 H       1  UNL1        0.0245
     56 H          -6.5863    1.4159   -1.3753 H       1  UNL1        0.0245
     57 H          -6.2556    0.3305   -0.0271 H       1  UNL1        0.0245
     58 H          -5.3505    0.0939   -1.6018 H       1  UNL1        0.0245
     59 H          -4.6386   -1.2987    1.2842 H       1  UNL1        0.0622
     60 H          -5.7793   -3.3223    0.6819 H       1  UNL1        0.0618
     61 H          -5.3213   -4.4652   -1.4548 H       1  UNL1        0.0618
     62 H          -3.6462   -3.4761   -2.9771 H       1  UNL1        0.0618
     63 H          -2.4443   -1.3696   -2.3759 H       1  UNL1        0.0622
@<TRIPOS>BOND
     1     1     2    1
     2     2     3    1
     3     3     4   ar
     4     4     5   ar
     5     5     6   ar
     6     6     7    1
     7     7     8   ar
     8     8     9   ar
     9     9    10   ar
    10    10    11   ar
    11    11    12    2
    12    11    13   ar
    13     6    14   ar
    14    14    15   ar
    15     2    16    1
    16    16    17    1
    17    17    18    1
    18    18    19    1
    19    19    20    1
    20    20    21    1
    21    21    22    1
    22    21    23    1
    23    21    24    1
    24    24    25    3
    25    19    26    1
    26    26    27   ar
    27    27    28   ar
    28    28    29   ar
    29    29    30   ar
    30    30    31   ar
    31    19    32    1
    32    32    33    1
    33    33    34    2
    34    15     3   ar
    35    33    16   am
    36    13     7   ar
    37    31    26   ar
    38     1    35    1
    39     1    36    1
    40     1    37    1
    41     2    38    1
    42     4    39    1
    43     5    40    1
    44     8    41    1
    45     9    42    1
    46    10    43    1
    47    13    44    1
    48    14    45    1
    49    15    46    1
    50    17    47    1
    51    17    48    1
    52    18    49    1
    53    18    50    1
    54    20    51    1
    55    20    52    1
    56    22    53    1
    57    22    54    1
    58    22    55    1
    59    23    56    1
    60    23    57    1
    61    23    58    1
    62    27    59    1
    63    28    60    1
    64    29    61    1
    65    30    62    1
    66    31    63    1
