
     RDKit          3D

 63 66  0  0  0  0  0  0  0  0999 V2000
    0.8783    2.0946    1.9164 C   0  0  0  0  0  0  0  0  0  0  0  0
    1.1460    1.6384    0.4700 C   0  0  1  0  0  0  0  0  0  0  0  0
    2.4616    1.0297    0.3380 C   0  0  0  0  0  0  0  0  0  0  0  0
    3.4014    1.0706    1.3433 C   0  0  0  0  0  0  0  0  0  0  0  0
    4.6586    0.4864    1.1904 C   0  0  0  0  0  0  0  0  0  0  0  0
    5.0065   -0.1562    0.0207 C   0  0  0  0  0  0  0  0  0  0  0  0
    6.2939   -0.7727   -0.1983 C   0  0  0  0  0  0  0  0  0  0  0  0
    7.0084   -1.3368    0.8315 C   0  0  0  0  0  0  0  0  0  0  0  0
    8.2481   -1.9085    0.5599 C   0  0  0  0  0  0  0  0  0  0  0  0
    8.7769   -1.9338   -0.6584 N   0  0  0  0  0  0  0  0  0  0  0  0
    8.0986   -1.3910   -1.6724 C   0  0  0  0  0  0  0  0  0  0  0  0
    8.6131   -1.4223   -2.8223 O   0  0  0  0  0  0  0  0  0  0  0  0
    6.8534   -0.8011   -1.4810 C   0  0  0  0  0  0  0  0  0  0  0  0
    4.0742   -0.1998   -0.9829 C   0  0  0  0  0  0  0  0  0  0  0  0
    2.8389    0.3825   -0.8135 C   0  0  0  0  0  0  0  0  0  0  0  0
    0.0308    0.8864   -0.0032 N   0  0  0  0  0  0  0  0  0  0  0  0
   -0.3722   -0.4399    0.4173 C   0  0  0  0  0  0  0  0  0  0  0  0
   -1.7828   -0.3821    0.9867 C   0  0  0  0  0  0  0  0  0  0  0  0
   -2.7694    0.0796   -0.0934 C   0  0  2  0  0  0  0  0  0  0  0  0
   -3.6714    1.1004    0.4821 C   0  0  0  0  0  0  0  0  0  0  0  0
   -4.6844    1.7329   -0.3745 C   0  0  0  0  0  0  0  0  0  0  0  0
   -5.4397    2.7490    0.5211 C   0  0  0  0  0  0  0  0  0  0  0  0
   -5.7629    0.8118   -0.8901 C   0  0  0  0  0  0  0  0  0  0  0  0
   -4.0758    2.4344   -1.4963 C   0  0  0  0  0  0  0  0  0  0  0  0
   -3.5736    2.9946   -2.3798 N   0  0  0  0  0  0  0  0  0  0  0  0
   -3.4367   -1.1788   -0.5250 C   0  0  0  0  0  0  0  0  0  0  0  0
   -4.3696   -1.7287    0.3236 C   0  0  0  0  0  0  0  0  0  0  0  0
   -5.0495   -2.8985    0.0084 C   0  0  0  0  0  0  0  0  0  0  0  0
   -4.7961   -3.5403   -1.1841 C   0  0  0  0  0  0  0  0  0  0  0  0
   -3.8615   -2.9845   -2.0289 C   0  0  0  0  0  0  0  0  0  0  0  0
   -3.1788   -1.8104   -1.7116 C   0  0  0  0  0  0  0  0  0  0  0  0
   -2.0368    0.6680   -1.1261 O   0  0  0  0  0  0  0  0  0  0  0  0
   -0.8733    1.4083   -1.0083 C   0  0  0  0  0  0  0  0  0  0  0  0
   -0.5793    2.4285   -1.6722 O   0  0  0  0  0  0  0  0  0  0  0  0
    1.5879    2.9409    2.0900 H   0  0  0  0  0  0  0  0  0  0  0  0
   -0.1815    2.4190    1.9317 H   0  0  0  0  0  0  0  0  0  0  0  0
    1.1237    1.3187    2.6398 H   0  0  0  0  0  0  0  0  0  0  0  0
    1.1289    2.6243   -0.0932 H   0  0  0  0  0  0  0  0  0  0  0  0
    3.1170    1.5822    2.2648 H   0  0  0  0  0  0  0  0  0  0  0  0
    5.3657    0.5405    2.0019 H   0  0  0  0  0  0  0  0  0  0  0  0
    6.5867   -1.3195    1.8255 H   0  0  0  0  0  0  0  0  0  0  0  0
    8.8128   -2.3579    1.3869 H   0  0  0  0  0  0  0  0  0  0  0  0
    9.7193   -2.3717   -0.8428 H   0  0  0  0  0  0  0  0  0  0  0  0
    6.2897   -0.3605   -2.2758 H   0  0  0  0  0  0  0  0  0  0  0  0
    4.3048   -0.6941   -1.9154 H   0  0  0  0  0  0  0  0  0  0  0  0
    2.1491    0.3135   -1.6380 H   0  0  0  0  0  0  0  0  0  0  0  0
   -0.4312   -1.0858   -0.4991 H   0  0  0  0  0  0  0  0  0  0  0  0
    0.3153   -0.9330    1.0929 H   0  0  0  0  0  0  0  0  0  0  0  0
   -1.8462    0.3503    1.8128 H   0  0  0  0  0  0  0  0  0  0  0  0
   -2.0363   -1.3588    1.4057 H   0  0  0  0  0  0  0  0  0  0  0  0
   -3.0156    1.8894    0.9499 H   0  0  0  0  0  0  0  0  0  0  0  0
   -4.2290    0.6878    1.3873 H   0  0  0  0  0  0  0  0  0  0  0  0
   -4.7229    3.4992    0.8723 H   0  0  0  0  0  0  0  0  0  0  0  0
   -5.7608    2.1685    1.4100 H   0  0  0  0  0  0  0  0  0  0  0  0
   -6.3299    3.1278    0.0221 H   0  0  0  0  0  0  0  0  0  0  0  0
   -6.5863    1.4159   -1.3753 H   0  0  0  0  0  0  0  0  0  0  0  0
   -6.2556    0.3305   -0.0271 H   0  0  0  0  0  0  0  0  0  0  0  0
   -5.3505    0.0939   -1.6018 H   0  0  0  0  0  0  0  0  0  0  0  0
   -4.6386   -1.2987    1.2842 H   0  0  0  0  0  0  0  0  0  0  0  0
   -5.7793   -3.3223    0.6819 H   0  0  0  0  0  0  0  0  0  0  0  0
   -5.3213   -4.4652   -1.4548 H   0  0  0  0  0  0  0  0  0  0  0  0
   -3.6462   -3.4761   -2.9771 H   0  0  0  0  0  0  0  0  0  0  0  0
   -2.4443   -1.3696   -2.3759 H   0  0  0  0  0  0  0  0  0  0  0  0
  1  2  1  0
  2  3  1  0
  3  4  2  0
  4  5  1  0
  5  6  2  0
  6  7  1  0
  7  8  1  0
  8  9  2  0
  9 10  1  0
 10 11  1  0
 11 12  2  0
 11 13  1  0
  6 14  1  0
 14 15  2  0
  2 16  1  0
 16 17  1  0
 17 18  1  0
 18 19  1  0
 19 20  1  1
 20 21  1  0
 21 22  1  0
 21 23  1  0
 21 24  1  0
 24 25  3  0
 19 26  1  0
 26 27  2  0
 27 28  1  0
 28 29  2  0
 29 30  1  0
 30 31  2  0
 19 32  1  0
 32 33  1  0
 33 34  2  0
 15  3  1  0
 33 16  1  0
 13  7  2  0
 31 26  1  0
  1 35  1  0
  1 36  1  0
  1 37  1  0
  2 38  1  6
  4 39  1  0
  5 40  1  0
  8 41  1  0
  9 42  1  0
 10 43  1  0
 13 44  1  0
 14 45  1  0
 15 46  1  0
 17 47  1  0
 17 48  1  0
 18 49  1  0
 18 50  1  0
 20 51  1  0
 20 52  1  0
 22 53  1  0
 22 54  1  0
 22 55  1  0
 23 56  1  0
 23 57  1  0
 23 58  1  0
 27 59  1  0
 28 60  1  0
 29 61  1  0
 30 62  1  0
 31 63  1  0
M  END
$$$$
