
     RDKit          3D

 36 38  0  0  0  0  0  0  0  0999 V2000
   -1.2176   -2.2229    0.8896 C   0  0  0  0  0  0  0  0  0  0  0  0
   -2.3806   -1.9256    0.0145 C   0  0  0  0  0  0  0  0  0  0  0  0
   -2.0999   -2.2869   -1.3497 N   0  0  0  0  0  0  0  0  0  0  0  0
   -1.1821   -1.8785   -2.0860 N   0  0  0  0  0  0  0  0  0  0  0  0
   -0.2058   -0.9185   -1.6381 C   0  0  0  0  0  0  0  0  0  0  0  0
    0.8296   -0.7891   -1.1259 N   0  0  0  0  0  0  0  0  0  0  0  0
    1.5089    0.2959   -0.8373 C   0  0  0  0  0  0  0  0  0  0  0  0
    2.8259    0.3217   -0.1792 C   0  0  0  0  0  0  0  0  0  0  0  0
    3.4595    1.5073    0.0817 C   0  0  0  0  0  0  0  0  0  0  0  0
    4.7052    1.5193    0.7048 C   0  0  0  0  0  0  0  0  0  0  0  0
    5.3391    0.3517    1.0777 C   0  0  0  0  0  0  0  0  0  0  0  0
    6.5503    0.3716    1.6832 F   0  0  0  0  0  0  0  0  0  0  0  0
    4.6976   -0.8395    0.8132 C   0  0  0  0  0  0  0  0  0  0  0  0
    3.4720   -0.8300    0.1991 C   0  0  0  0  0  0  0  0  0  0  0  0
    2.8410   -2.0082   -0.0608 F   0  0  0  0  0  0  0  0  0  0  0  0
    0.8756    1.4829   -1.2108 C   0  0  0  0  0  0  0  0  0  0  0  0
   -0.6091    0.9159   -1.9272 S   0  0  0  0  0  0  0  0  0  0  0  0
   -2.8646   -0.5278    0.0615 C   0  0  0  0  0  0  0  0  0  0  0  0
   -2.4716    0.4113    0.9872 C   0  0  0  0  0  0  0  0  0  0  0  0
   -2.9490    1.7176    0.9971 C   0  0  0  0  0  0  0  0  0  0  0  0
   -3.8603    2.0617    0.0197 C   0  0  0  0  0  0  0  0  0  0  0  0
   -4.2867    1.1582   -0.9310 C   0  0  0  0  0  0  0  0  0  0  0  0
   -3.7810   -0.1175   -0.8915 C   0  0  0  0  0  0  0  0  0  0  0  0
   -0.5846   -1.3926    1.1853 H   0  0  0  0  0  0  0  0  0  0  0  0
   -0.5876   -2.9961    0.3613 H   0  0  0  0  0  0  0  0  0  0  0  0
   -1.5828   -2.7661    1.8080 H   0  0  0  0  0  0  0  0  0  0  0  0
   -3.2560   -2.5867    0.3152 H   0  0  0  0  0  0  0  0  0  0  0  0
    3.0381    2.4753   -0.1753 H   0  0  0  0  0  0  0  0  0  0  0  0
    5.2131    2.4434    0.9151 H   0  0  0  0  0  0  0  0  0  0  0  0
    5.1713   -1.7671    1.0944 H   0  0  0  0  0  0  0  0  0  0  0  0
    1.2284    2.4897   -1.0820 H   0  0  0  0  0  0  0  0  0  0  0  0
   -1.7561    0.1351    1.7565 H   0  0  0  0  0  0  0  0  0  0  0  0
   -2.6427    2.4408    1.7145 H   0  0  0  0  0  0  0  0  0  0  0  0
   -4.2799    3.0712   -0.0357 H   0  0  0  0  0  0  0  0  0  0  0  0
   -5.0079    1.4733   -1.6845 H   0  0  0  0  0  0  0  0  0  0  0  0
   -4.1495   -0.7908   -1.6632 H   0  0  0  0  0  0  0  0  0  0  0  0
  1  2  1  0
  2  3  1  0
  3  4  2  3
  4  5  1  0
  5  6  2  0
  6  7  1  0
  7  8  1  0
  8  9  2  0
  9 10  1  0
 10 11  2  0
 11 12  1  0
 11 13  1  0
 13 14  2  0
 14 15  1  0
  7 16  2  0
 16 17  1  0
  2 18  1  0
 18 19  2  0
 19 20  1  0
 20 21  2  0
 21 22  1  0
 22 23  2  0
 17  5  1  0
 23 18  1  0
 14  8  1  0
  1 24  1  0
  1 25  1  0
  1 26  1  0
  2 27  1  0
  9 28  1  0
 10 29  1  0
 13 30  1  0
 16 31  1  0
 19 32  1  0
 20 33  1  0
 21 34  1  0
 22 35  1  0
 23 36  1  0
M  END
$$$$
