@<TRIPOS>MOLECULE
*****
 36 38 0 0 0
SMALL
GASTEIGER

@<TRIPOS>ATOM
      1 C          -1.2176   -2.2229    0.8896 C.3     1  UNL1       -0.0368
      2 C          -2.3806   -1.9256    0.0145 C.3     1  UNL1        0.0940
      3 N          -2.0999   -2.2869   -1.3497 N.2     1  UNL1       -0.1773
      4 N          -1.1821   -1.8785   -2.0860 N.2     1  UNL1       -0.1263
      5 C          -0.2058   -0.9185   -1.6381 C.ar    1  UNL1        0.2136
      6 N           0.8296   -0.7891   -1.1259 N.ar    1  UNL1       -0.2197
      7 C           1.5089    0.2959   -0.8373 C.ar    1  UNL1        0.0833
      8 C           2.8259    0.3217   -0.1792 C.ar    1  UNL1        0.0363
      9 C           3.4595    1.5073    0.0817 C.ar    1  UNL1       -0.0471
     10 C           4.7052    1.5193    0.7048 C.ar    1  UNL1       -0.0257
     11 C           5.3391    0.3517    1.0777 C.ar    1  UNL1        0.1262
     12 F           6.5503    0.3716    1.6832 F       1  UNL1       -0.2054
     13 C           4.6976   -0.8395    0.8132 C.ar    1  UNL1        0.0095
     14 C           3.4720   -0.8300    0.1991 C.ar    1  UNL1        0.1353
     15 F           2.8410   -2.0082   -0.0608 F       1  UNL1       -0.2047
     16 C           0.8756    1.4829   -1.2108 C.ar    1  UNL1        0.0053
     17 S          -0.6091    0.9159   -1.9272 S.2     1  UNL1       -0.0541
     18 C          -2.8646   -0.5278    0.0615 C.ar    1  UNL1       -0.0217
     19 C          -2.4716    0.4113    0.9872 C.ar    1  UNL1       -0.0565
     20 C          -2.9490    1.7176    0.9971 C.ar    1  UNL1       -0.0614
     21 C          -3.8603    2.0617    0.0197 C.ar    1  UNL1       -0.0617
     22 C          -4.2867    1.1582   -0.9310 C.ar    1  UNL1       -0.0614
     23 C          -3.7810   -0.1175   -0.8915 C.ar    1  UNL1       -0.0565
     24 H          -0.5846   -1.3926    1.1853 H       1  UNL1        0.0254
     25 H          -0.5876   -2.9961    0.3613 H       1  UNL1        0.0254
     26 H          -1.5828   -2.7661    1.8080 H       1  UNL1        0.0254
     27 H          -3.2560   -2.5867    0.3152 H       1  UNL1        0.0610
     28 H           3.0381    2.4753   -0.1753 H       1  UNL1        0.0626
     29 H           5.2131    2.4434    0.9151 H       1  UNL1        0.0646
     30 H           5.1713   -1.7671    1.0944 H       1  UNL1        0.0675
     31 H           1.2284    2.4897   -1.0820 H       1  UNL1        0.0716
     32 H          -1.7561    0.1351    1.7565 H       1  UNL1        0.0621
     33 H          -2.6427    2.4408    1.7145 H       1  UNL1        0.0618
     34 H          -4.2799    3.0712   -0.0357 H       1  UNL1        0.0618
     35 H          -5.0079    1.4733   -1.6845 H       1  UNL1        0.0618
     36 H          -4.1495   -0.7908   -1.6632 H       1  UNL1        0.0621
@<TRIPOS>BOND
     1     1     2    1
     2     2     3    1
     3     3     4    2
     4     4     5    1
     5     5     6   ar
     6     6     7   ar
     7     7     8    1
     8     8     9   ar
     9     9    10   ar
    10    10    11   ar
    11    11    12    1
    12    11    13   ar
    13    13    14   ar
    14    14    15    1
    15     7    16   ar
    16    16    17   ar
    17     2    18    1
    18    18    19   ar
    19    19    20   ar
    20    20    21   ar
    21    21    22   ar
    22    22    23   ar
    23    17     5   ar
    24    23    18   ar
    25    14     8   ar
    26     1    24    1
    27     1    25    1
    28     1    26    1
    29     2    27    1
    30     9    28    1
    31    10    29    1
    32    13    30    1
    33    16    31    1
    34    19    32    1
    35    20    33    1
    36    21    34    1
    37    22    35    1
    38    23    36    1
