@<TRIPOS>MOLECULE
*****
 51 54 0 0 0
SMALL
GASTEIGER

@<TRIPOS>ATOM
      1 O           1.3981   -0.8424    2.9336 O.2     1  UNL1       -0.2721
      2 C           0.7656   -0.6564    1.8637 C.2     1  UNL1        0.2521
      3 C          -0.6419   -1.1369    1.8047 C.3     1  UNL1        0.1046
      4 N          -1.2449   -0.8623    0.5320 N.ar    1  UNL1       -0.2963
      5 C          -1.9058    0.3039    0.3992 C.ar    1  UNL1        0.2739
      6 O          -1.9571    1.0739    1.3796 O.2     1  UNL1       -0.2657
      7 C          -2.5117    0.6575   -0.7674 C.ar    1  UNL1        0.1105
      8 C          -3.2349    1.9411   -0.8783 C.3     1  UNL1        0.0201
      9 C          -4.5666    1.8614   -0.2190 C.ar    1  UNL1       -0.0414
     10 C          -4.8394    2.3170    1.0450 C.ar    1  UNL1       -0.0582
     11 C          -6.0940    2.2216    1.6422 C.ar    1  UNL1       -0.0615
     12 C          -7.1244    1.6405    0.9349 C.ar    1  UNL1       -0.0617
     13 C          -6.8630    1.1788   -0.3373 C.ar    1  UNL1       -0.0615
     14 C          -5.6241    1.2745   -0.9230 C.ar    1  UNL1       -0.0582
     15 N          -2.4211   -0.2168   -1.7944 N.ar    1  UNL1       -0.2444
     16 C          -1.7610   -1.3972   -1.6859 C.ar    1  UNL1        0.0879
     17 C          -1.6929   -2.2554   -2.7606 C.ar    1  UNL1       -0.0343
     18 C          -1.0209   -3.4471   -2.6458 C.ar    1  UNL1       -0.0596
     19 C          -0.4159   -3.7815   -1.4547 C.ar    1  UNL1       -0.0597
     20 C          -0.4797   -2.9182   -0.3600 C.ar    1  UNL1       -0.0360
     21 C          -1.1570   -1.7224   -0.4826 C.ar    1  UNL1        0.0708
     22 N           1.4342   -0.0077    0.7999 N.am    1  UNL1       -0.2055
     23 N           2.7660    0.4264    0.9071 N.2     1  UNL1       -0.1877
     24 C           3.7308   -0.1919    0.3128 C.2     1  UNL1        0.0528
     25 C           5.1182    0.2062    0.3853 C.ar    1  UNL1       -0.0052
     26 C           5.5035    1.3023    1.1141 C.ar    1  UNL1       -0.0497
     27 C           6.8440    1.6504    1.1584 C.ar    1  UNL1       -0.0196
     28 C           7.8160    0.9343    0.4944 C.ar    1  UNL1        0.1169
     29 O           9.1466    1.3087    0.5592 O.3     1  UNL1       -0.5068
     30 C           7.4211   -0.1675   -0.2371 C.ar    1  UNL1       -0.0196
     31 C           6.0668   -0.5269   -0.2875 C.ar    1  UNL1       -0.0497
     32 H          -0.6628   -2.1882    2.1208 H       1  UNL1        0.0589
     33 H          -1.1907   -0.5713    2.6316 H       1  UNL1        0.0589
     34 H          -2.6462    2.7905   -0.4639 H       1  UNL1        0.0378
     35 H          -3.3629    2.1231   -1.9848 H       1  UNL1        0.0378
     36 H          -4.0360    2.7839    1.6104 H       1  UNL1        0.0620
     37 H          -6.2505    2.5978    2.6420 H       1  UNL1        0.0618
     38 H          -8.1163    1.5525    1.3772 H       1  UNL1        0.0618
     39 H          -7.6490    0.7108   -0.9368 H       1  UNL1        0.0618
     40 H          -5.4311    0.9061   -1.9278 H       1  UNL1        0.0620
     41 H          -2.1716   -1.9985   -3.7149 H       1  UNL1        0.0639
     42 H          -0.9603   -4.1356   -3.4898 H       1  UNL1        0.0618
     43 H           0.1177   -4.7174   -1.3481 H       1  UNL1        0.0618
     44 H          -0.0047   -3.1892    0.5502 H       1  UNL1        0.0639
     45 H           0.9255    0.1532   -0.0894 H       1  UNL1        0.1773
     46 H           3.4288   -1.0626   -0.2678 H       1  UNL1        0.0851
     47 H           4.8149    1.9229    1.6659 H       1  UNL1        0.0625
     48 H           7.1244    2.5081    1.7320 H       1  UNL1        0.0654
     49 H           9.6298    1.8081   -0.1918 H       1  UNL1        0.2921
     50 H           8.1486   -0.7616   -0.7762 H       1  UNL1        0.0654
     51 H           5.8379   -1.4007   -0.8805 H       1  UNL1        0.0625
@<TRIPOS>BOND
     1     1     2    2
     2     2     3    1
     3     3     4    1
     4     4     5   ar
     5     5     6    2
     6     5     7   ar
     7     7     8    1
     8     8     9    1
     9     9    10   ar
    10    10    11   ar
    11    11    12   ar
    12    12    13   ar
    13    13    14   ar
    14     7    15   ar
    15    15    16   ar
    16    16    17   ar
    17    17    18   ar
    18    18    19   ar
    19    19    20   ar
    20    20    21   ar
    21     2    22   am
    22    22    23    1
    23    23    24    2
    24    24    25    1
    25    25    26   ar
    26    26    27   ar
    27    27    28   ar
    28    28    29    1
    29    28    30   ar
    30    30    31   ar
    31    21     4   ar
    32    31    25   ar
    33    14     9   ar
    34    21    16   ar
    35     3    32    1
    36     3    33    1
    37     8    34    1
    38     8    35    1
    39    10    36    1
    40    11    37    1
    41    12    38    1
    42    13    39    1
    43    14    40    1
    44    17    41    1
    45    18    42    1
    46    19    43    1
    47    20    44    1
    48    22    45    1
    49    24    46    1
    50    26    47    1
    51    27    48    1
    52    29    49    1
    53    30    50    1
    54    31    51    1
