
     RDKit          3D

 51 54  0  0  0  0  0  0  0  0999 V2000
    1.3981   -0.8424    2.9336 O   0  0  0  0  0  0  0  0  0  0  0  0
    0.7656   -0.6564    1.8637 C   0  0  0  0  0  0  0  0  0  0  0  0
   -0.6419   -1.1369    1.8047 C   0  0  0  0  0  0  0  0  0  0  0  0
   -1.2449   -0.8623    0.5320 N   0  0  0  0  0  0  0  0  0  0  0  0
   -1.9058    0.3039    0.3992 C   0  0  0  0  0  0  0  0  0  0  0  0
   -1.9571    1.0739    1.3796 O   0  0  0  0  0  0  0  0  0  0  0  0
   -2.5117    0.6575   -0.7674 C   0  0  0  0  0  0  0  0  0  0  0  0
   -3.2349    1.9411   -0.8783 C   0  0  0  0  0  0  0  0  0  0  0  0
   -4.5666    1.8614   -0.2190 C   0  0  0  0  0  0  0  0  0  0  0  0
   -4.8394    2.3170    1.0450 C   0  0  0  0  0  0  0  0  0  0  0  0
   -6.0940    2.2216    1.6422 C   0  0  0  0  0  0  0  0  0  0  0  0
   -7.1244    1.6405    0.9349 C   0  0  0  0  0  0  0  0  0  0  0  0
   -6.8630    1.1788   -0.3373 C   0  0  0  0  0  0  0  0  0  0  0  0
   -5.6241    1.2745   -0.9230 C   0  0  0  0  0  0  0  0  0  0  0  0
   -2.4211   -0.2168   -1.7944 N   0  0  0  0  0  0  0  0  0  0  0  0
   -1.7610   -1.3972   -1.6859 C   0  0  0  0  0  0  0  0  0  0  0  0
   -1.6929   -2.2554   -2.7606 C   0  0  0  0  0  0  0  0  0  0  0  0
   -1.0209   -3.4471   -2.6458 C   0  0  0  0  0  0  0  0  0  0  0  0
   -0.4159   -3.7815   -1.4547 C   0  0  0  0  0  0  0  0  0  0  0  0
   -0.4797   -2.9182   -0.3600 C   0  0  0  0  0  0  0  0  0  0  0  0
   -1.1570   -1.7224   -0.4826 C   0  0  0  0  0  0  0  0  0  0  0  0
    1.4342   -0.0077    0.7999 N   0  0  0  0  0  0  0  0  0  0  0  0
    2.7660    0.4264    0.9071 N   0  0  0  0  0  0  0  0  0  0  0  0
    3.7308   -0.1919    0.3128 C   0  0  0  0  0  0  0  0  0  0  0  0
    5.1182    0.2062    0.3853 C   0  0  0  0  0  0  0  0  0  0  0  0
    5.5035    1.3023    1.1141 C   0  0  0  0  0  0  0  0  0  0  0  0
    6.8440    1.6504    1.1584 C   0  0  0  0  0  0  0  0  0  0  0  0
    7.8160    0.9343    0.4944 C   0  0  0  0  0  0  0  0  0  0  0  0
    9.1466    1.3087    0.5592 O   0  0  0  0  0  0  0  0  0  0  0  0
    7.4211   -0.1675   -0.2371 C   0  0  0  0  0  0  0  0  0  0  0  0
    6.0668   -0.5269   -0.2875 C   0  0  0  0  0  0  0  0  0  0  0  0
   -0.6628   -2.1882    2.1208 H   0  0  0  0  0  0  0  0  0  0  0  0
   -1.1907   -0.5713    2.6316 H   0  0  0  0  0  0  0  0  0  0  0  0
   -2.6462    2.7905   -0.4639 H   0  0  0  0  0  0  0  0  0  0  0  0
   -3.3629    2.1231   -1.9848 H   0  0  0  0  0  0  0  0  0  0  0  0
   -4.0360    2.7839    1.6104 H   0  0  0  0  0  0  0  0  0  0  0  0
   -6.2505    2.5978    2.6420 H   0  0  0  0  0  0  0  0  0  0  0  0
   -8.1163    1.5525    1.3772 H   0  0  0  0  0  0  0  0  0  0  0  0
   -7.6490    0.7108   -0.9368 H   0  0  0  0  0  0  0  0  0  0  0  0
   -5.4311    0.9061   -1.9278 H   0  0  0  0  0  0  0  0  0  0  0  0
   -2.1716   -1.9985   -3.7149 H   0  0  0  0  0  0  0  0  0  0  0  0
   -0.9603   -4.1356   -3.4898 H   0  0  0  0  0  0  0  0  0  0  0  0
    0.1177   -4.7174   -1.3481 H   0  0  0  0  0  0  0  0  0  0  0  0
   -0.0047   -3.1892    0.5502 H   0  0  0  0  0  0  0  0  0  0  0  0
    0.9255    0.1532   -0.0894 H   0  0  0  0  0  0  0  0  0  0  0  0
    3.4288   -1.0626   -0.2678 H   0  0  0  0  0  0  0  0  0  0  0  0
    4.8149    1.9229    1.6659 H   0  0  0  0  0  0  0  0  0  0  0  0
    7.1244    2.5081    1.7320 H   0  0  0  0  0  0  0  0  0  0  0  0
    9.6298    1.8081   -0.1918 H   0  0  0  0  0  0  0  0  0  0  0  0
    8.1486   -0.7616   -0.7762 H   0  0  0  0  0  0  0  0  0  0  0  0
    5.8379   -1.4007   -0.8805 H   0  0  0  0  0  0  0  0  0  0  0  0
  1  2  2  0
  2  3  1  0
  3  4  1  0
  4  5  1  0
  5  6  2  0
  5  7  1  0
  7  8  1  0
  8  9  1  0
  9 10  2  0
 10 11  1  0
 11 12  2  0
 12 13  1  0
 13 14  2  0
  7 15  2  0
 15 16  1  0
 16 17  2  0
 17 18  1  0
 18 19  2  0
 19 20  1  0
 20 21  2  0
  2 22  1  0
 22 23  1  0
 23 24  2  0
 24 25  1  0
 25 26  2  0
 26 27  1  0
 27 28  2  0
 28 29  1  0
 28 30  1  0
 30 31  2  0
 21  4  1  0
 31 25  1  0
 14  9  1  0
 21 16  1  0
  3 32  1  0
  3 33  1  0
  8 34  1  0
  8 35  1  0
 10 36  1  0
 11 37  1  0
 12 38  1  0
 13 39  1  0
 14 40  1  0
 17 41  1  0
 18 42  1  0
 19 43  1  0
 20 44  1  0
 22 45  1  0
 24 46  1  0
 26 47  1  0
 27 48  1  0
 29 49  1  0
 30 50  1  0
 31 51  1  0
M  END
$$$$
