@<TRIPOS>MOLECULE
*****
 36 37 0 0 0
SMALL
GASTEIGER

@<TRIPOS>ATOM
      1 C          -0.5713    0.6050   -0.5958 C.3     1  UNL1        0.0966
      2 C          -0.9119    1.6861    0.3507 C.2     1  UNL1        0.3158
      3 O          -1.7936    2.1431    1.1230 O.2     1  UNL1       -0.2501
      4 O           0.1075    2.6101    0.4983 O.3     1  UNL1       -0.4675
      5 C           0.0241    3.7340    1.3457 C.3     1  UNL1        0.0817
      6 C          -1.6573   -0.3943   -0.7639 C.ar    1  UNL1       -0.0322
      7 C          -2.0887   -1.1987    0.2754 C.ar    1  UNL1       -0.0577
      8 C          -3.0972   -2.1353    0.1431 C.ar    1  UNL1       -0.0615
      9 C          -3.7152   -2.2823   -1.0962 C.ar    1  UNL1       -0.0617
     10 C          -3.3263   -1.5087   -2.1641 C.ar    1  UNL1       -0.0615
     11 C          -2.3263   -0.6071   -1.9597 C.ar    1  UNL1       -0.0577
     12 C           0.7284   -0.0729   -0.2672 C.3     1  UNL1        0.0246
     13 C           1.9083    0.8347   -0.2747 C.3     1  UNL1       -0.0364
     14 C           3.1201   -0.0758   -0.4514 C.3     1  UNL1       -0.0505
     15 C           3.1540   -0.9372    0.8108 C.3     1  UNL1       -0.0404
     16 C           1.8555   -1.6378    1.0199 C.3     1  UNL1       -0.0038
     17 N           0.7028   -0.7527    1.0071 N.3     1  UNL1       -0.3121
     18 H          -0.4547    1.0848   -1.5902 H       1  UNL1        0.0478
     19 H          -0.6532    4.4558    0.8271 H       1  UNL1        0.0661
     20 H           1.0447    4.2145    1.3132 H       1  UNL1        0.0661
     21 H          -0.2600    3.5224    2.3761 H       1  UNL1        0.0661
     22 H          -1.6371   -1.1165    1.2494 H       1  UNL1        0.0621
     23 H          -3.4247   -2.7586    0.9664 H       1  UNL1        0.0618
     24 H          -4.5128   -3.0061   -1.2467 H       1  UNL1        0.0618
     25 H          -3.8110   -1.6275   -3.1266 H       1  UNL1        0.0618
     26 H          -2.0265   -0.0012   -2.8088 H       1  UNL1        0.0621
     27 H           0.9007   -0.8499   -1.0406 H       1  UNL1        0.0472
     28 H           1.9537    1.5671   -1.0874 H       1  UNL1        0.0281
     29 H           2.0252    1.2811    0.7361 H       1  UNL1        0.0281
     30 H           4.0283    0.5339   -0.5221 H       1  UNL1        0.0266
     31 H           2.9007   -0.7037   -1.3382 H       1  UNL1        0.0266
     32 H           3.9195   -1.7201    0.6174 H       1  UNL1        0.0277
     33 H           3.4436   -0.2920    1.6441 H       1  UNL1        0.0277
     34 H           1.7554   -2.4157    0.2367 H       1  UNL1        0.0424
     35 H           1.8954   -2.1187    2.0247 H       1  UNL1        0.0424
     36 H           0.8001   -0.0597    1.7682 H       1  UNL1        0.1222
@<TRIPOS>BOND
     1     1     2    1
     2     2     3    2
     3     2     4    1
     4     4     5    1
     5     1     6    1
     6     6     7   ar
     7     7     8   ar
     8     8     9   ar
     9     9    10   ar
    10    10    11   ar
    11     1    12    1
    12    12    13    1
    13    13    14    1
    14    14    15    1
    15    15    16    1
    16    16    17    1
    17    11     6   ar
    18    17    12    1
    19     1    18    1
    20     5    19    1
    21     5    20    1
    22     5    21    1
    23     7    22    1
    24     8    23    1
    25     9    24    1
    26    10    25    1
    27    11    26    1
    28    12    27    1
    29    13    28    1
    30    13    29    1
    31    14    30    1
    32    14    31    1
    33    15    32    1
    34    15    33    1
    35    16    34    1
    36    16    35    1
    37    17    36    1
