
     RDKit          3D

 42 45  0  0  0  0  0  0  0  0999 V2000
   -4.5709   -1.0923   -0.9147 C   0  0  0  0  0  0  0  0  0  0  0  0
   -4.4443    0.2266   -0.2256 C   0  0  0  0  0  0  0  0  0  0  0  0
   -3.2212    0.8039    0.0328 C   0  0  0  0  0  0  0  0  0  0  0  0
   -3.2156    2.0212    0.6742 C   0  0  0  0  0  0  0  0  0  0  0  0
   -4.3734    2.6610    1.0552 C   0  0  0  0  0  0  0  0  0  0  0  0
   -5.6103    2.1070    0.8100 C   0  0  0  0  0  0  0  0  0  0  0  0
   -5.5976    0.8839    0.1644 C   0  0  0  0  0  0  0  0  0  0  0  0
   -1.9963    0.1231   -0.3646 C   0  0  0  0  0  0  0  0  0  0  0  0
   -1.9768   -1.0498   -1.0043 N   0  0  0  0  0  0  0  0  0  0  0  0
   -0.9046   -1.7327   -1.3925 C   0  0  0  0  0  0  0  0  0  0  0  0
   -0.8456   -2.9615   -2.0646 C   0  0  0  0  0  0  0  0  0  0  0  0
   -2.3025   -4.0499   -2.6338 Br  0  0  0  0  0  0  0  0  0  0  0  0
    0.5285   -3.1647   -2.1976 C   0  0  0  0  0  0  0  0  0  0  0  0
    1.1523   -2.1212   -1.6367 N   0  0  0  0  0  0  0  0  0  0  0  0
    0.3183   -1.2470   -1.1456 N   0  0  0  0  0  0  0  0  0  0  0  0
    0.4301   -0.0564   -0.4978 C   0  0  0  0  0  0  0  0  0  0  0  0
    1.7122    0.4861   -0.1990 N   0  0  0  0  0  0  0  0  0  0  0  0
    2.5762   -0.4381    0.4630 C   0  0  0  0  0  0  0  0  0  0  0  0
    3.9030    0.1191    0.7956 C   0  0  0  0  0  0  0  0  0  0  0  0
    4.9915    0.0266   -0.0639 C   0  0  0  0  0  0  0  0  0  0  0  0
    6.2052    0.5029    0.1838 N   0  0  0  0  0  4  0  0  0  0  0  0
    7.2256    0.3706   -0.7157 O   0  0  0  0  0  1  0  0  0  0  0  0
    6.4675    1.1432    1.3545 C   0  0  0  0  0  0  0  0  0  0  0  0
    5.4396    1.2670    2.2411 C   0  0  0  0  0  0  0  0  0  0  0  0
    4.1756    0.7765    1.9953 C   0  0  0  0  0  0  0  0  0  0  0  0
   -0.7329    0.6172   -0.1139 C   0  0  0  0  0  0  0  0  0  0  0  0
   -4.1822   -1.1034   -1.9319 H   0  0  0  0  0  0  0  0  0  0  0  0
   -5.6552   -1.3955   -0.9606 H   0  0  0  0  0  0  0  0  0  0  0  0
   -4.0867   -1.9226   -0.3455 H   0  0  0  0  0  0  0  0  0  0  0  0
   -2.3005    2.5406    0.9134 H   0  0  0  0  0  0  0  0  0  0  0  0
   -4.3758    3.6336    1.5666 H   0  0  0  0  0  0  0  0  0  0  0  0
   -6.5590    2.5570    1.0834 H   0  0  0  0  0  0  0  0  0  0  0  0
   -6.5715    0.4241   -0.0405 H   0  0  0  0  0  0  0  0  0  0  0  0
    0.9633   -4.0298   -2.6780 H   0  0  0  0  0  0  0  0  0  0  0  0
    1.9162    1.4724   -0.4735 H   0  0  0  0  0  0  0  0  0  0  0  0
    2.1198   -0.7515    1.4476 H   0  0  0  0  0  0  0  0  0  0  0  0
    2.7393   -1.3946   -0.0694 H   0  0  0  0  0  0  0  0  0  0  0  0
    4.8565   -0.4755   -1.0274 H   0  0  0  0  0  0  0  0  0  0  0  0
    7.4296    1.5438    1.5998 H   0  0  0  0  0  0  0  0  0  0  0  0
    5.6082    1.7721    3.1890 H   0  0  0  0  0  0  0  0  0  0  0  0
    3.3709    0.8917    2.7282 H   0  0  0  0  0  0  0  0  0  0  0  0
   -0.6066    1.5635    0.3991 H   0  0  0  0  0  0  0  0  0  0  0  0
  1  2  1  0
  2  3  2  0
  3  4  1  0
  4  5  2  0
  5  6  1  0
  6  7  2  0
  3  8  1  0
  8  9  2  0
  9 10  1  0
 10 11  2  0
 11 12  1  0
 11 13  1  0
 13 14  2  0
 14 15  1  0
 15 16  1  0
 16 17  1  0
 17 18  1  0
 18 19  1  0
 19 20  2  0
 20 21  1  0
 21 22  1  0
 21 23  2  0
 23 24  1  0
 24 25  2  0
 16 26  2  0
  7  2  1  0
 26  8  1  0
 15 10  1  0
 25 19  1  0
  1 27  1  0
  1 28  1  0
  1 29  1  0
  4 30  1  0
  5 31  1  0
  6 32  1  0
  7 33  1  0
 13 34  1  0
 17 35  1  0
 18 36  1  0
 18 37  1  0
 20 38  1  0
 23 39  1  0
 24 40  1  0
 25 41  1  0
 26 42  1  0
M  CHG  2  21   1  22  -1
M  END
$$$$
