@<TRIPOS>MOLECULE
*****
 46 50 0 0 0
SMALL
GASTEIGER

@<TRIPOS>ATOM
      1 O          -5.6215    1.0974   -1.8343 O.2     1  UNL1       -0.2702
      2 C          -4.9227    0.5567   -0.9424 C.2     1  UNL1        0.2443
      3 N          -5.4133   -0.5982   -0.3062 N.am    1  UNL1       -0.3085
      4 C          -6.6994   -1.1481   -0.7062 C.3     1  UNL1        0.0235
      5 C          -7.0952   -2.4391   -0.1090 C.3     1  UNL1       -0.0328
      6 C          -7.6790   -1.1926    0.4544 C.3     1  UNL1       -0.0328
      7 C          -3.6422    1.1598   -0.6188 C.ar    1  UNL1        0.0385
      8 C          -3.3020    2.4303   -1.0150 C.ar    1  UNL1       -0.0481
      9 C          -2.0662    2.9719   -0.7440 C.ar    1  UNL1       -0.0409
     10 C          -1.1266    2.2280   -0.0531 C.ar    1  UNL1        0.0621
     11 CL          0.4486    2.8691    0.3166 Cl      1  UNL1       -0.0816
     12 C          -1.4457    0.9675    0.3465 C.ar    1  UNL1        0.0517
     13 N          -0.5199    0.1057    1.0261 N.pl3   1  UNL1       -0.2963
     14 C           0.6722   -0.2355    0.3077 C.ar    1  UNL1        0.1562
     15 N           0.5687   -0.7714   -0.9471 N.ar    1  UNL1       -0.1333
     16 N           1.6285   -1.0669   -1.6709 N.ar    1  UNL1       -0.1537
     17 C           2.8844   -0.8626   -1.2286 C.ar    1  UNL1        0.0761
     18 C           3.0565   -0.3287    0.0195 C.ar    1  UNL1        0.0979
     19 C           1.9281   -0.0182    0.7852 C.ar    1  UNL1        0.0634
     20 C           2.4473    0.4923    1.9682 C.ar    1  UNL1        0.0609
     21 N           3.7792    0.4700    1.8674 N.ar    1  UNL1       -0.1733
     22 N           4.1900   -0.0131    0.7151 N.ar    1  UNL1       -0.2249
     23 C           5.4874   -0.1937    0.1736 C.ar    1  UNL1        0.1362
     24 C           6.0836    0.9041   -0.4100 C.ar    1  UNL1        0.1515
     25 F           5.5052    2.1238   -0.4804 F       1  UNL1       -0.2032
     26 C           7.3550    0.8042   -0.9780 C.ar    1  UNL1       -0.0242
     27 C           8.0604   -0.3872   -0.9775 C.ar    1  UNL1       -0.0562
     28 C           7.4338   -1.4646   -0.3842 C.ar    1  UNL1       -0.0242
     29 C           6.1978   -1.3740    0.1689 C.ar    1  UNL1        0.1515
     30 F           5.6286   -2.4740    0.7421 F       1  UNL1       -0.2032
     31 C          -2.6865    0.4404    0.0694 C.ar    1  UNL1       -0.0270
     32 H          -4.8597   -1.0613    0.4556 H       1  UNL1        0.1493
     33 H          -7.0750   -0.7662   -1.6625 H       1  UNL1        0.0498
     34 H          -6.3499   -2.9643    0.5406 H       1  UNL1        0.0284
     35 H          -7.7717   -3.1310   -0.6234 H       1  UNL1        0.0284
     36 H          -8.7116   -0.8831    0.1615 H       1  UNL1        0.0284
     37 H          -7.3600   -0.8666    1.4451 H       1  UNL1        0.0284
     38 H          -4.0321    3.0210   -1.5586 H       1  UNL1        0.0625
     39 H          -1.7483    3.9580   -1.0329 H       1  UNL1        0.0633
     40 H          -0.6747   -0.2508    1.9516 H       1  UNL1        0.1537
     41 H           3.7522   -1.1036   -1.8295 H       1  UNL1        0.0870
     42 H           1.8071    0.8191    2.7621 H       1  UNL1        0.0855
     43 H           7.8512    1.6514   -1.4460 H       1  UNL1        0.0647
     44 H           9.0428   -0.4750   -1.4101 H       1  UNL1        0.0619
     45 H           7.9293   -2.4382   -0.3460 H       1  UNL1        0.0647
     46 H          -2.9347   -0.5626    0.3914 H       1  UNL1        0.0644
@<TRIPOS>BOND
     1     1     2    2
     2     2     3   am
     3     3     4    1
     4     4     5    1
     5     5     6    1
     6     2     7    1
     7     7     8   ar
     8     8     9   ar
     9     9    10   ar
    10    10    11    1
    11    10    12   ar
    12    12    13    1
    13    13    14    1
    14    14    15   ar
    15    15    16   ar
    16    16    17   ar
    17    17    18   ar
    18    18    19   ar
    19    19    20   ar
    20    20    21   ar
    21    21    22   ar
    22    22    23    1
    23    23    24   ar
    24    24    25    1
    25    24    26   ar
    26    26    27   ar
    27    27    28   ar
    28    28    29   ar
    29    29    30    1
    30    12    31   ar
    31     6     4    1
    32    31     7   ar
    33    19    14   ar
    34    29    23   ar
    35    22    18   ar
    36     3    32    1
    37     4    33    1
    38     5    34    1
    39     5    35    1
    40     6    36    1
    41     6    37    1
    42     8    38    1
    43     9    39    1
    44    13    40    1
    45    17    41    1
    46    20    42    1
    47    26    43    1
    48    27    44    1
    49    28    45    1
    50    31    46    1
