
     RDKit          3D

 46 50  0  0  0  0  0  0  0  0999 V2000
   -5.6215    1.0974   -1.8343 O   0  0  0  0  0  0  0  0  0  0  0  0
   -4.9227    0.5567   -0.9424 C   0  0  0  0  0  0  0  0  0  0  0  0
   -5.4133   -0.5982   -0.3062 N   0  0  0  0  0  0  0  0  0  0  0  0
   -6.6994   -1.1481   -0.7062 C   0  0  0  0  0  0  0  0  0  0  0  0
   -7.0952   -2.4391   -0.1090 C   0  0  0  0  0  0  0  0  0  0  0  0
   -7.6790   -1.1926    0.4544 C   0  0  0  0  0  0  0  0  0  0  0  0
   -3.6422    1.1598   -0.6188 C   0  0  0  0  0  0  0  0  0  0  0  0
   -3.3020    2.4303   -1.0150 C   0  0  0  0  0  0  0  0  0  0  0  0
   -2.0662    2.9719   -0.7440 C   0  0  0  0  0  0  0  0  0  0  0  0
   -1.1266    2.2280   -0.0531 C   0  0  0  0  0  0  0  0  0  0  0  0
    0.4486    2.8691    0.3166 Cl  0  0  0  0  0  0  0  0  0  0  0  0
   -1.4457    0.9675    0.3465 C   0  0  0  0  0  0  0  0  0  0  0  0
   -0.5199    0.1057    1.0261 N   0  0  0  0  0  0  0  0  0  0  0  0
    0.6722   -0.2355    0.3077 C   0  0  0  0  0  0  0  0  0  0  0  0
    0.5687   -0.7714   -0.9471 N   0  0  0  0  0  0  0  0  0  0  0  0
    1.6285   -1.0669   -1.6709 N   0  0  0  0  0  0  0  0  0  0  0  0
    2.8844   -0.8626   -1.2286 C   0  0  0  0  0  0  0  0  0  0  0  0
    3.0565   -0.3287    0.0195 C   0  0  0  0  0  0  0  0  0  0  0  0
    1.9281   -0.0182    0.7852 C   0  0  0  0  0  0  0  0  0  0  0  0
    2.4473    0.4923    1.9682 C   0  0  0  0  0  0  0  0  0  0  0  0
    3.7792    0.4700    1.8674 N   0  0  0  0  0  0  0  0  0  0  0  0
    4.1900   -0.0131    0.7151 N   0  0  0  0  0  0  0  0  0  0  0  0
    5.4874   -0.1937    0.1736 C   0  0  0  0  0  0  0  0  0  0  0  0
    6.0836    0.9041   -0.4100 C   0  0  0  0  0  0  0  0  0  0  0  0
    5.5052    2.1238   -0.4804 F   0  0  0  0  0  0  0  0  0  0  0  0
    7.3550    0.8042   -0.9780 C   0  0  0  0  0  0  0  0  0  0  0  0
    8.0604   -0.3872   -0.9775 C   0  0  0  0  0  0  0  0  0  0  0  0
    7.4338   -1.4646   -0.3842 C   0  0  0  0  0  0  0  0  0  0  0  0
    6.1978   -1.3740    0.1689 C   0  0  0  0  0  0  0  0  0  0  0  0
    5.6286   -2.4740    0.7421 F   0  0  0  0  0  0  0  0  0  0  0  0
   -2.6865    0.4404    0.0694 C   0  0  0  0  0  0  0  0  0  0  0  0
   -4.8597   -1.0613    0.4556 H   0  0  0  0  0  0  0  0  0  0  0  0
   -7.0750   -0.7662   -1.6625 H   0  0  0  0  0  0  0  0  0  0  0  0
   -6.3499   -2.9643    0.5406 H   0  0  0  0  0  0  0  0  0  0  0  0
   -7.7717   -3.1310   -0.6234 H   0  0  0  0  0  0  0  0  0  0  0  0
   -8.7116   -0.8831    0.1615 H   0  0  0  0  0  0  0  0  0  0  0  0
   -7.3600   -0.8666    1.4451 H   0  0  0  0  0  0  0  0  0  0  0  0
   -4.0321    3.0210   -1.5586 H   0  0  0  0  0  0  0  0  0  0  0  0
   -1.7483    3.9580   -1.0329 H   0  0  0  0  0  0  0  0  0  0  0  0
   -0.6747   -0.2508    1.9516 H   0  0  0  0  0  0  0  0  0  0  0  0
    3.7522   -1.1036   -1.8295 H   0  0  0  0  0  0  0  0  0  0  0  0
    1.8071    0.8191    2.7621 H   0  0  0  0  0  0  0  0  0  0  0  0
    7.8512    1.6514   -1.4460 H   0  0  0  0  0  0  0  0  0  0  0  0
    9.0428   -0.4750   -1.4101 H   0  0  0  0  0  0  0  0  0  0  0  0
    7.9293   -2.4382   -0.3460 H   0  0  0  0  0  0  0  0  0  0  0  0
   -2.9347   -0.5626    0.3914 H   0  0  0  0  0  0  0  0  0  0  0  0
  1  2  2  0
  2  3  1  0
  3  4  1  0
  4  5  1  0
  5  6  1  0
  2  7  1  0
  7  8  2  0
  8  9  1  0
  9 10  2  0
 10 11  1  0
 10 12  1  0
 12 13  1  0
 13 14  1  0
 14 15  2  0
 15 16  1  0
 16 17  2  0
 17 18  1  0
 18 19  2  0
 19 20  1  0
 20 21  2  0
 21 22  1  0
 22 23  1  0
 23 24  2  0
 24 25  1  0
 24 26  1  0
 26 27  2  0
 27 28  1  0
 28 29  2  0
 29 30  1  0
 12 31  2  0
  6  4  1  0
 31  7  1  0
 19 14  1  0
 29 23  1  0
 22 18  1  0
  3 32  1  0
  4 33  1  0
  5 34  1  0
  5 35  1  0
  6 36  1  0
  6 37  1  0
  8 38  1  0
  9 39  1  0
 13 40  1  0
 17 41  1  0
 20 42  1  0
 26 43  1  0
 27 44  1  0
 28 45  1  0
 31 46  1  0
M  END
$$$$
