@<TRIPOS>MOLECULE
*****
 71 76 0 0 0
SMALL
GASTEIGER

@<TRIPOS>ATOM
      1 C           3.3931   -2.2755    0.6491 C.3     1  UNL1       -0.0215
      2 C           2.9172   -1.1350   -0.1806 C.ar    1  UNL1        0.0524
      3 N           1.7017   -0.6573   -0.2233 N.ar    1  UNL1       -0.2363
      4 C           1.3116    0.3938   -0.9958 C.ar    1  UNL1        0.1254
      5 N          -0.0143    0.8526   -1.0554 N.pl3   1  UNL1       -0.2684
      6 C          -1.0837    0.2065   -0.3794 C.ar    1  UNL1        0.2224
      7 N          -0.7847   -0.8887    0.3260 N.ar    1  UNL1       -0.2219
      8 C          -1.7351   -1.6125    0.9870 C.ar    1  UNL1        0.0419
      9 C          -3.0415   -1.1631    0.8988 C.ar    1  UNL1        0.0378
     10 C          -4.2178   -1.6761    1.4364 C.ar    1  UNL1       -0.0209
     11 C          -5.2532   -0.8280    1.0177 C.ar    1  UNL1        0.1070
     12 C          -6.6642   -1.0115    1.3488 C.2     1  UNL1        0.2627
     13 O          -7.3206   -0.2400    2.0958 O.2     1  UNL1       -0.2684
     14 N          -7.3344   -2.1322    0.7936 N.am    1  UNL1       -0.3024
     15 C          -8.7297   -2.3610    1.1149 C.3     1  UNL1        0.0032
     16 C          -6.6799   -3.0618   -0.1073 C.3     1  UNL1        0.0032
     17 N          -4.6868    0.1274    0.2747 N.ar    1  UNL1       -0.3180
     18 C          -5.4121    1.1957   -0.3498 C.3     1  UNL1        0.0366
     19 C          -4.7097    1.8036   -1.5440 C.3     1  UNL1       -0.0320
     20 C          -5.6873    2.9514   -1.8507 C.3     1  UNL1       -0.0511
     21 C          -6.0899    3.4313   -0.4749 C.3     1  UNL1       -0.0511
     22 C          -5.5883    2.4109    0.5272 C.3     1  UNL1       -0.0320
     23 C          -3.3643   -0.0412    0.1818 C.ar    1  UNL1        0.1466
     24 N          -2.3560    0.6267   -0.4501 N.ar    1  UNL1       -0.1962
     25 C           2.2789    0.9774   -1.7743 C.ar    1  UNL1       -0.0208
     26 C           3.6002    0.5456   -1.8022 C.ar    1  UNL1       -0.0447
     27 C           3.9033   -0.5310   -0.9845 C.ar    1  UNL1        0.0580
     28 C           5.2488   -1.0394   -0.9697 C.2     1  UNL1        0.2484
     29 O           5.5295   -2.0405   -1.7150 O.2     1  UNL1       -0.2699
     30 N           6.2461   -0.4673   -0.1574 N.am    1  UNL1       -0.2945
     31 C           7.5531   -1.1179   -0.1978 C.3     1  UNL1        0.0304
     32 C           8.6304   -0.3593    0.4987 C.3     1  UNL1        0.0237
     33 C           9.1404    0.7248   -0.4421 C.3     1  UNL1       -0.0346
     34 C           7.9571    1.6783   -0.4118 C.3     1  UNL1       -0.0346
     35 C           7.2925    1.3860    0.9199 C.3     1  UNL1        0.0237
     36 C           5.9507    0.7086    0.6085 C.3     1  UNL1        0.0304
     37 N           8.0795    0.4051    1.6025 N.3     1  UNL1       -0.3075
     38 H           2.5841   -2.5626    1.3477 H       1  UNL1        0.0293
     39 H           3.5996   -3.1760    0.0133 H       1  UNL1        0.0293
     40 H           4.3313   -2.0381    1.1975 H       1  UNL1        0.0293
     41 H          -0.2447    1.6988   -1.6140 H       1  UNL1        0.1564
     42 H          -1.5237   -2.4894    1.5576 H       1  UNL1        0.0838
     43 H          -4.2764   -2.5454    2.0426 H       1  UNL1        0.0647
     44 H          -8.7966   -3.3617    1.6271 H       1  UNL1        0.0428
     45 H          -9.2957   -2.3377    0.1719 H       1  UNL1        0.0428
     46 H          -9.0799   -1.6110    1.8618 H       1  UNL1        0.0428
     47 H          -7.4618   -3.4897   -0.7731 H       1  UNL1        0.0428
     48 H          -6.1571   -3.8796    0.3725 H       1  UNL1        0.0428
     49 H          -6.0263   -2.4599   -0.7866 H       1  UNL1        0.0428
     50 H          -6.4417    0.8812   -0.6992 H       1  UNL1        0.0528
     51 H          -3.7661    2.3019   -1.2270 H       1  UNL1        0.0285
     52 H          -4.5896    1.1211   -2.3859 H       1  UNL1        0.0285
     53 H          -6.5522    2.5317   -2.3857 H       1  UNL1        0.0266
     54 H          -5.1747    3.7100   -2.4548 H       1  UNL1        0.0266
     55 H          -7.1907    3.4286   -0.4113 H       1  UNL1        0.0266
     56 H          -5.6223    4.4137   -0.3128 H       1  UNL1        0.0266
     57 H          -6.3110    2.1926    1.3163 H       1  UNL1        0.0285
     58 H          -4.6017    2.7260    0.8720 H       1  UNL1        0.0285
     59 H           2.0606    1.8335   -2.4339 H       1  UNL1        0.0652
     60 H           4.3688    1.0002   -2.4080 H       1  UNL1        0.0627
     61 H           7.4038   -2.1151    0.2884 H       1  UNL1        0.0480
     62 H           7.7612   -1.2602   -1.2942 H       1  UNL1        0.0480
     63 H           9.4199   -1.0351    0.8231 H       1  UNL1        0.0476
     64 H           9.3248    0.3411   -1.4643 H       1  UNL1        0.0281
     65 H           9.9914    1.2302    0.0121 H       1  UNL1        0.0281
     66 H           8.2544    2.7265   -0.5073 H       1  UNL1        0.0281
     67 H           7.3069    1.4097   -1.2788 H       1  UNL1        0.0281
     68 H           7.1317    2.2950    1.5246 H       1  UNL1        0.0476
     69 H           5.3438    1.4552    0.0192 H       1  UNL1        0.0480
     70 H           5.4731    0.5350    1.5863 H       1  UNL1        0.0480
     71 H           8.7766    0.7433    2.2652 H       1  UNL1        0.1226
@<TRIPOS>BOND
     1     1     2    1
     2     2     3   ar
     3     3     4   ar
     4     4     5    1
     5     5     6    1
     6     6     7   ar
     7     7     8   ar
     8     8     9   ar
     9     9    10   ar
    10    10    11   ar
    11    11    12    1
    12    12    13    2
    13    12    14   am
    14    14    15    1
    15    14    16    1
    16    11    17   ar
    17    17    18    1
    18    18    19    1
    19    19    20    1
    20    20    21    1
    21    21    22    1
    22    17    23   ar
    23    23    24   ar
    24     4    25   ar
    25    25    26   ar
    26    26    27   ar
    27    27    28    1
    28    28    29    2
    29    28    30   am
    30    30    31    1
    31    31    32    1
    32    32    33    1
    33    33    34    1
    34    34    35    1
    35    35    36    1
    36    35    37    1
    37    27     2   ar
    38    36    30    1
    39    24     6   ar
    40    37    32    1
    41    23     9   ar
    42    22    18    1
    43     1    38    1
    44     1    39    1
    45     1    40    1
    46     5    41    1
    47     8    42    1
    48    10    43    1
    49    15    44    1
    50    15    45    1
    51    15    46    1
    52    16    47    1
    53    16    48    1
    54    16    49    1
    55    18    50    1
    56    19    51    1
    57    19    52    1
    58    20    53    1
    59    20    54    1
    60    21    55    1
    61    21    56    1
    62    22    57    1
    63    22    58    1
    64    25    59    1
    65    26    60    1
    66    31    61    1
    67    31    62    1
    68    32    63    1
    69    33    64    1
    70    33    65    1
    71    34    66    1
    72    34    67    1
    73    35    68    1
    74    36    69    1
    75    36    70    1
    76    37    71    1
