
     RDKit          3D

 71 76  0  0  0  0  0  0  0  0999 V2000
    3.3931   -2.2755    0.6491 C   0  0  0  0  0  0  0  0  0  0  0  0
    2.9172   -1.1350   -0.1806 C   0  0  0  0  0  0  0  0  0  0  0  0
    1.7017   -0.6573   -0.2233 N   0  0  0  0  0  0  0  0  0  0  0  0
    1.3116    0.3938   -0.9958 C   0  0  0  0  0  0  0  0  0  0  0  0
   -0.0143    0.8526   -1.0554 N   0  0  0  0  0  0  0  0  0  0  0  0
   -1.0837    0.2065   -0.3794 C   0  0  0  0  0  0  0  0  0  0  0  0
   -0.7847   -0.8887    0.3260 N   0  0  0  0  0  0  0  0  0  0  0  0
   -1.7351   -1.6125    0.9870 C   0  0  0  0  0  0  0  0  0  0  0  0
   -3.0415   -1.1631    0.8988 C   0  0  0  0  0  0  0  0  0  0  0  0
   -4.2178   -1.6761    1.4364 C   0  0  0  0  0  0  0  0  0  0  0  0
   -5.2532   -0.8280    1.0177 C   0  0  0  0  0  0  0  0  0  0  0  0
   -6.6642   -1.0115    1.3488 C   0  0  0  0  0  0  0  0  0  0  0  0
   -7.3206   -0.2400    2.0958 O   0  0  0  0  0  0  0  0  0  0  0  0
   -7.3344   -2.1322    0.7936 N   0  0  0  0  0  0  0  0  0  0  0  0
   -8.7297   -2.3610    1.1149 C   0  0  0  0  0  0  0  0  0  0  0  0
   -6.6799   -3.0618   -0.1073 C   0  0  0  0  0  0  0  0  0  0  0  0
   -4.6868    0.1274    0.2747 N   0  0  0  0  0  0  0  0  0  0  0  0
   -5.4121    1.1957   -0.3498 C   0  0  0  0  0  0  0  0  0  0  0  0
   -4.7097    1.8036   -1.5440 C   0  0  0  0  0  0  0  0  0  0  0  0
   -5.6873    2.9514   -1.8507 C   0  0  0  0  0  0  0  0  0  0  0  0
   -6.0899    3.4313   -0.4749 C   0  0  0  0  0  0  0  0  0  0  0  0
   -5.5883    2.4109    0.5272 C   0  0  0  0  0  0  0  0  0  0  0  0
   -3.3643   -0.0412    0.1818 C   0  0  0  0  0  0  0  0  0  0  0  0
   -2.3560    0.6267   -0.4501 N   0  0  0  0  0  0  0  0  0  0  0  0
    2.2789    0.9774   -1.7743 C   0  0  0  0  0  0  0  0  0  0  0  0
    3.6002    0.5456   -1.8022 C   0  0  0  0  0  0  0  0  0  0  0  0
    3.9033   -0.5310   -0.9845 C   0  0  0  0  0  0  0  0  0  0  0  0
    5.2488   -1.0394   -0.9697 C   0  0  0  0  0  0  0  0  0  0  0  0
    5.5295   -2.0405   -1.7150 O   0  0  0  0  0  0  0  0  0  0  0  0
    6.2461   -0.4673   -0.1574 N   0  0  0  0  0  0  0  0  0  0  0  0
    7.5531   -1.1179   -0.1978 C   0  0  0  0  0  0  0  0  0  0  0  0
    8.6304   -0.3593    0.4987 C   0  0  0  0  0  0  0  0  0  0  0  0
    9.1404    0.7248   -0.4421 C   0  0  0  0  0  0  0  0  0  0  0  0
    7.9571    1.6783   -0.4118 C   0  0  0  0  0  0  0  0  0  0  0  0
    7.2925    1.3860    0.9199 C   0  0  0  0  0  0  0  0  0  0  0  0
    5.9507    0.7086    0.6085 C   0  0  0  0  0  0  0  0  0  0  0  0
    8.0795    0.4051    1.6025 N   0  0  0  0  0  0  0  0  0  0  0  0
    2.5841   -2.5626    1.3477 H   0  0  0  0  0  0  0  0  0  0  0  0
    3.5996   -3.1760    0.0133 H   0  0  0  0  0  0  0  0  0  0  0  0
    4.3313   -2.0381    1.1975 H   0  0  0  0  0  0  0  0  0  0  0  0
   -0.2447    1.6988   -1.6140 H   0  0  0  0  0  0  0  0  0  0  0  0
   -1.5237   -2.4894    1.5576 H   0  0  0  0  0  0  0  0  0  0  0  0
   -4.2764   -2.5454    2.0426 H   0  0  0  0  0  0  0  0  0  0  0  0
   -8.7966   -3.3617    1.6271 H   0  0  0  0  0  0  0  0  0  0  0  0
   -9.2957   -2.3377    0.1719 H   0  0  0  0  0  0  0  0  0  0  0  0
   -9.0799   -1.6110    1.8618 H   0  0  0  0  0  0  0  0  0  0  0  0
   -7.4618   -3.4897   -0.7731 H   0  0  0  0  0  0  0  0  0  0  0  0
   -6.1571   -3.8796    0.3725 H   0  0  0  0  0  0  0  0  0  0  0  0
   -6.0263   -2.4599   -0.7866 H   0  0  0  0  0  0  0  0  0  0  0  0
   -6.4417    0.8812   -0.6992 H   0  0  0  0  0  0  0  0  0  0  0  0
   -3.7661    2.3019   -1.2270 H   0  0  0  0  0  0  0  0  0  0  0  0
   -4.5896    1.1211   -2.3859 H   0  0  0  0  0  0  0  0  0  0  0  0
   -6.5522    2.5317   -2.3857 H   0  0  0  0  0  0  0  0  0  0  0  0
   -5.1747    3.7100   -2.4548 H   0  0  0  0  0  0  0  0  0  0  0  0
   -7.1907    3.4286   -0.4113 H   0  0  0  0  0  0  0  0  0  0  0  0
   -5.6223    4.4137   -0.3128 H   0  0  0  0  0  0  0  0  0  0  0  0
   -6.3110    2.1926    1.3163 H   0  0  0  0  0  0  0  0  0  0  0  0
   -4.6017    2.7260    0.8720 H   0  0  0  0  0  0  0  0  0  0  0  0
    2.0606    1.8335   -2.4339 H   0  0  0  0  0  0  0  0  0  0  0  0
    4.3688    1.0002   -2.4080 H   0  0  0  0  0  0  0  0  0  0  0  0
    7.4038   -2.1151    0.2884 H   0  0  0  0  0  0  0  0  0  0  0  0
    7.7612   -1.2602   -1.2942 H   0  0  0  0  0  0  0  0  0  0  0  0
    9.4199   -1.0351    0.8231 H   0  0  0  0  0  0  0  0  0  0  0  0
    9.3248    0.3411   -1.4643 H   0  0  0  0  0  0  0  0  0  0  0  0
    9.9914    1.2302    0.0121 H   0  0  0  0  0  0  0  0  0  0  0  0
    8.2544    2.7265   -0.5073 H   0  0  0  0  0  0  0  0  0  0  0  0
    7.3069    1.4097   -1.2788 H   0  0  0  0  0  0  0  0  0  0  0  0
    7.1317    2.2950    1.5246 H   0  0  0  0  0  0  0  0  0  0  0  0
    5.3438    1.4552    0.0192 H   0  0  0  0  0  0  0  0  0  0  0  0
    5.4731    0.5350    1.5863 H   0  0  0  0  0  0  0  0  0  0  0  0
    8.7766    0.7433    2.2652 H   0  0  0  0  0  0  0  0  0  0  0  0
  1  2  1  0
  2  3  2  0
  3  4  1  0
  4  5  1  0
  5  6  1  0
  6  7  2  0
  7  8  1  0
  8  9  2  0
  9 10  1  0
 10 11  2  0
 11 12  1  0
 12 13  2  0
 12 14  1  0
 14 15  1  0
 14 16  1  0
 11 17  1  0
 17 18  1  0
 18 19  1  0
 19 20  1  0
 20 21  1  0
 21 22  1  0
 17 23  1  0
 23 24  2  0
  4 25  2  0
 25 26  1  0
 26 27  2  0
 27 28  1  0
 28 29  2  0
 28 30  1  0
 30 31  1  0
 31 32  1  0
 32 33  1  0
 33 34  1  0
 34 35  1  0
 35 36  1  0
 35 37  1  0
 27  2  1  0
 36 30  1  0
 24  6  1  0
 37 32  1  0
 23  9  1  0
 22 18  1  0
  1 38  1  0
  1 39  1  0
  1 40  1  0
  5 41  1  0
  8 42  1  0
 10 43  1  0
 15 44  1  0
 15 45  1  0
 15 46  1  0
 16 47  1  0
 16 48  1  0
 16 49  1  0
 18 50  1  0
 19 51  1  0
 19 52  1  0
 20 53  1  0
 20 54  1  0
 21 55  1  0
 21 56  1  0
 22 57  1  0
 22 58  1  0
 25 59  1  0
 26 60  1  0
 31 61  1  0
 31 62  1  0
 32 63  1  0
 33 64  1  0
 33 65  1  0
 34 66  1  0
 34 67  1  0
 35 68  1  0
 36 69  1  0
 36 70  1  0
 37 71  1  0
M  END
$$$$
