@<TRIPOS>MOLECULE
*****
 57 59 0 0 0
SMALL
GASTEIGER

@<TRIPOS>ATOM
      1 C          -5.1721   -0.0155   -0.6193 C.3     1  UNL1       -0.0612
      2 C          -4.3864    0.1201    0.6389 C.3     1  UNL1       -0.0294
      3 C          -2.9334   -0.1328    0.4645 C.2     1  UNL1       -0.0322
      4 C          -2.0413    0.8565    0.6310 C.2     1  UNL1       -0.0070
      5 C          -2.6358    2.1468    0.9880 C.ar    1  UNL1       -0.0170
      6 C          -2.4373    2.7638    2.1854 C.ar    1  UNL1       -0.0540
      7 C          -2.9914    3.9998    2.4252 C.ar    1  UNL1       -0.0612
      8 C          -3.7502    4.6323    1.4733 C.ar    1  UNL1       -0.0617
      9 C          -3.9605    4.0199    0.2575 C.ar    1  UNL1       -0.0612
     10 C          -3.4095    2.7856    0.0104 C.ar    1  UNL1       -0.0540
     11 C          -0.6558    0.6448    0.3741 C.ar    1  UNL1       -0.0168
     12 C           0.3110    1.0972    1.2545 C.ar    1  UNL1       -0.0506
     13 C           1.6602    0.8901    0.9384 C.ar    1  UNL1       -0.0194
     14 C           2.0638    0.2552   -0.2113 C.ar    1  UNL1        0.1206
     15 O           3.3943    0.0754   -0.4772 O.3     1  UNL1       -0.4907
     16 C           3.9453   -0.5471   -1.5941 C.3     1  UNL1        0.1022
     17 C           5.4630   -0.5659   -1.5538 C.3     1  UNL1        0.0325
     18 N           5.8864   -1.2905   -0.3652 N.3     1  UNL1       -0.3051
     19 C           5.5501   -0.5566    0.8389 C.3     1  UNL1       -0.0129
     20 C           7.3194   -1.5270   -0.3936 C.3     1  UNL1       -0.0129
     21 C           1.0642   -0.1798   -1.0623 C.ar    1  UNL1       -0.0194
     22 C          -0.2670   -0.0020   -0.8002 C.ar    1  UNL1       -0.0506
     23 C          -2.4217   -1.4542    0.2098 C.ar    1  UNL1       -0.0213
     24 C          -2.9587   -2.2602   -0.7526 C.ar    1  UNL1       -0.0543
     25 C          -2.5102   -3.5597   -1.0079 C.ar    1  UNL1       -0.0612
     26 C          -1.4774   -4.0418   -0.2485 C.ar    1  UNL1       -0.0617
     27 C          -0.9131   -3.2604    0.7276 C.ar    1  UNL1       -0.0612
     28 C          -1.3732   -1.9844    0.9594 C.ar    1  UNL1       -0.0543
     29 H          -5.7225   -0.9598   -0.6732 H       1  UNL1        0.0233
     30 H          -5.9787    0.7774   -0.6129 H       1  UNL1        0.0233
     31 H          -4.6002    0.1943   -1.5542 H       1  UNL1        0.0233
     32 H          -4.7312   -0.7210    1.3176 H       1  UNL1        0.0311
     33 H          -4.6065    1.0413    1.2211 H       1  UNL1        0.0311
     34 H          -1.8557    2.2924    3.0005 H       1  UNL1        0.0624
     35 H          -2.8434    4.5106    3.3773 H       1  UNL1        0.0618
     36 H          -4.1963    5.6194    1.6584 H       1  UNL1        0.0618
     37 H          -4.5709    4.5419   -0.4901 H       1  UNL1        0.0618
     38 H          -3.5999    2.3545   -0.9593 H       1  UNL1        0.0624
     39 H           0.1099    1.6052    2.1851 H       1  UNL1        0.0625
     40 H           2.4405    1.2413    1.6227 H       1  UNL1        0.0654
     41 H           3.6427   -1.6338   -1.5782 H       1  UNL1        0.0709
     42 H           3.5719   -0.1026   -2.5269 H       1  UNL1        0.0709
     43 H           5.8164   -1.1165   -2.4561 H       1  UNL1        0.0460
     44 H           5.8168    0.4670   -1.5922 H       1  UNL1        0.0460
     45 H           4.5971   -0.9537    1.2384 H       1  UNL1        0.0391
     46 H           6.3881   -0.6796    1.5582 H       1  UNL1        0.0391
     47 H           5.4575    0.5203    0.5245 H       1  UNL1        0.0391
     48 H           7.5041   -2.6087   -0.5176 H       1  UNL1        0.0391
     49 H           7.7867   -1.1361    0.5423 H       1  UNL1        0.0391
     50 H           7.7403   -0.9066   -1.2129 H       1  UNL1        0.0391
     51 H           1.3167   -0.6891   -1.9879 H       1  UNL1        0.0654
     52 H          -1.0470   -0.3198   -1.4584 H       1  UNL1        0.0625
     53 H          -3.7771   -1.9691   -1.4169 H       1  UNL1        0.0624
     54 H          -2.9486   -4.1871   -1.7762 H       1  UNL1        0.0618
     55 H          -1.0908   -5.0592   -0.4137 H       1  UNL1        0.0618
     56 H          -0.0825   -3.6261    1.3502 H       1  UNL1        0.0618
     57 H          -0.9001   -1.4068    1.7525 H       1  UNL1        0.0624
@<TRIPOS>BOND
     1     1     2    1
     2     2     3    1
     3     3     4    2
     4     4     5    1
     5     5     6   ar
     6     6     7   ar
     7     7     8   ar
     8     8     9   ar
     9     9    10   ar
    10     4    11    1
    11    11    12   ar
    12    12    13   ar
    13    13    14   ar
    14    14    15    1
    15    15    16    1
    16    16    17    1
    17    17    18    1
    18    18    19    1
    19    18    20    1
    20    14    21   ar
    21    21    22   ar
    22     3    23    1
    23    23    24   ar
    24    24    25   ar
    25    25    26   ar
    26    26    27   ar
    27    27    28   ar
    28    10     5   ar
    29    22    11   ar
    30    28    23   ar
    31     1    29    1
    32     1    30    1
    33     1    31    1
    34     2    32    1
    35     2    33    1
    36     6    34    1
    37     7    35    1
    38     8    36    1
    39     9    37    1
    40    10    38    1
    41    12    39    1
    42    13    40    1
    43    16    41    1
    44    16    42    1
    45    17    43    1
    46    17    44    1
    47    19    45    1
    48    19    46    1
    49    19    47    1
    50    20    48    1
    51    20    49    1
    52    20    50    1
    53    21    51    1
    54    22    52    1
    55    24    53    1
    56    25    54    1
    57    26    55    1
    58    27    56    1
    59    28    57    1
