
     RDKit          3D

 57 59  0  0  0  0  0  0  0  0999 V2000
   -5.1721   -0.0155   -0.6193 C   0  0  0  0  0  0  0  0  0  0  0  0
   -4.3864    0.1201    0.6389 C   0  0  0  0  0  0  0  0  0  0  0  0
   -2.9334   -0.1328    0.4645 C   0  0  0  0  0  0  0  0  0  0  0  0
   -2.0413    0.8565    0.6310 C   0  0  0  0  0  0  0  0  0  0  0  0
   -2.6358    2.1468    0.9880 C   0  0  0  0  0  0  0  0  0  0  0  0
   -2.4373    2.7638    2.1854 C   0  0  0  0  0  0  0  0  0  0  0  0
   -2.9914    3.9998    2.4252 C   0  0  0  0  0  0  0  0  0  0  0  0
   -3.7502    4.6323    1.4733 C   0  0  0  0  0  0  0  0  0  0  0  0
   -3.9605    4.0199    0.2575 C   0  0  0  0  0  0  0  0  0  0  0  0
   -3.4095    2.7856    0.0104 C   0  0  0  0  0  0  0  0  0  0  0  0
   -0.6558    0.6448    0.3741 C   0  0  0  0  0  0  0  0  0  0  0  0
    0.3110    1.0972    1.2545 C   0  0  0  0  0  0  0  0  0  0  0  0
    1.6602    0.8901    0.9384 C   0  0  0  0  0  0  0  0  0  0  0  0
    2.0638    0.2552   -0.2113 C   0  0  0  0  0  0  0  0  0  0  0  0
    3.3943    0.0754   -0.4772 O   0  0  0  0  0  0  0  0  0  0  0  0
    3.9453   -0.5471   -1.5941 C   0  0  0  0  0  0  0  0  0  0  0  0
    5.4630   -0.5659   -1.5538 C   0  0  0  0  0  0  0  0  0  0  0  0
    5.8864   -1.2905   -0.3652 N   0  0  0  0  0  0  0  0  0  0  0  0
    5.5501   -0.5566    0.8389 C   0  0  0  0  0  0  0  0  0  0  0  0
    7.3194   -1.5270   -0.3936 C   0  0  0  0  0  0  0  0  0  0  0  0
    1.0642   -0.1798   -1.0623 C   0  0  0  0  0  0  0  0  0  0  0  0
   -0.2670   -0.0020   -0.8002 C   0  0  0  0  0  0  0  0  0  0  0  0
   -2.4217   -1.4542    0.2098 C   0  0  0  0  0  0  0  0  0  0  0  0
   -2.9587   -2.2602   -0.7526 C   0  0  0  0  0  0  0  0  0  0  0  0
   -2.5102   -3.5597   -1.0079 C   0  0  0  0  0  0  0  0  0  0  0  0
   -1.4774   -4.0418   -0.2485 C   0  0  0  0  0  0  0  0  0  0  0  0
   -0.9131   -3.2604    0.7276 C   0  0  0  0  0  0  0  0  0  0  0  0
   -1.3732   -1.9844    0.9594 C   0  0  0  0  0  0  0  0  0  0  0  0
   -5.7225   -0.9598   -0.6732 H   0  0  0  0  0  0  0  0  0  0  0  0
   -5.9787    0.7774   -0.6129 H   0  0  0  0  0  0  0  0  0  0  0  0
   -4.6002    0.1943   -1.5542 H   0  0  0  0  0  0  0  0  0  0  0  0
   -4.7312   -0.7210    1.3176 H   0  0  0  0  0  0  0  0  0  0  0  0
   -4.6065    1.0413    1.2211 H   0  0  0  0  0  0  0  0  0  0  0  0
   -1.8557    2.2924    3.0005 H   0  0  0  0  0  0  0  0  0  0  0  0
   -2.8434    4.5106    3.3773 H   0  0  0  0  0  0  0  0  0  0  0  0
   -4.1963    5.6194    1.6584 H   0  0  0  0  0  0  0  0  0  0  0  0
   -4.5709    4.5419   -0.4901 H   0  0  0  0  0  0  0  0  0  0  0  0
   -3.5999    2.3545   -0.9593 H   0  0  0  0  0  0  0  0  0  0  0  0
    0.1099    1.6052    2.1851 H   0  0  0  0  0  0  0  0  0  0  0  0
    2.4405    1.2413    1.6227 H   0  0  0  0  0  0  0  0  0  0  0  0
    3.6427   -1.6338   -1.5782 H   0  0  0  0  0  0  0  0  0  0  0  0
    3.5719   -0.1026   -2.5269 H   0  0  0  0  0  0  0  0  0  0  0  0
    5.8164   -1.1165   -2.4561 H   0  0  0  0  0  0  0  0  0  0  0  0
    5.8168    0.4670   -1.5922 H   0  0  0  0  0  0  0  0  0  0  0  0
    4.5971   -0.9537    1.2384 H   0  0  0  0  0  0  0  0  0  0  0  0
    6.3881   -0.6796    1.5582 H   0  0  0  0  0  0  0  0  0  0  0  0
    5.4575    0.5203    0.5245 H   0  0  0  0  0  0  0  0  0  0  0  0
    7.5041   -2.6087   -0.5176 H   0  0  0  0  0  0  0  0  0  0  0  0
    7.7867   -1.1361    0.5423 H   0  0  0  0  0  0  0  0  0  0  0  0
    7.7403   -0.9066   -1.2129 H   0  0  0  0  0  0  0  0  0  0  0  0
    1.3167   -0.6891   -1.9879 H   0  0  0  0  0  0  0  0  0  0  0  0
   -1.0470   -0.3198   -1.4584 H   0  0  0  0  0  0  0  0  0  0  0  0
   -3.7771   -1.9691   -1.4169 H   0  0  0  0  0  0  0  0  0  0  0  0
   -2.9486   -4.1871   -1.7762 H   0  0  0  0  0  0  0  0  0  0  0  0
   -1.0908   -5.0592   -0.4137 H   0  0  0  0  0  0  0  0  0  0  0  0
   -0.0825   -3.6261    1.3502 H   0  0  0  0  0  0  0  0  0  0  0  0
   -0.9001   -1.4068    1.7525 H   0  0  0  0  0  0  0  0  0  0  0  0
  1  2  1  0
  2  3  1  0
  3  4  2  0
  4  5  1  0
  5  6  2  0
  6  7  1  0
  7  8  2  0
  8  9  1  0
  9 10  2  0
  4 11  1  0
 11 12  2  0
 12 13  1  0
 13 14  2  0
 14 15  1  0
 15 16  1  0
 16 17  1  0
 17 18  1  0
 18 19  1  0
 18 20  1  0
 14 21  1  0
 21 22  2  0
  3 23  1  0
 23 24  2  0
 24 25  1  0
 25 26  2  0
 26 27  1  0
 27 28  2  0
 10  5  1  0
 22 11  1  0
 28 23  1  0
  1 29  1  0
  1 30  1  0
  1 31  1  0
  2 32  1  0
  2 33  1  0
  6 34  1  0
  7 35  1  0
  8 36  1  0
  9 37  1  0
 10 38  1  0
 12 39  1  0
 13 40  1  0
 16 41  1  0
 16 42  1  0
 17 43  1  0
 17 44  1  0
 19 45  1  0
 19 46  1  0
 19 47  1  0
 20 48  1  0
 20 49  1  0
 20 50  1  0
 21 51  1  0
 22 52  1  0
 24 53  1  0
 25 54  1  0
 26 55  1  0
 27 56  1  0
 28 57  1  0
M  END
$$$$
