@<TRIPOS>MOLECULE
*****
 40 42 0 0 0
SMALL
GASTEIGER

@<TRIPOS>ATOM
      1 N           2.7810    3.8947   -0.9495 N.1     1  UNL1       -0.1962
      2 C           2.8238    2.7052   -0.9662 C.1     1  UNL1        0.0681
      3 C           2.9032    1.2192   -0.9890 C.3     1  UNL1        0.0727
      4 C           4.3355    0.8159   -1.2026 C.3     1  UNL1       -0.0118
      5 C           4.4244   -0.6714   -0.9423 C.3     1  UNL1        0.0490
      6 O           4.1738   -1.0265    0.3707 O.3     1  UNL1       -0.3776
      7 C           3.5247   -0.0524    1.1136 C.3     1  UNL1        0.0712
      8 C           2.4873    0.7263    0.3850 C.3     1  UNL1        0.0915
      9 N           1.2001    0.0727    0.3813 N.ar    1  UNL1       -0.2624
     10 C           0.5155   -0.0789    1.5607 C.ar    1  UNL1        0.0400
     11 C          -0.6576   -0.7165    1.2949 C.ar    1  UNL1        0.0957
     12 C          -1.7072   -1.1079    2.2214 C.2     1  UNL1        0.2464
     13 N          -1.5389   -0.7269    3.5980 N.am    1  UNL1       -0.3252
     14 O          -2.7115   -1.7345    1.8996 O.2     1  UNL1       -0.2702
     15 C          -0.6542   -0.9438   -0.0811 C.ar    1  UNL1        0.1570
     16 N          -1.7409   -1.6015   -0.7399 N.pl3   1  UNL1       -0.2974
     17 C          -2.9387   -0.8405   -0.9770 C.ar    1  UNL1        0.0326
     18 C          -3.0271    0.4377   -0.5105 C.ar    1  UNL1       -0.0378
     19 C          -4.1759    1.1620   -0.7041 C.ar    1  UNL1       -0.0247
     20 C          -5.2503    0.6632   -1.3468 C.ar    1  UNL1        0.1235
     21 F          -6.4004    1.3932   -1.5234 F       1  UNL1       -0.2055
     22 C          -5.1867   -0.6459   -1.8412 C.ar    1  UNL1       -0.0247
     23 C          -4.0211   -1.3985   -1.6531 C.ar    1  UNL1       -0.0378
     24 N           0.4900   -0.4517   -0.6055 N.ar    1  UNL1       -0.1549
     25 H           2.2201    0.8659   -1.7572 H       1  UNL1        0.0476
     26 H           4.6160    0.9530   -2.2776 H       1  UNL1        0.0300
     27 H           4.9834    1.3985   -0.5258 H       1  UNL1        0.0300
     28 H           5.4151   -0.9976   -1.2939 H       1  UNL1        0.0560
     29 H           3.6589   -1.1881   -1.5537 H       1  UNL1        0.0560
     30 H           4.2570    0.6467    1.6298 H       1  UNL1        0.0581
     31 H           3.0350   -0.5731    1.9612 H       1  UNL1        0.0581
     32 H           2.3249    1.6710    1.0116 H       1  UNL1        0.0580
     33 H           0.8260    0.2422    2.5509 H       1  UNL1        0.0835
     34 H          -1.4302    0.2753    3.8096 H       1  UNL1        0.1453
     35 H          -1.5234   -1.4222    4.3557 H       1  UNL1        0.1453
     36 H          -1.6817   -2.5884   -1.0371 H       1  UNL1        0.1536
     37 H          -2.1882    0.8889    0.0105 H       1  UNL1        0.0637
     38 H          -4.1931    2.1877   -0.3013 H       1  UNL1        0.0647
     39 H          -6.0275   -1.0532   -2.3496 H       1  UNL1        0.0647
     40 H          -3.9412   -2.3996   -2.0261 H       1  UNL1        0.0637
@<TRIPOS>BOND
     1     1     2    3
     2     2     3    1
     3     3     4    1
     4     4     5    1
     5     5     6    1
     6     6     7    1
     7     7     8    1
     8     8     9    1
     9     9    10   ar
    10    10    11   ar
    11    11    12    1
    12    12    13   am
    13    12    14    2
    14    11    15   ar
    15    15    16    1
    16    16    17    1
    17    17    18   ar
    18    18    19   ar
    19    19    20   ar
    20    20    21    1
    21    20    22   ar
    22    22    23   ar
    23    15    24   ar
    24     8     3    1
    25    24     9   ar
    26    23    17   ar
    27     3    25    1
    28     4    26    1
    29     4    27    1
    30     5    28    1
    31     5    29    1
    32     7    30    1
    33     7    31    1
    34     8    32    1
    35    10    33    1
    36    13    34    1
    37    13    35    1
    38    16    36    1
    39    18    37    1
    40    19    38    1
    41    22    39    1
    42    23    40    1
