
     RDKit          3D

 40 42  0  0  0  0  0  0  0  0999 V2000
    2.7810    3.8947   -0.9495 N   0  0  0  0  0  0  0  0  0  0  0  0
    2.8238    2.7052   -0.9662 C   0  0  0  0  0  0  0  0  0  0  0  0
    2.9032    1.2192   -0.9890 C   0  0  1  0  0  0  0  0  0  0  0  0
    4.3355    0.8159   -1.2026 C   0  0  0  0  0  0  0  0  0  0  0  0
    4.4244   -0.6714   -0.9423 C   0  0  0  0  0  0  0  0  0  0  0  0
    4.1738   -1.0265    0.3707 O   0  0  0  0  0  0  0  0  0  0  0  0
    3.5247   -0.0524    1.1136 C   0  0  0  0  0  0  0  0  0  0  0  0
    2.4873    0.7263    0.3850 C   0  0  2  0  0  0  0  0  0  0  0  0
    1.2001    0.0727    0.3813 N   0  0  0  0  0  0  0  0  0  0  0  0
    0.5155   -0.0789    1.5607 C   0  0  0  0  0  0  0  0  0  0  0  0
   -0.6576   -0.7165    1.2949 C   0  0  0  0  0  0  0  0  0  0  0  0
   -1.7072   -1.1079    2.2214 C   0  0  0  0  0  0  0  0  0  0  0  0
   -1.5389   -0.7269    3.5980 N   0  0  0  0  0  0  0  0  0  0  0  0
   -2.7115   -1.7345    1.8996 O   0  0  0  0  0  0  0  0  0  0  0  0
   -0.6542   -0.9438   -0.0811 C   0  0  0  0  0  0  0  0  0  0  0  0
   -1.7409   -1.6015   -0.7399 N   0  0  0  0  0  0  0  0  0  0  0  0
   -2.9387   -0.8405   -0.9770 C   0  0  0  0  0  0  0  0  0  0  0  0
   -3.0271    0.4377   -0.5105 C   0  0  0  0  0  0  0  0  0  0  0  0
   -4.1759    1.1620   -0.7041 C   0  0  0  0  0  0  0  0  0  0  0  0
   -5.2503    0.6632   -1.3468 C   0  0  0  0  0  0  0  0  0  0  0  0
   -6.4004    1.3932   -1.5234 F   0  0  0  0  0  0  0  0  0  0  0  0
   -5.1867   -0.6459   -1.8412 C   0  0  0  0  0  0  0  0  0  0  0  0
   -4.0211   -1.3985   -1.6531 C   0  0  0  0  0  0  0  0  0  0  0  0
    0.4900   -0.4517   -0.6055 N   0  0  0  0  0  0  0  0  0  0  0  0
    2.2201    0.8659   -1.7572 H   0  0  0  0  0  0  0  0  0  0  0  0
    4.6160    0.9530   -2.2776 H   0  0  0  0  0  0  0  0  0  0  0  0
    4.9834    1.3985   -0.5258 H   0  0  0  0  0  0  0  0  0  0  0  0
    5.4151   -0.9976   -1.2939 H   0  0  0  0  0  0  0  0  0  0  0  0
    3.6589   -1.1881   -1.5537 H   0  0  0  0  0  0  0  0  0  0  0  0
    4.2570    0.6467    1.6298 H   0  0  0  0  0  0  0  0  0  0  0  0
    3.0350   -0.5731    1.9612 H   0  0  0  0  0  0  0  0  0  0  0  0
    2.3249    1.6710    1.0116 H   0  0  0  0  0  0  0  0  0  0  0  0
    0.8260    0.2422    2.5509 H   0  0  0  0  0  0  0  0  0  0  0  0
   -1.4302    0.2753    3.8096 H   0  0  0  0  0  0  0  0  0  0  0  0
   -1.5234   -1.4222    4.3557 H   0  0  0  0  0  0  0  0  0  0  0  0
   -1.6817   -2.5884   -1.0371 H   0  0  0  0  0  0  0  0  0  0  0  0
   -2.1882    0.8889    0.0105 H   0  0  0  0  0  0  0  0  0  0  0  0
   -4.1931    2.1877   -0.3013 H   0  0  0  0  0  0  0  0  0  0  0  0
   -6.0275   -1.0532   -2.3496 H   0  0  0  0  0  0  0  0  0  0  0  0
   -3.9412   -2.3996   -2.0261 H   0  0  0  0  0  0  0  0  0  0  0  0
  1  2  3  0
  2  3  1  0
  3  4  1  0
  4  5  1  0
  5  6  1  0
  6  7  1  0
  7  8  1  0
  8  9  1  0
  9 10  1  0
 10 11  2  0
 11 12  1  0
 12 13  1  0
 12 14  2  0
 11 15  1  0
 15 16  1  0
 16 17  1  0
 17 18  2  0
 18 19  1  0
 19 20  2  0
 20 21  1  0
 20 22  1  0
 22 23  2  0
 15 24  2  0
  8  3  1  0
 24  9  1  0
 23 17  1  0
  3 25  1  6
  4 26  1  0
  4 27  1  0
  5 28  1  0
  5 29  1  0
  7 30  1  0
  7 31  1  0
  8 32  1  1
 10 33  1  0
 13 34  1  0
 13 35  1  0
 16 36  1  0
 18 37  1  0
 19 38  1  0
 22 39  1  0
 23 40  1  0
M  END
$$$$
