@<TRIPOS>MOLECULE
*****
 104 110 0 0 0
SMALL
GASTEIGER

@<TRIPOS>ATOM
      1 C          -9.1723   -3.5283    1.1132 C.3     1  UNL1        0.0364
      2 O          -8.3423   -3.1213    2.0977 O.3     1  UNL1       -0.3830
      3 C          -7.0266   -3.1732    1.9485 C.3     1  UNL1        0.0476
      4 C          -6.2607   -2.3564    0.9982 C.3     1  UNL1       -0.0255
      5 C          -6.5329   -2.4390   -0.4555 C.3     1  UNL1       -0.0255
      6 C          -5.5001   -1.5373   -1.1177 C.ar    1  UNL1       -0.0435
      7 C          -4.3319   -2.1068   -1.5431 C.ar    1  UNL1       -0.0537
      8 C          -3.3711   -1.3032   -2.1464 C.ar    1  UNL1       -0.0264
      9 C          -2.1364   -1.9278   -2.6443 C.3     1  UNL1        0.0401
     10 N          -1.0631   -2.0593   -1.6119 N.am    1  UNL1       -0.2938
     11 C          -0.1555   -1.0224   -1.5809 C.2     1  UNL1        0.2210
     12 O          -0.5076   -0.1026   -2.5034 O.2     1  UNL1       -0.2752
     13 C           1.0359   -0.5904   -0.9107 C.3     1  UNL1        0.0550
     14 C           1.3757    0.8146   -1.4866 C.3     1  UNL1        0.0076
     15 N           1.9568    1.6725   -0.5107 N.3     1  UNL1       -0.3152
     16 C           1.0981    1.8326    0.6508 C.3     1  UNL1       -0.0035
     17 C           0.8513    0.5295    1.3412 C.3     1  UNL1       -0.0329
     18 C           1.3628   -0.6033    0.4774 C.3     1  UNL1       -0.0024
     19 C           2.8463   -0.8219    0.6812 C.ar    1  UNL1       -0.0432
     20 C           3.2394   -1.3675    1.8937 C.ar    1  UNL1       -0.0548
     21 C           4.5795   -1.6343    2.2002 C.ar    1  UNL1       -0.0197
     22 C           5.5385   -1.3500    1.2787 C.ar    1  UNL1        0.1207
     23 O           6.9018   -1.5956    1.5248 O.3     1  UNL1       -0.4886
     24 C           7.8804   -1.2602    0.5474 C.3     1  UNL1        0.1235
     25 C           9.2478   -1.6366    0.9996 C.3     1  UNL1        0.1236
     26 O          10.2882   -1.3321    0.1151 O.3     1  UNL1       -0.4857
     27 C          10.6033   -0.0377   -0.2628 C.ar    1  UNL1        0.1571
     28 C          10.1048    0.6348   -1.3389 C.ar    1  UNL1        0.0842
     29 CL          8.9702   -0.1609   -2.4101 Cl      1  UNL1       -0.0797
     30 C          10.4837    1.9247   -1.6234 C.ar    1  UNL1       -0.0368
     31 C          11.3937    2.5828   -0.8163 C.ar    1  UNL1       -0.0475
     32 C          11.7916    3.9803   -1.1312 C.3     1  UNL1       -0.0396
     33 C          11.9071    1.9310    0.2658 C.ar    1  UNL1       -0.0368
     34 C          11.5268    0.6432    0.5481 C.ar    1  UNL1        0.0842
     35 CL         12.2166   -0.1609    1.9543 Cl      1  UNL1       -0.0797
     36 C           5.1828   -0.8160    0.0828 C.ar    1  UNL1       -0.0197
     37 C           3.8289   -0.5607   -0.1960 C.ar    1  UNL1       -0.0548
     38 C          -1.1674   -3.2235   -0.8268 C.3     1  UNL1        0.0265
     39 C          -0.0532   -3.9002   -0.0933 C.3     1  UNL1       -0.0326
     40 C          -1.1469   -3.2713    0.6646 C.3     1  UNL1       -0.0326
     41 C          -3.6389    0.0268   -2.2876 C.ar    1  UNL1       -0.0152
     42 C          -4.8466    0.6155   -1.8466 C.ar    1  UNL1        0.1211
     43 O          -5.0122    1.9650   -2.0396 O.3     1  UNL1       -0.4914
     44 C          -5.9817    2.8660   -1.7570 C.3     1  UNL1        0.0956
     45 C          -6.3124    3.0838   -0.2906 C.3     1  UNL1        0.0118
     46 C          -5.1426    3.5536    0.5535 C.3     1  UNL1        0.0174
     47 C          -5.5387    3.7429    1.9606 C.ar    1  UNL1        0.1492
     48 N          -5.5099    2.8027    2.9350 N.ar    1  UNL1       -0.1136
     49 N          -5.9199    3.3499    4.0568 N.ar    1  UNL1       -0.0232
     50 N          -6.2195    4.6154    3.8677 N.ar    1  UNL1       -0.0466
     51 N          -5.9824    4.8533    2.5729 N.ar    1  UNL1       -0.2427
     52 C          -7.5544    3.9404   -0.0710 C.3     1  UNL1       -0.0433
     53 C          -7.4686    2.5115    0.3846 C.3     1  UNL1       -0.0433
     54 C          -5.7612   -0.1961   -1.2641 C.ar    1  UNL1       -0.0167
     55 H         -10.2472   -3.4257    1.4893 H       1  UNL1        0.0523
     56 H          -9.1050   -3.0033    0.1562 H       1  UNL1        0.0523
     57 H          -9.0137   -4.6138    0.8622 H       1  UNL1        0.0523
     58 H          -6.7308   -4.2914    1.8417 H       1  UNL1        0.0560
     59 H          -6.5326   -2.9671    2.9803 H       1  UNL1        0.0560
     60 H          -5.1598   -2.5767    1.1534 H       1  UNL1        0.0290
     61 H          -6.3941   -1.2765    1.3144 H       1  UNL1        0.0290
     62 H          -6.5134   -3.4468   -0.8761 H       1  UNL1        0.0314
     63 H          -7.4897   -1.9305   -0.7249 H       1  UNL1        0.0314
     64 H          -4.1560   -3.1827   -1.4158 H       1  UNL1        0.0624
     65 H          -1.7151   -1.3908   -3.5259 H       1  UNL1        0.0514
     66 H          -2.3298   -2.9545   -2.9939 H       1  UNL1        0.0514
     67 H           1.8816   -1.2255   -1.4355 H       1  UNL1        0.0413
     68 H           1.9456    0.7332   -2.4153 H       1  UNL1        0.0432
     69 H           0.3911    1.2842   -1.7999 H       1  UNL1        0.0432
     70 H           2.1272    2.6130   -0.8816 H       1  UNL1        0.1220
     71 H           1.6042    2.5623    1.3188 H       1  UNL1        0.0424
     72 H           0.1288    2.3265    0.3440 H       1  UNL1        0.0424
     73 H           1.3095    0.4951    2.3636 H       1  UNL1        0.0283
     74 H          -0.2324    0.3325    1.5179 H       1  UNL1        0.0283
     75 H           0.9296   -1.5128    1.0236 H       1  UNL1        0.0357
     76 H           2.5298   -1.6167    2.6681 H       1  UNL1        0.0622
     77 H           4.8322   -2.0556    3.1554 H       1  UNL1        0.0654
     78 H           7.8398   -0.1746    0.3242 H       1  UNL1        0.0731
     79 H           7.5894   -1.8044   -0.3761 H       1  UNL1        0.0731
     80 H           9.4694   -1.1134    1.9672 H       1  UNL1        0.0731
     81 H           9.2586   -2.7541    1.1596 H       1  UNL1        0.0731
     82 H          10.0515    2.4232   -2.4989 H       1  UNL1        0.0636
     83 H          11.2768    4.6823   -0.4460 H       1  UNL1        0.0278
     84 H          12.8826    4.0562   -0.9555 H       1  UNL1        0.0278
     85 H          11.5537    4.2029   -2.2035 H       1  UNL1        0.0278
     86 H          12.6351    2.4108    0.9384 H       1  UNL1        0.0636
     87 H           5.9396   -0.5793   -0.6717 H       1  UNL1        0.0654
     88 H           3.6533   -0.1763   -1.1651 H       1  UNL1        0.0622
     89 H          -1.9889   -3.9916   -1.1718 H       1  UNL1        0.0500
     90 H           0.9480   -3.4474   -0.2314 H       1  UNL1        0.0284
     91 H           0.0290   -5.0200   -0.1398 H       1  UNL1        0.0284
     92 H          -1.0586   -2.3827    1.2674 H       1  UNL1        0.0284
     93 H          -1.8235   -4.0344    1.1727 H       1  UNL1        0.0284
     94 H          -2.9288    0.7152   -2.7688 H       1  UNL1        0.0657
     95 H          -6.9338    2.6443   -2.3226 H       1  UNL1        0.0702
     96 H          -5.6709    3.8826   -2.1510 H       1  UNL1        0.0702
     97 H          -4.3045    2.8283    0.4839 H       1  UNL1        0.0351
     98 H          -4.8159    4.5365    0.1332 H       1  UNL1        0.0351
     99 H          -6.1345    5.7912    2.1699 H       1  UNL1        0.1920
    100 H          -8.1581    4.1594   -0.9953 H       1  UNL1        0.0272
    101 H          -7.6135    4.6684    0.7380 H       1  UNL1        0.0272
    102 H          -7.4018    2.3002    1.4794 H       1  UNL1        0.0272
    103 H          -8.2056    1.8502   -0.1246 H       1  UNL1        0.0272
    104 H          -6.7033    0.1738   -0.9159 H       1  UNL1        0.0657
@<TRIPOS>BOND
     1     1     2    1
     2     2     3    1
     3     3     4    1
     4     4     5    1
     5     5     6    1
     6     6     7   ar
     7     7     8   ar
     8     8     9    1
     9     9    10    1
    10    10    11   am
    11    11    12    2
    12    11    13    1
    13    13    14    1
    14    14    15    1
    15    15    16    1
    16    16    17    1
    17    17    18    1
    18    18    19    1
    19    19    20   ar
    20    20    21   ar
    21    21    22   ar
    22    22    23    1
    23    23    24    1
    24    24    25    1
    25    25    26    1
    26    26    27    1
    27    27    28   ar
    28    28    29    1
    29    28    30   ar
    30    30    31   ar
    31    31    32    1
    32    31    33   ar
    33    33    34   ar
    34    34    35    1
    35    22    36   ar
    36    36    37   ar
    37    10    38    1
    38    38    39    1
    39    39    40    1
    40     8    41   ar
    41    41    42   ar
    42    42    43    1
    43    43    44    1
    44    44    45    1
    45    45    46    1
    46    46    47    1
    47    47    48   ar
    48    48    49   ar
    49    49    50   ar
    50    50    51   ar
    51    45    52    1
    52    52    53    1
    53    42    54   ar
    54    54     6   ar
    55    18    13    1
    56    37    19   ar
    57    40    38    1
    58    53    45    1
    59    34    27   ar
    60    51    47   ar
    61     1    55    1
    62     1    56    1
    63     1    57    1
    64     3    58    1
    65     3    59    1
    66     4    60    1
    67     4    61    1
    68     5    62    1
    69     5    63    1
    70     7    64    1
    71     9    65    1
    72     9    66    1
    73    13    67    1
    74    14    68    1
    75    14    69    1
    76    15    70    1
    77    16    71    1
    78    16    72    1
    79    17    73    1
    80    17    74    1
    81    18    75    1
    82    20    76    1
    83    21    77    1
    84    24    78    1
    85    24    79    1
    86    25    80    1
    87    25    81    1
    88    30    82    1
    89    32    83    1
    90    32    84    1
    91    32    85    1
    92    33    86    1
    93    36    87    1
    94    37    88    1
    95    38    89    1
    96    39    90    1
    97    39    91    1
    98    40    92    1
    99    40    93    1
   100    41    94    1
   101    44    95    1
   102    44    96    1
   103    46    97    1
   104    46    98    1
   105    51    99    1
   106    52   100    1
   107    52   101    1
   108    53   102    1
   109    53   103    1
   110    54   104    1
