@<TRIPOS>MOLECULE
*****
 59 62 0 0 0
SMALL
GASTEIGER

@<TRIPOS>ATOM
      1 C           4.9124    2.4753    1.6746 C.3     1  UNL1        0.0790
      2 O           5.0757    1.5234    0.6402 O.3     1  UNL1       -0.4914
      3 C           3.9906    0.7900    0.1874 C.ar    1  UNL1        0.1621
      4 C           2.7160    0.9662    0.7325 C.ar    1  UNL1       -0.0071
      5 C           1.6370    0.2564    0.3024 C.ar    1  UNL1        0.0042
      6 C           0.2857    0.4390    0.8758 C.ar    1  UNL1        0.0770
      7 C           0.0776    1.3487    1.8790 C.ar    1  UNL1       -0.0077
      8 C          -1.1962    1.5244    2.4232 C.ar    1  UNL1        0.0999
      9 N          -1.6609    2.3312    3.3924 N.ar    1  UNL1       -0.1712
     10 N          -2.9420    2.1140    3.5310 N.ar    1  UNL1       -0.2732
     11 C          -3.8846    2.7482    4.4569 C.3     1  UNL1        0.0302
     12 C          -3.3259    1.1492    2.6389 C.ar    1  UNL1        0.0380
     13 C          -2.2209    0.7548    1.9157 C.ar    1  UNL1        0.0812
     14 C          -2.0376   -0.1746    0.8992 C.ar    1  UNL1        0.2265
     15 O          -2.9833   -0.9242    0.3900 O.3     1  UNL1       -0.4725
     16 C          -4.2468   -1.2908    0.3686 C.3     1  UNL1        0.1037
     17 C          -4.4719   -2.7854    0.7198 C.3     1  UNL1       -0.0274
     18 C          -4.9605   -1.0332   -0.9791 C.3     1  UNL1        0.0196
     19 C          -4.9234    0.4254   -1.2900 C.3     1  UNL1        0.0182
     20 N          -4.9339    0.4444   -2.7357 N.am    1  UNL1       -0.3149
     21 C          -4.4539   -0.8001   -3.2341 C.2     1  UNL1        0.2135
     22 O          -4.1741   -1.0902   -4.4224 O.2     1  UNL1       -0.2758
     23 C          -4.3159   -1.7785   -2.0982 C.3     1  UNL1        0.0315
     24 N          -0.7371   -0.2791    0.4212 N.ar    1  UNL1       -0.2122
     25 C           1.8349   -0.6615   -0.7066 C.ar    1  UNL1       -0.0489
     26 C           3.1012   -0.8574   -1.2699 C.ar    1  UNL1       -0.0157
     27 C           4.1904   -0.1386   -0.8333 C.ar    1  UNL1        0.1623
     28 O           5.4669   -0.2732   -1.3357 O.3     1  UNL1       -0.4857
     29 C           5.8939   -1.1296   -2.3463 C.3     1  UNL1        0.0948
     30 C           6.5228   -0.3776   -3.5077 C.3     1  UNL1       -0.0281
     31 C           6.9876   -2.0453   -1.8140 C.3     1  UNL1       -0.0281
     32 H           4.5275    1.9723    2.5933 H       1  UNL1        0.0660
     33 H           5.8848    2.9758    1.8709 H       1  UNL1        0.0660
     34 H           4.2116    3.2980    1.3703 H       1  UNL1        0.0660
     35 H           2.6251    1.6970    1.5168 H       1  UNL1        0.0662
     36 H           0.8604    1.9629    2.2940 H       1  UNL1        0.0661
     37 H          -3.5045    3.7472    4.7763 H       1  UNL1        0.0473
     38 H          -3.8964    2.1120    5.3665 H       1  UNL1        0.0473
     39 H          -4.8625    2.9056    4.0007 H       1  UNL1        0.0473
     40 H          -4.3100    0.7651    2.5199 H       1  UNL1        0.0834
     41 H          -4.9020   -0.7716    1.0939 H       1  UNL1        0.0734
     42 H          -4.1508   -2.8767    1.7773 H       1  UNL1        0.0265
     43 H          -3.9372   -3.4370    0.0264 H       1  UNL1        0.0265
     44 H          -5.5739   -2.9081    0.7017 H       1  UNL1        0.0265
     45 H          -5.9992   -1.3968   -0.8605 H       1  UNL1        0.0356
     46 H          -3.9806    0.8413   -0.8725 H       1  UNL1        0.0466
     47 H          -5.8303    0.9076   -0.8525 H       1  UNL1        0.0466
     48 H          -5.2514    1.2628   -3.3119 H       1  UNL1        0.1487
     49 H          -3.2613   -2.0125   -1.9638 H       1  UNL1        0.0363
     50 H          -4.9072   -2.6959   -2.3873 H       1  UNL1        0.0363
     51 H           1.0041   -1.2385   -1.0694 H       1  UNL1        0.0625
     52 H           3.2310   -1.5825   -2.0594 H       1  UNL1        0.0655
     53 H           5.0911   -1.7436   -2.7556 H       1  UNL1        0.0727
     54 H           7.1261    0.4808   -3.1659 H       1  UNL1        0.0265
     55 H           5.7204   -0.1036   -4.2176 H       1  UNL1        0.0265
     56 H           7.1899   -1.0902   -4.0326 H       1  UNL1        0.0265
     57 H           7.4686   -2.5068   -2.7070 H       1  UNL1        0.0265
     58 H           6.4972   -2.8029   -1.1809 H       1  UNL1        0.0265
     59 H           7.7059   -1.4132   -1.2655 H       1  UNL1        0.0265
@<TRIPOS>BOND
     1     1     2    1
     2     2     3    1
     3     3     4   ar
     4     4     5   ar
     5     5     6    1
     6     6     7   ar
     7     7     8   ar
     8     8     9   ar
     9     9    10   ar
    10    10    11    1
    11    10    12   ar
    12    12    13   ar
    13    13    14   ar
    14    14    15    1
    15    15    16    1
    16    16    17    1
    17    16    18    1
    18    18    19    1
    19    19    20    1
    20    20    21   am
    21    21    22    2
    22    21    23    1
    23    14    24   ar
    24     5    25   ar
    25    25    26   ar
    26    26    27   ar
    27    27    28    1
    28    28    29    1
    29    29    30    1
    30    29    31    1
    31    27     3   ar
    32    24     6   ar
    33    13     8   ar
    34    23    18    1
    35     1    32    1
    36     1    33    1
    37     1    34    1
    38     4    35    1
    39     7    36    1
    40    11    37    1
    41    11    38    1
    42    11    39    1
    43    12    40    1
    44    16    41    1
    45    17    42    1
    46    17    43    1
    47    17    44    1
    48    18    45    1
    49    19    46    1
    50    19    47    1
    51    20    48    1
    52    23    49    1
    53    23    50    1
    54    25    51    1
    55    26    52    1
    56    29    53    1
    57    30    54    1
    58    30    55    1
    59    30    56    1
    60    31    57    1
    61    31    58    1
    62    31    59    1
