@<TRIPOS>MOLECULE
*****
 46 49 0 0 0
SMALL
GASTEIGER

@<TRIPOS>ATOM
      1 C           6.2452    1.5774    1.0970 C.3     1  UNL1        0.0788
      2 O           5.0005    2.2128    1.1821 O.3     1  UNL1       -0.4951
      3 C           3.9161    1.7795    0.4232 C.ar    1  UNL1        0.1201
      4 C           2.6814    2.4049    0.5034 C.ar    1  UNL1       -0.0196
      5 C           1.6437    1.9306   -0.2731 C.ar    1  UNL1       -0.0534
      6 C           1.7870    0.8586   -1.1258 C.ar    1  UNL1       -0.0258
      7 C           0.6937    0.3300   -1.9723 C.3     1  UNL1        0.0703
      8 N          -0.1239   -0.6504   -1.3527 N.ar    1  UNL1       -0.2228
      9 N          -1.1912   -0.3052   -0.6722 N.ar    1  UNL1       -0.1520
     10 C          -2.0077   -1.1925   -0.0585 C.ar    1  UNL1        0.1525
     11 N          -3.1467   -0.7316    0.6598 N.pl3   1  UNL1       -0.2829
     12 C          -3.4202    0.6799    0.7244 C.ar    1  UNL1        0.1196
     13 C          -2.9565    1.5408    1.6873 C.ar    1  UNL1        0.0006
     14 C          -3.4582    2.8038    1.3689 C.ar    1  UNL1        0.0616
     15 C          -3.2210    4.0694    2.1334 C.3     1  UNL1       -0.0206
     16 N          -4.1812    2.6497    0.2596 N.ar    1  UNL1       -0.1775
     17 N          -4.1643    1.3874   -0.1317 N.ar    1  UNL1       -0.2637
     18 C          -1.7512   -2.5398   -0.1198 C.ar    1  UNL1        0.0291
     19 C          -2.5490   -3.4927    0.4868 C.ar    1  UNL1       -0.0505
     20 C          -2.1976   -4.8179    0.3606 C.ar    1  UNL1       -0.0611
     21 C          -1.0841   -5.2003   -0.3477 C.ar    1  UNL1       -0.0610
     22 C          -0.2824   -4.2641   -0.9555 C.ar    1  UNL1       -0.0487
     23 C          -0.6178   -2.9313   -0.8405 C.ar    1  UNL1        0.0514
     24 C           0.1678   -1.9484   -1.4415 C.ar    1  UNL1        0.2754
     25 O           1.1718   -2.3628   -2.0749 O.2     1  UNL1       -0.2655
     26 C           3.0180    0.2507   -1.1926 C.ar    1  UNL1       -0.0534
     27 C           4.0838    0.7154   -0.4140 C.ar    1  UNL1       -0.0196
     28 H           6.1672    0.4841    1.2738 H       1  UNL1        0.0660
     29 H           6.9016    2.0090    1.9035 H       1  UNL1        0.0660
     30 H           6.7676    1.7467    0.1287 H       1  UNL1        0.0660
     31 H           2.5936    3.2436    1.1794 H       1  UNL1        0.0654
     32 H           0.6862    2.3983   -0.2254 H       1  UNL1        0.0622
     33 H           0.1023    1.2432   -2.2852 H       1  UNL1        0.0560
     34 H           1.1697   -0.0198   -2.9192 H       1  UNL1        0.0560
     35 H          -3.8244   -1.3302    1.1595 H       1  UNL1        0.1550
     36 H          -2.3255    1.2759    2.5238 H       1  UNL1        0.0670
     37 H          -2.2254    4.0050    2.6101 H       1  UNL1        0.0293
     38 H          -3.2269    4.9487    1.4621 H       1  UNL1        0.0293
     39 H          -4.0356    4.1779    2.8718 H       1  UNL1        0.0293
     40 H          -4.6578    1.0179   -0.9760 H       1  UNL1        0.1903
     41 H          -3.4297   -3.2058    1.0482 H       1  UNL1        0.0625
     42 H          -2.8100   -5.5997    0.8302 H       1  UNL1        0.0618
     43 H          -0.8198   -6.2415   -0.4391 H       1  UNL1        0.0618
     44 H           0.6034   -4.5261   -1.5224 H       1  UNL1        0.0625
     45 H           3.2477   -0.5995   -1.8291 H       1  UNL1        0.0622
     46 H           5.0594    0.2182   -0.4799 H       1  UNL1        0.0654
@<TRIPOS>BOND
     1     1     2    1
     2     2     3    1
     3     3     4   ar
     4     4     5   ar
     5     5     6   ar
     6     6     7    1
     7     7     8    1
     8     8     9   ar
     9     9    10   ar
    10    10    11    1
    11    11    12    1
    12    12    13   ar
    13    13    14   ar
    14    14    15    1
    15    14    16   ar
    16    16    17   ar
    17    10    18   ar
    18    18    19   ar
    19    19    20   ar
    20    20    21   ar
    21    21    22   ar
    22    22    23   ar
    23    23    24   ar
    24    24    25    2
    25     6    26   ar
    26    26    27   ar
    27    27     3   ar
    28    24     8   ar
    29    17    12   ar
    30    23    18   ar
    31     1    28    1
    32     1    29    1
    33     1    30    1
    34     4    31    1
    35     5    32    1
    36     7    33    1
    37     7    34    1
    38    11    35    1
    39    13    36    1
    40    15    37    1
    41    15    38    1
    42    15    39    1
    43    17    40    1
    44    19    41    1
    45    20    42    1
    46    21    43    1
    47    22    44    1
    48    26    45    1
    49    27    46    1
