@<TRIPOS>MOLECULE
*****
 45 48 0 0 0
SMALL
GASTEIGER

@<TRIPOS>ATOM
      1 C           8.5478   -0.9238   -0.1620 C.3     1  UNL1        0.0125
      2 C           7.1914   -0.7598    0.4137 C.2     1  UNL1        0.2141
      3 O           7.0108   -1.0853    1.6171 O.2     1  UNL1       -0.2758
      4 N           6.1059   -0.2603   -0.3172 N.am    1  UNL1       -0.2857
      5 C           4.7332    0.0435   -0.1812 C.ar    1  UNL1        0.0351
      6 C           4.5432    1.3637    0.2366 C.ar    1  UNL1       -0.0404
      7 C           3.2726    1.8782    0.4420 C.ar    1  UNL1       -0.0583
      8 C           2.1858    1.0514    0.2230 C.ar    1  UNL1       -0.0404
      9 C           2.3872   -0.2472   -0.1881 C.ar    1  UNL1        0.0353
     10 N           1.2826   -1.1079   -0.3911 N.pl3   1  UNL1       -0.2834
     11 C          -0.0835   -0.7738   -0.2148 C.ar    1  UNL1        0.2244
     12 N          -0.3320   -0.6333    1.1039 N.ar    1  UNL1       -0.1935
     13 C          -1.5792   -0.3264    1.5466 C.ar    1  UNL1        0.1799
     14 C          -2.0889   -0.1193    2.8264 C.ar    1  UNL1        0.1157
     15 C          -3.4183    0.1755    2.6386 C.ar    1  UNL1        0.0695
     16 N          -3.6660    0.1406    1.3278 N.ar    1  UNL1       -0.1692
     17 N          -2.5809   -0.1595    0.6347 N.ar    1  UNL1       -0.1818
     18 C          -2.3230   -0.3006   -0.7030 C.ar    1  UNL1        0.2255
     19 N          -3.3253   -0.1435   -1.6928 N.pl3   1  UNL1       -0.2835
     20 C          -4.7277    0.0179   -1.4949 C.ar    1  UNL1        0.0336
     21 C          -5.4728   -0.7450   -0.6279 C.ar    1  UNL1       -0.0405
     22 C          -6.8368   -0.4589   -0.4355 C.ar    1  UNL1       -0.0600
     23 C          -7.2784    0.6048   -1.1807 C.ar    1  UNL1       -0.0616
     24 C          -6.6362    1.4215   -2.0649 C.ar    1  UNL1       -0.0600
     25 C          -5.2740    1.0842   -2.2117 C.ar    1  UNL1       -0.0405
     26 N          -1.0670   -0.6087   -1.1100 N.ar    1  UNL1       -0.1805
     27 C          -1.3286   -0.2082    4.0346 C.1     1  UNL1        0.1045
     28 N          -0.6975   -0.2815    5.0055 N.1     1  UNL1       -0.1907
     29 C           3.6267   -0.7498   -0.3891 C.ar    1  UNL1       -0.0192
     30 H           8.4588   -0.9790   -1.2644 H       1  UNL1        0.0323
     31 H           8.9881   -1.8394    0.2779 H       1  UNL1        0.0323
     32 H           9.1690   -0.0074    0.0519 H       1  UNL1        0.0323
     33 H           6.2611    0.0070   -1.3173 H       1  UNL1        0.1548
     34 H           5.3219    2.0883    0.4388 H       1  UNL1        0.0636
     35 H           3.0550    2.8855    0.7671 H       1  UNL1        0.0619
     36 H           1.1771    1.4091    0.3685 H       1  UNL1        0.0636
     37 H           1.3235   -2.0939   -0.6957 H       1  UNL1        0.1550
     38 H          -4.1172    0.3917    3.4364 H       1  UNL1        0.0862
     39 H          -3.0370   -0.1455   -2.6882 H       1  UNL1        0.1550
     40 H          -5.0610   -1.5894   -0.1005 H       1  UNL1        0.0636
     41 H          -7.4642   -1.0212    0.2353 H       1  UNL1        0.0618
     42 H          -8.3420    0.8519   -1.0450 H       1  UNL1        0.0618
     43 H          -7.1111    2.2294   -2.5831 H       1  UNL1        0.0618
     44 H          -4.6835    1.6933   -2.9095 H       1  UNL1        0.0636
     45 H           3.8906   -1.7689   -0.7167 H       1  UNL1        0.0655
@<TRIPOS>BOND
     1     1     2    1
     2     2     3    2
     3     2     4   am
     4     4     5    1
     5     5     6   ar
     6     6     7   ar
     7     7     8   ar
     8     8     9   ar
     9     9    10    1
    10    10    11    1
    11    11    12   ar
    12    12    13   ar
    13    13    14   ar
    14    14    15   ar
    15    15    16   ar
    16    16    17   ar
    17    17    18   ar
    18    18    19    1
    19    19    20    1
    20    20    21   ar
    21    21    22   ar
    22    22    23   ar
    23    23    24   ar
    24    24    25   ar
    25    18    26   ar
    26    14    27    1
    27    27    28    3
    28     9    29   ar
    29    29     5   ar
    30    26    11   ar
    31    17    13   ar
    32    25    20   ar
    33     1    30    1
    34     1    31    1
    35     1    32    1
    36     4    33    1
    37     6    34    1
    38     7    35    1
    39     8    36    1
    40    10    37    1
    41    15    38    1
    42    19    39    1
    43    21    40    1
    44    22    41    1
    45    23    42    1
    46    24    43    1
    47    25    44    1
    48    29    45    1
