@<TRIPOS>MOLECULE
*****
 39 42 0 0 0
SMALL
GASTEIGER

@<TRIPOS>ATOM
      1 O           0.8791    2.1567    0.9874 O.2     1  UNL1       -0.2873
      2 C           1.1392    1.0691    0.2592 C.2     1  UNL1        0.1861
      3 C           2.5550    0.9091    0.1210 C.2     1  UNL1       -0.0137
      4 C           3.2966    0.0048   -0.4534 C.2     1  UNL1       -0.0495
      5 C           4.7552    0.0093   -0.4962 C.ar    1  UNL1       -0.0068
      6 C           5.5127    0.9852    0.0759 C.ar    1  UNL1       -0.0517
      7 C           6.9188    0.9465    0.0081 C.ar    1  UNL1       -0.0430
      8 C           7.5235   -0.1027   -0.6515 C.ar    1  UNL1        0.0276
      9 N           6.7688   -1.0602   -1.2124 N.ar    1  UNL1       -0.2627
     10 C           5.4054   -1.0146   -1.1417 C.ar    1  UNL1        0.0347
     11 C           0.0123    0.3285   -0.2044 C.ar    1  UNL1        0.0223
     12 C          -0.0182   -0.6954   -1.1065 C.ar    1  UNL1       -0.0503
     13 C          -1.1907   -1.3842   -1.4379 C.ar    1  UNL1       -0.0533
     14 C          -2.3754   -1.0426   -0.8529 C.ar    1  UNL1       -0.0172
     15 C          -3.4951   -1.7467   -1.2103 C.ar    1  UNL1       -0.0534
     16 C          -4.7201   -1.4318   -0.6397 C.ar    1  UNL1       -0.0534
     17 C          -4.7500   -0.4007    0.2811 C.ar    1  UNL1       -0.0173
     18 C          -5.9840   -0.1035    0.8381 C.ar    1  UNL1       -0.0540
     19 C          -6.0692    0.9164    1.7621 C.ar    1  UNL1       -0.0612
     20 C          -4.9404    1.6122    2.1099 C.ar    1  UNL1       -0.0611
     21 C          -3.6842    1.3315    1.5622 C.ar    1  UNL1       -0.0534
     22 C          -3.6214    0.3118    0.6438 C.ar    1  UNL1       -0.0102
     23 C          -2.3938   -0.0058    0.0702 C.ar    1  UNL1       -0.0095
     24 C          -1.2348    0.6564    0.3821 C.ar    1  UNL1       -0.0426
     25 H           3.2000    1.7127    0.5931 H       1  UNL1        0.0656
     26 H           2.7772   -0.8190   -0.9103 H       1  UNL1        0.0625
     27 H           5.1266    1.8330    0.6056 H       1  UNL1        0.0624
     28 H           7.5244    1.7198    0.4612 H       1  UNL1        0.0633
     29 H           8.5982   -0.2073   -0.7490 H       1  UNL1        0.0829
     30 H           4.8762   -1.8318   -1.6241 H       1  UNL1        0.0835
     31 H           0.8972   -0.9634   -1.6061 H       1  UNL1        0.0625
     32 H          -1.1012   -2.1884   -2.1719 H       1  UNL1        0.0624
     33 H          -3.4950   -2.5579   -1.9292 H       1  UNL1        0.0624
     34 H          -5.6068   -1.9751   -0.9100 H       1  UNL1        0.0624
     35 H          -6.8711   -0.6747    0.5432 H       1  UNL1        0.0624
     36 H          -7.0475    1.1153    2.1712 H       1  UNL1        0.0618
     37 H          -5.0506    2.4052    2.8388 H       1  UNL1        0.0618
     38 H          -2.8563    1.9310    1.8963 H       1  UNL1        0.0624
     39 H          -1.2605    1.4535    1.0971 H       1  UNL1        0.0631
@<TRIPOS>BOND
     1     1     2    2
     2     2     3    1
     3     3     4    2
     4     4     5    1
     5     5     6   ar
     6     6     7   ar
     7     7     8   ar
     8     8     9   ar
     9     9    10   ar
    10     2    11    1
    11    11    12   ar
    12    12    13   ar
    13    13    14   ar
    14    14    15   ar
    15    15    16   ar
    16    16    17   ar
    17    17    18   ar
    18    18    19   ar
    19    19    20   ar
    20    20    21   ar
    21    21    22   ar
    22    22    23   ar
    23    23    24   ar
    24    10     5   ar
    25    24    11   ar
    26    23    14   ar
    27    22    17   ar
    28     3    25    1
    29     4    26    1
    30     6    27    1
    31     7    28    1
    32     8    29    1
    33    10    30    1
    34    12    31    1
    35    13    32    1
    36    15    33    1
    37    16    34    1
    38    18    35    1
    39    19    36    1
    40    20    37    1
    41    21    38    1
    42    24    39    1
