@<TRIPOS>MOLECULE
*****
 52 56 0 0 0
SMALL
GASTEIGER

@<TRIPOS>ATOM
      1 O           1.7555   -2.4842   -0.6494 O.2     1  UNL1       -0.2519
      2 C           0.7153   -1.8663   -0.2692 C.2     1  UNL1        0.3110
      3 N          -0.4634   -2.7006   -0.1510 N.am    1  UNL1       -0.2685
      4 C          -1.6651   -2.1034    0.2564 C.ar    1  UNL1        0.0460
      5 C          -2.8333   -2.8582    0.4242 C.ar    1  UNL1        0.0246
      6 C          -4.0102   -2.2885    0.8513 C.ar    1  UNL1        0.2534
      7 O          -5.0446   -3.0219    0.9875 O.2     1  UNL1       -0.2676
      8 N          -3.9997   -0.9743    1.1034 N.ar    1  UNL1       -0.3105
      9 C          -5.2136   -0.3259    1.5541 C.3     1  UNL1        0.0511
     10 C          -6.0544    0.1980    0.4712 C.ar    1  UNL1       -0.0277
     11 C          -5.8608    1.4769   -0.0170 C.ar    1  UNL1       -0.0569
     12 C          -6.6485    1.9794   -1.0346 C.ar    1  UNL1       -0.0614
     13 C          -7.6454    1.2177   -1.5868 C.ar    1  UNL1       -0.0617
     14 C          -7.8591   -0.0603   -1.1182 C.ar    1  UNL1       -0.0614
     15 C          -7.0559   -0.5604   -0.0871 C.ar    1  UNL1       -0.0569
     16 C          -2.8894   -0.2329    0.9481 C.ar    1  UNL1        0.0147
     17 C          -1.6789   -0.7705    0.5177 C.ar    1  UNL1        0.0079
     18 C          -0.5494    0.1544    0.3614 C.3     1  UNL1        0.0494
     19 N           0.6980   -0.4855    0.0140 N.am    1  UNL1       -0.2507
     20 C           1.8837    0.3302    0.0021 C.ar    1  UNL1        0.0416
     21 C           1.7066    1.7121    0.1557 C.ar    1  UNL1       -0.0400
     22 C           2.7852    2.5414    0.1707 C.ar    1  UNL1       -0.0565
     23 C           4.0479    2.0182    0.0346 C.ar    1  UNL1       -0.0198
     24 C           4.2773    0.6747   -0.1182 C.ar    1  UNL1        0.1228
     25 O           5.5542    0.1434   -0.2561 O.3     1  UNL1       -0.4868
     26 C           6.6403    1.0259   -0.2364 C.3     1  UNL1        0.1221
     27 C           7.9405    0.4040   -0.3852 C.ar    1  UNL1        0.0463
     28 C           8.8235   -0.0927    0.5629 C.ar    1  UNL1        0.0411
     29 N           9.9305   -0.6003    0.1275 N.ar    1  UNL1       -0.2553
     30 C          10.2930   -0.6937   -1.0435 C.ar    1  UNL1        0.0650
     31 S           8.7860    0.0975   -1.8643 S.2     1  UNL1       -0.0770
     32 C           3.1559   -0.1601   -0.1307 C.ar    1  UNL1        0.0016
     33 H          -0.4361   -3.7178   -0.3592 H       1  UNL1        0.1564
     34 H          -2.8001   -3.9154    0.2101 H       1  UNL1        0.0690
     35 H          -5.8134   -1.0055    2.2187 H       1  UNL1        0.0542
     36 H          -4.9359    0.5443    2.2164 H       1  UNL1        0.0542
     37 H          -5.0923    2.1164    0.3811 H       1  UNL1        0.0621
     38 H          -6.4770    2.9910   -1.4031 H       1  UNL1        0.0618
     39 H          -8.2610    1.6155   -2.3847 H       1  UNL1        0.0618
     40 H          -8.6496   -0.6575   -1.5597 H       1  UNL1        0.0618
     41 H          -7.2354   -1.5485    0.2635 H       1  UNL1        0.0621
     42 H          -2.9183    0.8468    1.1656 H       1  UNL1        0.0814
     43 H          -0.8083    0.8472   -0.4864 H       1  UNL1        0.0519
     44 H          -0.3957    0.7259    1.3143 H       1  UNL1        0.0519
     45 H           0.6776    2.1049    0.2618 H       1  UNL1        0.0636
     46 H           2.6300    3.6053    0.2902 H       1  UNL1        0.0619
     47 H           4.8904    2.6954    0.0492 H       1  UNL1        0.0654
     48 H           6.4914    1.7696   -1.0529 H       1  UNL1        0.0753
     49 H           6.6107    1.5853    0.7143 H       1  UNL1        0.0753
     50 H           8.5488   -0.0348    1.6300 H       1  UNL1        0.0839
     51 H          11.0980   -1.0404   -1.6772 H       1  UNL1        0.0907
     52 H           3.3546   -1.2218   -0.2414 H       1  UNL1        0.0673
@<TRIPOS>BOND
     1     1     2    2
     2     2     3   am
     3     3     4    1
     4     4     5   ar
     5     5     6   ar
     6     6     7    2
     7     6     8   ar
     8     8     9    1
     9     9    10    1
    10    10    11   ar
    11    11    12   ar
    12    12    13   ar
    13    13    14   ar
    14    14    15   ar
    15     8    16   ar
    16    16    17   ar
    17    17    18    1
    18    18    19    1
    19    19    20    1
    20    20    21   ar
    21    21    22   ar
    22    22    23   ar
    23    23    24   ar
    24    24    25    1
    25    25    26    1
    26    26    27    1
    27    27    28   ar
    28    28    29   ar
    29    29    30   ar
    30    30    31   ar
    31    24    32   ar
    32    19     2   am
    33    32    20   ar
    34    17     4   ar
    35    31    27   ar
    36    15    10   ar
    37     3    33    1
    38     5    34    1
    39     9    35    1
    40     9    36    1
    41    11    37    1
    42    12    38    1
    43    13    39    1
    44    14    40    1
    45    15    41    1
    46    16    42    1
    47    18    43    1
    48    18    44    1
    49    21    45    1
    50    22    46    1
    51    23    47    1
    52    26    48    1
    53    26    49    1
    54    28    50    1
    55    30    51    1
    56    32    52    1
