
     RDKit          3D

 52 56  0  0  0  0  0  0  0  0999 V2000
    1.7555   -2.4842   -0.6494 O   0  0  0  0  0  0  0  0  0  0  0  0
    0.7153   -1.8663   -0.2692 C   0  0  0  0  0  0  0  0  0  0  0  0
   -0.4634   -2.7006   -0.1510 N   0  0  0  0  0  0  0  0  0  0  0  0
   -1.6651   -2.1034    0.2564 C   0  0  0  0  0  0  0  0  0  0  0  0
   -2.8333   -2.8582    0.4242 C   0  0  0  0  0  0  0  0  0  0  0  0
   -4.0102   -2.2885    0.8513 C   0  0  0  0  0  0  0  0  0  0  0  0
   -5.0446   -3.0219    0.9875 O   0  0  0  0  0  0  0  0  0  0  0  0
   -3.9997   -0.9743    1.1034 N   0  0  0  0  0  0  0  0  0  0  0  0
   -5.2136   -0.3259    1.5541 C   0  0  0  0  0  0  0  0  0  0  0  0
   -6.0544    0.1980    0.4712 C   0  0  0  0  0  0  0  0  0  0  0  0
   -5.8608    1.4769   -0.0170 C   0  0  0  0  0  0  0  0  0  0  0  0
   -6.6485    1.9794   -1.0346 C   0  0  0  0  0  0  0  0  0  0  0  0
   -7.6454    1.2177   -1.5868 C   0  0  0  0  0  0  0  0  0  0  0  0
   -7.8591   -0.0603   -1.1182 C   0  0  0  0  0  0  0  0  0  0  0  0
   -7.0559   -0.5604   -0.0871 C   0  0  0  0  0  0  0  0  0  0  0  0
   -2.8894   -0.2329    0.9481 C   0  0  0  0  0  0  0  0  0  0  0  0
   -1.6789   -0.7705    0.5177 C   0  0  0  0  0  0  0  0  0  0  0  0
   -0.5494    0.1544    0.3614 C   0  0  0  0  0  0  0  0  0  0  0  0
    0.6980   -0.4855    0.0140 N   0  0  0  0  0  0  0  0  0  0  0  0
    1.8837    0.3302    0.0021 C   0  0  0  0  0  0  0  0  0  0  0  0
    1.7066    1.7121    0.1557 C   0  0  0  0  0  0  0  0  0  0  0  0
    2.7852    2.5414    0.1707 C   0  0  0  0  0  0  0  0  0  0  0  0
    4.0479    2.0182    0.0346 C   0  0  0  0  0  0  0  0  0  0  0  0
    4.2773    0.6747   -0.1182 C   0  0  0  0  0  0  0  0  0  0  0  0
    5.5542    0.1434   -0.2561 O   0  0  0  0  0  0  0  0  0  0  0  0
    6.6403    1.0259   -0.2364 C   0  0  0  0  0  0  0  0  0  0  0  0
    7.9405    0.4040   -0.3852 C   0  0  0  0  0  0  0  0  0  0  0  0
    8.8235   -0.0927    0.5629 C   0  0  0  0  0  0  0  0  0  0  0  0
    9.9305   -0.6003    0.1275 N   0  0  0  0  0  0  0  0  0  0  0  0
   10.2930   -0.6937   -1.0435 C   0  0  0  0  0  0  0  0  0  0  0  0
    8.7860    0.0975   -1.8643 S   0  0  0  0  0  0  0  0  0  0  0  0
    3.1559   -0.1601   -0.1307 C   0  0  0  0  0  0  0  0  0  0  0  0
   -0.4361   -3.7178   -0.3592 H   0  0  0  0  0  0  0  0  0  0  0  0
   -2.8001   -3.9154    0.2101 H   0  0  0  0  0  0  0  0  0  0  0  0
   -5.8134   -1.0055    2.2187 H   0  0  0  0  0  0  0  0  0  0  0  0
   -4.9359    0.5443    2.2164 H   0  0  0  0  0  0  0  0  0  0  0  0
   -5.0923    2.1164    0.3811 H   0  0  0  0  0  0  0  0  0  0  0  0
   -6.4770    2.9910   -1.4031 H   0  0  0  0  0  0  0  0  0  0  0  0
   -8.2610    1.6155   -2.3847 H   0  0  0  0  0  0  0  0  0  0  0  0
   -8.6496   -0.6575   -1.5597 H   0  0  0  0  0  0  0  0  0  0  0  0
   -7.2354   -1.5485    0.2635 H   0  0  0  0  0  0  0  0  0  0  0  0
   -2.9183    0.8468    1.1656 H   0  0  0  0  0  0  0  0  0  0  0  0
   -0.8083    0.8472   -0.4864 H   0  0  0  0  0  0  0  0  0  0  0  0
   -0.3957    0.7259    1.3143 H   0  0  0  0  0  0  0  0  0  0  0  0
    0.6776    2.1049    0.2618 H   0  0  0  0  0  0  0  0  0  0  0  0
    2.6300    3.6053    0.2902 H   0  0  0  0  0  0  0  0  0  0  0  0
    4.8904    2.6954    0.0492 H   0  0  0  0  0  0  0  0  0  0  0  0
    6.4914    1.7696   -1.0529 H   0  0  0  0  0  0  0  0  0  0  0  0
    6.6107    1.5853    0.7143 H   0  0  0  0  0  0  0  0  0  0  0  0
    8.5488   -0.0348    1.6300 H   0  0  0  0  0  0  0  0  0  0  0  0
   11.0980   -1.0404   -1.6772 H   0  0  0  0  0  0  0  0  0  0  0  0
    3.3546   -1.2218   -0.2414 H   0  0  0  0  0  0  0  0  0  0  0  0
  1  2  2  0
  2  3  1  0
  3  4  1  0
  4  5  2  0
  5  6  1  0
  6  7  2  0
  6  8  1  0
  8  9  1  0
  9 10  1  0
 10 11  2  0
 11 12  1  0
 12 13  2  0
 13 14  1  0
 14 15  2  0
  8 16  1  0
 16 17  2  0
 17 18  1  0
 18 19  1  0
 19 20  1  0
 20 21  2  0
 21 22  1  0
 22 23  2  0
 23 24  1  0
 24 25  1  0
 25 26  1  0
 26 27  1  0
 27 28  2  0
 28 29  1  0
 29 30  2  0
 30 31  1  0
 24 32  2  0
 19  2  1  0
 32 20  1  0
 17  4  1  0
 31 27  1  0
 15 10  1  0
  3 33  1  0
  5 34  1  0
  9 35  1  0
  9 36  1  0
 11 37  1  0
 12 38  1  0
 13 39  1  0
 14 40  1  0
 15 41  1  0
 16 42  1  0
 18 43  1  0
 18 44  1  0
 21 45  1  0
 22 46  1  0
 23 47  1  0
 26 48  1  0
 26 49  1  0
 28 50  1  0
 30 51  1  0
 32 52  1  0
M  END
$$$$
