@<TRIPOS>MOLECULE
*****
 53 55 0 0 0
SMALL
GASTEIGER

@<TRIPOS>ATOM
      1 C          -2.6739    2.2707   -0.0410 C.3     1  UNL1       -0.0236
      2 C          -1.6530    1.2903   -0.5540 C.ar    1  UNL1        0.0245
      3 C          -1.9351    0.3294   -1.4993 C.ar    1  UNL1       -0.0238
      4 C          -3.2559    0.0726   -2.1751 C.3     1  UNL1       -0.0025
      5 C          -4.1811   -0.6602   -1.2034 C.3     1  UNL1        0.0518
      6 O          -3.6723   -1.8508   -0.8071 O.3     1  UNL1       -0.3772
      7 C          -4.4583   -2.5877    0.0294 C.3     1  UNL1        0.0708
      8 C          -4.8197   -2.0093    1.3469 C.3     1  UNL1        0.0676
      9 O          -5.5325   -0.8248    1.3171 O.3     1  UNL1       -0.3927
     10 C          -0.7546   -0.3560   -1.6971 C.ar    1  UNL1       -0.0324
     11 C           0.2230    0.1991   -0.8696 C.ar    1  UNL1        0.0543
     12 C           1.6106   -0.2409   -0.7748 C.ar    1  UNL1       -0.0011
     13 C           2.3647   -0.5114   -1.8967 C.ar    1  UNL1       -0.0508
     14 C           3.6869   -0.9353   -1.8018 C.ar    1  UNL1       -0.0363
     15 C           4.2942   -1.1014   -0.5845 C.ar    1  UNL1        0.0879
     16 S           5.9481   -1.6325   -0.3863 S.O2    1  UNL1       -0.0059
     17 C           6.0329   -3.3945   -0.2849 C.3     1  UNL1        0.0596
     18 O           6.7931   -1.1772   -1.5405 O.2     1  UNL1       -0.1696
     19 O           6.5072   -1.0641    0.9028 O.2     1  UNL1       -0.1696
     20 C           3.5521   -0.8345    0.5433 C.ar    1  UNL1       -0.0363
     21 C           2.2382   -0.4131    0.4519 C.ar    1  UNL1       -0.0508
     22 N          -0.3557    1.2148   -0.1730 N.ar    1  UNL1       -0.3130
     23 C           0.2460    2.0724    0.7879 C.ar    1  UNL1        0.0470
     24 C          -0.0504    2.0080    2.1263 C.ar    1  UNL1       -0.0351
     25 C           0.5651    2.8694    3.0094 C.ar    1  UNL1       -0.0245
     26 C           1.4874    3.8128    2.5837 C.ar    1  UNL1        0.1235
     27 F           2.1024    4.6674    3.4326 F       1  UNL1       -0.2055
     28 C           1.7810    3.8721    1.2344 C.ar    1  UNL1       -0.0245
     29 C           1.1683    3.0126    0.3464 C.ar    1  UNL1       -0.0351
     30 H          -2.1945    3.2850    0.0660 H       1  UNL1        0.0292
     31 H          -3.0040    1.9805    0.9733 H       1  UNL1        0.0292
     32 H          -3.5165    2.3420   -0.7562 H       1  UNL1        0.0292
     33 H          -3.7683    1.0008   -2.4492 H       1  UNL1        0.0336
     34 H          -3.1087   -0.5540   -3.0558 H       1  UNL1        0.0336
     35 H          -5.1534   -0.7559   -1.7265 H       1  UNL1        0.0563
     36 H          -4.3646    0.0589   -0.3534 H       1  UNL1        0.0563
     37 H          -5.4077   -2.7967   -0.5320 H       1  UNL1        0.0583
     38 H          -3.9709   -3.6070    0.1780 H       1  UNL1        0.0583
     39 H          -5.4220   -2.7268    1.9510 H       1  UNL1        0.0580
     40 H          -3.8674   -1.9019    1.9407 H       1  UNL1        0.0580
     41 H          -6.4634   -1.0561    1.0321 H       1  UNL1        0.2095
     42 H          -0.5999   -1.1935   -2.3835 H       1  UNL1        0.0642
     43 H           1.9157   -0.3908   -2.8829 H       1  UNL1        0.0625
     44 H           4.2501   -1.1388   -2.7023 H       1  UNL1        0.0637
     45 H           5.1820   -3.8867   -0.7846 H       1  UNL1        0.0468
     46 H           6.0254   -3.6906    0.7847 H       1  UNL1        0.0468
     47 H           7.0213   -3.7357   -0.6893 H       1  UNL1        0.0468
     48 H           4.0186   -0.9610    1.5139 H       1  UNL1        0.0637
     49 H           1.6445   -0.2006    1.3343 H       1  UNL1        0.0625
     50 H          -0.7665    1.2747    2.4522 H       1  UNL1        0.0639
     51 H           0.3594    2.8506    4.0672 H       1  UNL1        0.0647
     52 H           2.5029    4.6130    0.9144 H       1  UNL1        0.0647
     53 H           1.4294    3.0929   -0.7154 H       1  UNL1        0.0639
@<TRIPOS>BOND
     1     1     2    1
     2     2     3   ar
     3     3     4    1
     4     4     5    1
     5     5     6    1
     6     6     7    1
     7     7     8    1
     8     8     9    1
     9     3    10   ar
    10    10    11   ar
    11    11    12    1
    12    12    13   ar
    13    13    14   ar
    14    14    15   ar
    15    15    16    1
    16    16    17    1
    17    16    18    2
    18    16    19    2
    19    15    20   ar
    20    20    21   ar
    21    11    22   ar
    22    22    23    1
    23    23    24   ar
    24    24    25   ar
    25    25    26   ar
    26    26    27    1
    27    26    28   ar
    28    28    29   ar
    29    22     2   ar
    30    29    23   ar
    31    21    12   ar
    32     1    30    1
    33     1    31    1
    34     1    32    1
    35     4    33    1
    36     4    34    1
    37     5    35    1
    38     5    36    1
    39     7    37    1
    40     7    38    1
    41     8    39    1
    42     8    40    1
    43     9    41    1
    44    10    42    1
    45    13    43    1
    46    14    44    1
    47    17    45    1
    48    17    46    1
    49    17    47    1
    50    20    48    1
    51    21    49    1
    52    24    50    1
    53    25    51    1
    54    28    52    1
    55    29    53    1
