@<TRIPOS>MOLECULE
*****
 38 41 0 0 0
SMALL
GASTEIGER

@<TRIPOS>ATOM
      1 O           1.5200   -2.8501    1.2824 O.2     1  UNL1       -0.2700
      2 C           1.2168   -1.7688    1.8897 C.2     1  UNL1        0.2470
      3 C           0.5331   -1.8000    3.1678 C.ar    1  UNL1        0.0369
      4 C          -0.7750   -2.2949    3.1261 C.ar    1  UNL1       -0.0496
      5 C          -1.5346   -2.3764    4.2886 C.ar    1  UNL1       -0.0610
      6 C          -0.9883   -1.9651    5.4863 C.ar    1  UNL1       -0.0617
      7 C           0.2970   -1.4764    5.5421 C.ar    1  UNL1       -0.0610
      8 C           1.0585   -1.3957    4.3724 C.ar    1  UNL1       -0.0496
      9 N           1.5880   -0.5744    1.2251 N.am    1  UNL1       -0.2912
     10 C           1.3149    0.6963    1.8314 C.3     1  UNL1        0.0223
     11 C           1.4550    1.8063    0.8215 C.3     1  UNL1        0.0233
     12 C           0.8979    1.3960   -0.4742 C.ar    1  UNL1        0.1319
     13 O           0.0720    1.8865   -1.3845 O.2     1  UNL1       -0.4387
     14 C          -0.0951    1.1003   -2.3774 C.ar    1  UNL1        0.2465
     15 C          -0.9002    1.2065   -3.6098 C.ar    1  UNL1        0.1257
     16 C          -1.5864    2.3475   -3.9509 C.ar    1  UNL1       -0.0283
     17 C          -2.3536    2.4541   -5.0886 C.ar    1  UNL1       -0.0228
     18 C          -2.4340    1.3632   -5.9188 C.ar    1  UNL1        0.1414
     19 F          -3.1813    1.4618   -7.0322 F       1  UNL1       -0.2039
     20 C          -1.7357    0.2019   -5.5693 C.ar    1  UNL1        0.0636
     21 N          -1.0037    0.1551   -4.4506 N.ar    1  UNL1       -0.2474
     22 N           0.6654   -0.0151   -2.1509 N.ar    1  UNL1       -0.2108
     23 C           1.2732    0.1628   -0.9881 C.ar    1  UNL1        0.1003
     24 C           2.2178   -0.6208   -0.1168 C.3     1  UNL1        0.0605
     25 H          -1.2166   -2.6172    2.2020 H       1  UNL1        0.0625
     26 H          -2.5583   -2.7623    4.2619 H       1  UNL1        0.0618
     27 H          -1.6136   -2.0454    6.3795 H       1  UNL1        0.0618
     28 H           0.6944   -1.1625    6.4870 H       1  UNL1        0.0618
     29 H           2.0735   -1.0207    4.3775 H       1  UNL1        0.0625
     30 H           2.0119    0.8864    2.7104 H       1  UNL1        0.0469
     31 H           0.3039    0.7185    2.3310 H       1  UNL1        0.0469
     32 H           2.5590    1.9963    0.7186 H       1  UNL1        0.0359
     33 H           0.9450    2.7235    1.2219 H       1  UNL1        0.0359
     34 H          -1.4848    3.1873   -3.2541 H       1  UNL1        0.0641
     35 H          -2.8844    3.3477   -5.3499 H       1  UNL1        0.0647
     36 H          -1.8443   -0.6159   -6.2637 H       1  UNL1        0.0859
     37 H           2.3198   -1.6631   -0.4524 H       1  UNL1        0.0530
     38 H           3.1726   -0.0732   -0.1113 H       1  UNL1        0.0530
@<TRIPOS>BOND
     1     1     2    2
     2     2     3    1
     3     3     4   ar
     4     4     5   ar
     5     5     6   ar
     6     6     7   ar
     7     7     8   ar
     8     2     9   am
     9     9    10    1
    10    10    11    1
    11    11    12    1
    12    12    13   ar
    13    13    14   ar
    14    14    15    1
    15    15    16   ar
    16    16    17   ar
    17    17    18   ar
    18    18    19    1
    19    18    20   ar
    20    20    21   ar
    21    14    22   ar
    22    22    23   ar
    23    23    24    1
    24     8     3   ar
    25    24     9    1
    26    23    12   ar
    27    21    15   ar
    28     4    25    1
    29     5    26    1
    30     6    27    1
    31     7    28    1
    32     8    29    1
    33    10    30    1
    34    10    31    1
    35    11    32    1
    36    11    33    1
    37    16    34    1
    38    17    35    1
    39    20    36    1
    40    24    37    1
    41    24    38    1
