@<TRIPOS>MOLECULE
*****
 54 57 0 0 0
SMALL
GASTEIGER

@<TRIPOS>ATOM
      1 C          -5.4603    2.8508    0.3663 C.3     1  UNL1        0.0124
      2 C          -5.0333    1.4086    0.5571 C.2     1  UNL1        0.2133
      3 O          -5.8846    0.5410    0.5320 O.2     1  UNL1       -0.2759
      4 N          -3.6649    1.1708    0.7497 N.am    1  UNL1       -0.2865
      5 C          -2.7440    2.3037    0.8099 C.3     1  UNL1        0.0319
      6 C          -1.8962    2.2526   -0.4565 C.3     1  UNL1        0.0357
      7 N          -1.5805    0.9366   -0.8767 N.am    1  UNL1       -0.2669
      8 C          -0.5312    0.5930   -1.7426 C.ar    1  UNL1        0.0543
      9 C           0.6954    0.1896   -1.1124 C.ar    1  UNL1       -0.0298
     10 C           1.7564   -0.2701   -1.9181 C.ar    1  UNL1        0.0023
     11 C           2.9521   -0.6496   -1.1421 C.ar    1  UNL1        0.0740
     12 C           4.2406   -0.2283   -1.1648 C.ar    1  UNL1       -0.0219
     13 C           4.9657   -0.8232   -0.1034 C.ar    1  UNL1        0.0855
     14 C           6.4276   -0.5379    0.1765 C.3     1  UNL1        0.4195
     15 F           7.1272   -1.6830   -0.0232 F       1  UNL1       -0.1658
     16 F           6.5332   -0.0201    1.4739 F       1  UNL1       -0.1658
     17 F           6.8782    0.4288   -0.7028 F       1  UNL1       -0.1658
     18 C           4.0677   -1.5815    0.4920 C.ar    1  UNL1        0.1171
     19 C           4.1823   -2.4284    1.6762 C.ar    1  UNL1        0.1442
     20 N           5.4244   -2.4434    2.3571 N.pl3   1  UNL1       -0.3414
     21 N           3.0671   -3.0609    2.0547 N.ar    1  UNL1       -0.2173
     22 C           1.9054   -2.9992    1.4726 C.ar    1  UNL1        0.1388
     23 N           1.8063   -2.1733    0.3460 N.ar    1  UNL1       -0.1543
     24 N           2.8559   -1.5554   -0.0295 N.ar    1  UNL1       -0.2269
     25 C           1.6153   -0.3313   -3.2659 C.ar    1  UNL1       -0.0512
     26 C           0.3674    0.0749   -3.9237 C.ar    1  UNL1       -0.0419
     27 C          -0.5184    0.4748   -3.0577 C.ar    1  UNL1        0.0731
     28 C          -1.8172    1.2568   -3.6854 C.1     1  UNL1        0.1010
     29 N          -2.6057    1.7522   -4.0687 N.1     1  UNL1       -0.1908
     30 C          -2.3299   -0.2622   -0.4208 C.2     1  UNL1        0.2430
     31 O          -2.2710   -1.2185   -1.2057 O.2     1  UNL1       -0.2729
     32 C          -3.0164   -0.1169    0.8603 C.3     1  UNL1        0.1082
     33 C          -3.8902   -1.2548    1.2153 C.3     1  UNL1       -0.0352
     34 C          -1.8904    0.0043    1.9106 C.3     1  UNL1       -0.0352
     35 H          -4.8224    3.3131   -0.4364 H       1  UNL1        0.0323
     36 H          -5.4328    3.4241    1.2809 H       1  UNL1        0.0323
     37 H          -6.5122    2.7891   -0.0319 H       1  UNL1        0.0323
     38 H          -3.2602    3.2564    0.9012 H       1  UNL1        0.0480
     39 H          -2.0452    2.1916    1.6904 H       1  UNL1        0.0480
     40 H          -2.4357    2.8181   -1.2592 H       1  UNL1        0.0484
     41 H          -0.9710    2.8097   -0.2325 H       1  UNL1        0.0484
     42 H           0.8179    0.2275   -0.0570 H       1  UNL1        0.0643
     43 H           4.6963    0.4627   -1.8592 H       1  UNL1        0.0645
     44 H           5.5607   -1.8148    3.1836 H       1  UNL1        0.1438
     45 H           6.1705   -3.1032    2.0048 H       1  UNL1        0.1438
     46 H           0.9981   -3.5149    1.7608 H       1  UNL1        0.1066
     47 H           2.4098   -0.6448   -3.9105 H       1  UNL1        0.0624
     48 H           0.3005    0.0121   -4.9753 H       1  UNL1        0.0631
     49 H          -4.8135   -0.9488    1.7663 H       1  UNL1        0.0255
     50 H          -3.3283   -1.8348    2.0196 H       1  UNL1        0.0255
     51 H          -4.1001   -1.8915    0.3741 H       1  UNL1        0.0255
     52 H          -2.3626    0.4960    2.7638 H       1  UNL1        0.0255
     53 H          -0.9833    0.4462    1.5504 H       1  UNL1        0.0255
     54 H          -1.6206   -1.0943    2.1264 H       1  UNL1        0.0255
@<TRIPOS>BOND
     1     1     2    1
     2     2     3    2
     3     2     4   am
     4     4     5    1
     5     5     6    1
     6     6     7    1
     7     7     8    1
     8     8     9   ar
     9     9    10   ar
    10    10    11    1
    11    11    12   ar
    12    12    13   ar
    13    13    14    1
    14    14    15    1
    15    14    16    1
    16    14    17    1
    17    13    18   ar
    18    18    19   ar
    19    19    20    1
    20    19    21   ar
    21    21    22   ar
    22    22    23   ar
    23    23    24   ar
    24    10    25   ar
    25    25    26   ar
    26    26    27   ar
    27    27    28    1
    28    28    29    3
    29     7    30   am
    30    30    31    2
    31    30    32    1
    32    32    33    1
    33    32    34    1
    34    32     4    1
    35    27     8   ar
    36    24    11   ar
    37    24    18   ar
    38     1    35    1
    39     1    36    1
    40     1    37    1
    41     5    38    1
    42     5    39    1
    43     6    40    1
    44     6    41    1
    45     9    42    1
    46    12    43    1
    47    20    44    1
    48    20    45    1
    49    22    46    1
    50    25    47    1
    51    26    48    1
    52    33    49    1
    53    33    50    1
    54    33    51    1
    55    34    52    1
    56    34    53    1
    57    34    54    1
