
     RDKit          3D

 46 48  0  0  0  0  0  0  0  0999 V2000
    2.4228    0.8629   -1.8129 C   0  0  0  0  0  0  0  0  0  0  0  0
    2.7160    2.2200   -1.1792 C   0  0  2  0  0  0  0  0  0  0  0  0
    3.2692    2.0564    0.1968 C   0  0  0  0  0  0  0  0  0  0  0  0
    4.4812    1.2812    0.2481 N   0  0  0  0  0  0  0  0  0  0  0  0
    4.9238    1.0724    1.6182 C   0  0  0  0  0  0  0  0  0  0  0  0
    5.5473    1.7978   -0.5745 C   0  0  0  0  0  0  0  0  0  0  0  0
    1.5274    2.9851   -1.1828 O   0  0  0  0  0  0  0  0  0  0  0  0
    0.3611    2.3587   -0.6984 C   0  0  0  0  0  0  0  0  0  0  0  0
    0.3861    1.1185   -0.2164 N   0  0  0  0  0  0  0  0  0  0  0  0
   -0.7349    0.4839    0.2629 C   0  0  0  0  0  0  0  0  0  0  0  0
   -0.5921   -0.8070    0.7964 N   0  0  0  0  0  0  0  0  0  0  0  0
   -1.6158   -1.7557    0.8500 C   0  0  0  0  0  0  0  0  0  0  0  0
   -2.6840   -1.6896   -0.0073 C   0  0  0  0  0  0  0  0  0  0  0  0
   -3.6916   -2.6350    0.0958 C   0  0  0  0  0  0  0  0  0  0  0  0
   -4.8052   -2.6332   -0.7439 C   0  0  0  0  0  0  0  0  0  0  0  0
   -5.8065   -3.5616   -0.6574 C   0  0  0  0  0  0  0  0  0  0  0  0
   -5.7380   -4.5564    0.2926 C   0  0  0  0  0  0  0  0  0  0  0  0
   -4.6433   -4.6009    1.1559 C   0  0  0  0  0  0  0  0  0  0  0  0
   -4.4784   -5.8321    2.3802 Cl  0  0  0  0  0  0  0  0  0  0  0  0
   -3.6624   -3.6448    1.0297 C   0  0  0  0  0  0  0  0  0  0  0  0
   -2.5416   -3.6458    1.8666 C   0  0  0  0  0  0  0  0  0  0  0  0
   -1.5851   -2.7407    1.7617 N   0  0  0  0  0  0  0  0  0  0  0  0
   -1.8876    1.2283    0.2084 C   0  0  0  0  0  0  0  0  0  0  0  0
   -1.9450    2.4977   -0.2785 N   0  0  0  0  0  0  0  0  0  0  0  0
   -0.8338    3.0740   -0.7340 C   0  0  0  0  0  0  0  0  0  0  0  0
   -0.7827    4.4166   -1.2824 C   0  0  0  0  0  0  0  0  0  0  0  0
   -0.7498    5.4826   -1.7378 N   0  0  0  0  0  0  0  0  0  0  0  0
    3.1405    0.6203   -2.6171 H   0  0  0  0  0  0  0  0  0  0  0  0
    1.4321    0.9283   -2.2935 H   0  0  0  0  0  0  0  0  0  0  0  0
    2.4009    0.0450   -1.0772 H   0  0  0  0  0  0  0  0  0  0  0  0
    3.4454    2.6962   -1.8761 H   0  0  0  0  0  0  0  0  0  0  0  0
    2.5117    1.4865    0.8029 H   0  0  0  0  0  0  0  0  0  0  0  0
    3.3666    3.0325    0.7157 H   0  0  0  0  0  0  0  0  0  0  0  0
    4.0150    0.9628    2.2713 H   0  0  0  0  0  0  0  0  0  0  0  0
    5.5674    1.8577    2.0142 H   0  0  0  0  0  0  0  0  0  0  0  0
    5.4174    0.0723    1.6346 H   0  0  0  0  0  0  0  0  0  0  0  0
    6.4865    1.9833    0.0217 H   0  0  0  0  0  0  0  0  0  0  0  0
    5.8416    1.0088   -1.3118 H   0  0  0  0  0  0  0  0  0  0  0  0
    5.3141    2.7170   -1.1099 H   0  0  0  0  0  0  0  0  0  0  0  0
    0.3486   -1.0872    1.1841 H   0  0  0  0  0  0  0  0  0  0  0  0
   -2.7932   -0.9487   -0.8032 H   0  0  0  0  0  0  0  0  0  0  0  0
   -4.8423   -1.8458   -1.4844 H   0  0  0  0  0  0  0  0  0  0  0  0
   -6.6609   -3.5447   -1.3146 H   0  0  0  0  0  0  0  0  0  0  0  0
   -6.5230   -5.2972    0.3765 H   0  0  0  0  0  0  0  0  0  0  0  0
   -2.5281   -4.4539    2.6057 H   0  0  0  0  0  0  0  0  0  0  0  0
   -2.7975    0.7853    0.6033 H   0  0  0  0  0  0  0  0  0  0  0  0
  1  2  1  0
  2  3  1  0
  3  4  1  0
  4  5  1  0
  4  6  1  0
  2  7  1  0
  7  8  1  0
  8  9  2  0
  9 10  1  0
 10 11  1  0
 11 12  1  0
 12 13  2  0
 13 14  1  0
 14 15  2  0
 15 16  1  0
 16 17  2  0
 17 18  1  0
 18 19  1  0
 18 20  2  0
 20 21  1  0
 21 22  2  0
 10 23  2  0
 23 24  1  0
 24 25  2  0
 25 26  1  0
 26 27  3  0
 25  8  1  0
 22 12  1  0
 20 14  1  0
  1 28  1  0
  1 29  1  0
  1 30  1  0
  2 31  1  6
  3 32  1  0
  3 33  1  0
  5 34  1  0
  5 35  1  0
  5 36  1  0
  6 37  1  0
  6 38  1  0
  6 39  1  0
 11 40  1  0
 13 41  1  0
 15 42  1  0
 16 43  1  0
 17 44  1  0
 21 45  1  0
 23 46  1  0
M  END
$$$$
