@<TRIPOS>MOLECULE
*****
 46 48 0 0 0
SMALL
GASTEIGER

@<TRIPOS>ATOM
      1 C           2.4228    0.8629   -1.8129 C.3     1  UNL1       -0.0265
      2 C           2.7160    2.2200   -1.1792 C.3     1  UNL1        0.1117
      3 C           3.2692    2.0564    0.1968 C.3     1  UNL1        0.0352
      4 N           4.4812    1.2812    0.2481 N.3     1  UNL1       -0.3049
      5 C           4.9238    1.0724    1.6182 C.3     1  UNL1       -0.0129
      6 C           5.5473    1.7978   -0.5745 C.3     1  UNL1       -0.0129
      7 O           1.5274    2.9851   -1.1828 O.3     1  UNL1       -0.4701
      8 C           0.3611    2.3587   -0.6984 C.ar    1  UNL1        0.2538
      9 N           0.3861    1.1185   -0.2164 N.ar    1  UNL1       -0.1938
     10 C          -0.7349    0.4839    0.2629 C.ar    1  UNL1        0.1461
     11 N          -0.5921   -0.8070    0.7964 N.pl3   1  UNL1       -0.2831
     12 C          -1.6158   -1.7557    0.8500 C.ar    1  UNL1        0.1245
     13 C          -2.6840   -1.6896   -0.0073 C.ar    1  UNL1       -0.0138
     14 C          -3.6916   -2.6350    0.0958 C.ar    1  UNL1       -0.0118
     15 C          -4.8052   -2.6332   -0.7439 C.ar    1  UNL1       -0.0538
     16 C          -5.8065   -3.5616   -0.6574 C.ar    1  UNL1       -0.0598
     17 C          -5.7380   -4.5564    0.2926 C.ar    1  UNL1       -0.0427
     18 C          -4.6433   -4.6009    1.1559 C.ar    1  UNL1        0.0501
     19 CL         -4.4784   -5.8321    2.3802 Cl      1  UNL1       -0.0829
     20 C          -3.6624   -3.6448    1.0297 C.ar    1  UNL1        0.0187
     21 C          -2.5416   -3.6458    1.8666 C.ar    1  UNL1        0.0388
     22 N          -1.5851   -2.7407    1.7617 N.ar    1  UNL1       -0.2395
     23 C          -1.8876    1.2283    0.2084 C.ar    1  UNL1        0.0693
     24 N          -1.9450    2.4977   -0.2785 N.ar    1  UNL1       -0.2364
     25 C          -0.8338    3.0740   -0.7340 C.ar    1  UNL1        0.2019
     26 C          -0.7827    4.4166   -1.2824 C.1     1  UNL1        0.1246
     27 N          -0.7498    5.4826   -1.7378 N.1     1  UNL1       -0.1891
     28 H           3.1405    0.6203   -2.6171 H       1  UNL1        0.0266
     29 H           1.4321    0.9283   -2.2935 H       1  UNL1        0.0266
     30 H           2.4009    0.0450   -1.0772 H       1  UNL1        0.0266
     31 H           3.4454    2.6962   -1.8761 H       1  UNL1        0.0743
     32 H           2.5117    1.4865    0.8029 H       1  UNL1        0.0462
     33 H           3.3666    3.0325    0.7157 H       1  UNL1        0.0462
     34 H           4.0150    0.9628    2.2713 H       1  UNL1        0.0391
     35 H           5.5674    1.8577    2.0142 H       1  UNL1        0.0391
     36 H           5.4174    0.0723    1.6346 H       1  UNL1        0.0391
     37 H           6.4865    1.9833    0.0217 H       1  UNL1        0.0391
     38 H           5.8416    1.0088   -1.3118 H       1  UNL1        0.0391
     39 H           5.3141    2.7170   -1.1099 H       1  UNL1        0.0391
     40 H           0.3486   -1.0872    1.1841 H       1  UNL1        0.1550
     41 H          -2.7932   -0.9487   -0.8032 H       1  UNL1        0.0658
     42 H          -4.8423   -1.8458   -1.4844 H       1  UNL1        0.0624
     43 H          -6.6609   -3.5447   -1.3146 H       1  UNL1        0.0618
     44 H          -6.5230   -5.2972    0.3765 H       1  UNL1        0.0632
     45 H          -2.5281   -4.4539    2.6057 H       1  UNL1        0.0837
     46 H          -2.7975    0.7853    0.6033 H       1  UNL1        0.0865
@<TRIPOS>BOND
     1     1     2    1
     2     2     3    1
     3     3     4    1
     4     4     5    1
     5     4     6    1
     6     2     7    1
     7     7     8    1
     8     8     9   ar
     9     9    10   ar
    10    10    11    1
    11    11    12    1
    12    12    13   ar
    13    13    14   ar
    14    14    15   ar
    15    15    16   ar
    16    16    17   ar
    17    17    18   ar
    18    18    19    1
    19    18    20   ar
    20    20    21   ar
    21    21    22   ar
    22    10    23   ar
    23    23    24   ar
    24    24    25   ar
    25    25    26    1
    26    26    27    3
    27    25     8   ar
    28    22    12   ar
    29    20    14   ar
    30     1    28    1
    31     1    29    1
    32     1    30    1
    33     2    31    1
    34     3    32    1
    35     3    33    1
    36     5    34    1
    37     5    35    1
    38     5    36    1
    39     6    37    1
    40     6    38    1
    41     6    39    1
    42    11    40    1
    43    13    41    1
    44    15    42    1
    45    16    43    1
    46    17    44    1
    47    21    45    1
    48    23    46    1
