
     RDKit          3D

 37 39  0  0  0  0  0  0  0  0999 V2000
    5.8829   -2.5242    0.2580 Cl  0  0  0  0  0  0  0  0  0  0  0  0
    4.4425   -1.7029   -0.2978 C   0  0  0  0  0  0  0  0  0  0  0  0
    3.8617   -0.7360    0.4962 C   0  0  0  0  0  0  0  0  0  0  0  0
    2.7273   -0.1038    0.0350 C   0  0  0  0  0  0  0  0  0  0  0  0
    2.1562   -0.4007   -1.1824 C   0  0  0  0  0  0  0  0  0  0  0  0
    0.6797    0.4430   -1.7494 S   0  0  0  0  0  0  0  0  0  0  0  0
    0.1396    1.6385   -0.5362 C   0  0  0  0  0  0  0  0  0  0  0  0
    0.6806    2.9374   -0.5865 C   0  0  0  0  0  0  0  0  0  0  0  0
    0.2698    3.8365    0.3543 C   0  0  0  0  0  0  0  0  0  0  0  0
   -0.6453    3.5187    1.3389 C   0  0  0  0  0  0  0  0  0  0  0  0
   -1.1492    2.2451    1.3541 C   0  0  0  0  0  0  0  0  0  0  0  0
   -0.7762    1.2534    0.4154 C   0  0  0  0  0  0  0  0  0  0  0  0
   -1.3707   -0.0130    0.4838 N   0  0  0  0  0  0  0  0  0  0  0  0
   -2.0994   -0.4776    1.6408 C   0  0  0  0  0  0  0  0  0  0  0  0
   -3.5538   -0.5231    1.1742 C   0  0  0  0  0  0  0  0  0  0  0  0
   -3.6578   -1.4761    0.1056 N   0  0  0  0  0  0  0  0  0  0  0  0
   -2.4406   -2.0130   -0.3936 C   0  0  0  0  0  0  0  0  0  0  0  0
   -1.3494   -0.9557   -0.6034 C   0  0  0  0  0  0  0  0  0  0  0  0
    2.7445   -1.3634   -1.9601 C   0  0  0  0  0  0  0  0  0  0  0  0
    2.0999   -1.8184   -3.5261 Cl  0  0  0  0  0  0  0  0  0  0  0  0
    3.8981   -2.0238   -1.5190 C   0  0  0  0  0  0  0  0  0  0  0  0
    4.3048   -0.4906    1.4648 H   0  0  0  0  0  0  0  0  0  0  0  0
    2.2765    0.6417    0.6433 H   0  0  0  0  0  0  0  0  0  0  0  0
    1.3818    3.1352   -1.3631 H   0  0  0  0  0  0  0  0  0  0  0  0
    0.6751    4.8484    0.3352 H   0  0  0  0  0  0  0  0  0  0  0  0
   -0.9320    4.2732    2.0569 H   0  0  0  0  0  0  0  0  0  0  0  0
   -1.8664    1.9936    2.1153 H   0  0  0  0  0  0  0  0  0  0  0  0
   -1.8116   -1.5656    1.7972 H   0  0  0  0  0  0  0  0  0  0  0  0
   -1.9445    0.0734    2.5604 H   0  0  0  0  0  0  0  0  0  0  0  0
   -4.2330   -0.7616    2.0164 H   0  0  0  0  0  0  0  0  0  0  0  0
   -3.8483    0.4767    0.7409 H   0  0  0  0  0  0  0  0  0  0  0  0
   -4.2369   -2.2713    0.4564 H   0  0  0  0  0  0  0  0  0  0  0  0
   -2.6274   -2.4612   -1.3889 H   0  0  0  0  0  0  0  0  0  0  0  0
   -2.0234   -2.8529    0.2295 H   0  0  0  0  0  0  0  0  0  0  0  0
   -1.6236   -0.4711   -1.5678 H   0  0  0  0  0  0  0  0  0  0  0  0
   -0.4110   -1.5214   -0.6290 H   0  0  0  0  0  0  0  0  0  0  0  0
    4.3795   -2.7874   -2.1165 H   0  0  0  0  0  0  0  0  0  0  0  0
  1  2  1  0
  2  3  2  0
  3  4  1  0
  4  5  2  0
  5  6  1  0
  6  7  1  0
  7  8  2  0
  8  9  1  0
  9 10  2  0
 10 11  1  0
 11 12  2  0
 12 13  1  0
 13 14  1  0
 14 15  1  0
 15 16  1  0
 16 17  1  0
 17 18  1  0
  5 19  1  0
 19 20  1  0
 19 21  2  0
 21  2  1  0
 12  7  1  0
 18 13  1  0
  3 22  1  0
  4 23  1  0
  8 24  1  0
  9 25  1  0
 10 26  1  0
 11 27  1  0
 14 28  1  0
 14 29  1  0
 15 30  1  0
 15 31  1  0
 16 32  1  0
 17 33  1  0
 17 34  1  0
 18 35  1  0
 18 36  1  0
 21 37  1  0
M  END
$$$$
