@<TRIPOS>MOLECULE
*****
 37 39 0 0 0
SMALL
GASTEIGER

@<TRIPOS>ATOM
      1 CL          5.8829   -2.5242    0.2580 Cl      1  UNL1       -0.0835
      2 C           4.4425   -1.7029   -0.2978 C.ar    1  UNL1        0.0424
      3 C           3.8617   -0.7360    0.4962 C.ar    1  UNL1       -0.0423
      4 C           2.7273   -0.1038    0.0350 C.ar    1  UNL1       -0.0452
      5 C           2.1562   -0.4007   -1.1824 C.ar    1  UNL1        0.0312
      6 S           0.6797    0.4430   -1.7494 S.3     1  UNL1       -0.0861
      7 C           0.1396    1.6385   -0.5362 C.ar    1  UNL1        0.0338
      8 C           0.6806    2.9374   -0.5865 C.ar    1  UNL1       -0.0462
      9 C           0.2698    3.8365    0.3543 C.ar    1  UNL1       -0.0606
     10 C          -0.6453    3.5187    1.3389 C.ar    1  UNL1       -0.0599
     11 C          -1.1492    2.2451    1.3541 C.ar    1  UNL1       -0.0396
     12 C          -0.7762    1.2534    0.4154 C.ar    1  UNL1        0.0437
     13 N          -1.3707   -0.0130    0.4838 N.pl3   1  UNL1       -0.3266
     14 C          -2.0994   -0.4776    1.6408 C.3     1  UNL1        0.0248
     15 C          -3.5538   -0.5231    1.1742 C.3     1  UNL1        0.0117
     16 N          -3.6578   -1.4761    0.1056 N.3     1  UNL1       -0.3130
     17 C          -2.4406   -2.0130   -0.3936 C.3     1  UNL1        0.0117
     18 C          -1.3494   -0.9557   -0.6034 C.3     1  UNL1        0.0248
     19 C           2.7445   -1.3634   -1.9601 C.ar    1  UNL1        0.0561
     20 CL          2.0999   -1.8184   -3.5261 Cl      1  UNL1       -0.0823
     21 C           3.8981   -2.0238   -1.5190 C.ar    1  UNL1       -0.0240
     22 H           4.3048   -0.4906    1.4648 H       1  UNL1        0.0632
     23 H           2.2765    0.6417    0.6433 H       1  UNL1        0.0629
     24 H           1.3818    3.1352   -1.3631 H       1  UNL1        0.0629
     25 H           0.6751    4.8484    0.3352 H       1  UNL1        0.0618
     26 H          -0.9320    4.2732    2.0569 H       1  UNL1        0.0618
     27 H          -1.8664    1.9936    2.1153 H       1  UNL1        0.0636
     28 H          -1.8116   -1.5656    1.7972 H       1  UNL1        0.0476
     29 H          -1.9445    0.0734    2.5604 H       1  UNL1        0.0476
     30 H          -4.2330   -0.7616    2.0164 H       1  UNL1        0.0439
     31 H          -3.8483    0.4767    0.7409 H       1  UNL1        0.0439
     32 H          -4.2369   -2.2713    0.4564 H       1  UNL1        0.1220
     33 H          -2.6274   -2.4612   -1.3889 H       1  UNL1        0.0439
     34 H          -2.0234   -2.8529    0.2295 H       1  UNL1        0.0439
     35 H          -1.6236   -0.4711   -1.5678 H       1  UNL1        0.0476
     36 H          -0.4110   -1.5214   -0.6290 H       1  UNL1        0.0476
     37 H           4.3795   -2.7874   -2.1165 H       1  UNL1        0.0647
@<TRIPOS>BOND
     1     1     2    1
     2     2     3   ar
     3     3     4   ar
     4     4     5   ar
     5     5     6    1
     6     6     7    1
     7     7     8   ar
     8     8     9   ar
     9     9    10   ar
    10    10    11   ar
    11    11    12   ar
    12    12    13    1
    13    13    14    1
    14    14    15    1
    15    15    16    1
    16    16    17    1
    17    17    18    1
    18     5    19   ar
    19    19    20    1
    20    19    21   ar
    21    21     2   ar
    22    12     7   ar
    23    18    13    1
    24     3    22    1
    25     4    23    1
    26     8    24    1
    27     9    25    1
    28    10    26    1
    29    11    27    1
    30    14    28    1
    31    14    29    1
    32    15    30    1
    33    15    31    1
    34    16    32    1
    35    17    33    1
    36    17    34    1
    37    18    35    1
    38    18    36    1
    39    21    37    1
