@<TRIPOS>MOLECULE
*****
 70 73 0 0 0
SMALL
GASTEIGER

@<TRIPOS>ATOM
      1 C           5.9544    0.7073    5.5960 C.3     1  UNL1        0.0804
      2 O           4.7875    1.4694    5.8551 O.3     1  UNL1       -0.4796
      3 C           3.7521    1.4653    4.9026 C.ar    1  UNL1        0.2151
      4 C           2.6121    2.2074    5.1517 C.ar    1  UNL1        0.0006
      5 C           1.6003    2.2115    4.2345 C.ar    1  UNL1       -0.0468
      6 C           1.7816    1.4456    3.0681 C.ar    1  UNL1        0.0137
      7 C           0.6627    1.5055    2.1463 C.ar    1  UNL1       -0.0017
      8 C           0.5560    2.5352    1.2287 C.ar    1  UNL1       -0.0525
      9 C          -0.5465    2.6016    0.4045 C.ar    1  UNL1       -0.0490
     10 C          -1.5776    1.6806    0.4385 C.ar    1  UNL1        0.0375
     11 C          -2.7313    1.7816   -0.4491 C.2     1  UNL1        0.2444
     12 O          -2.7504    2.7529   -1.2512 O.2     1  UNL1       -0.2702
     13 N          -3.8094    0.8950   -0.4819 N.am    1  UNL1       -0.3058
     14 CA         -4.9321    1.0317   -1.3763 C.3     1  UNL1        0.0513
     15 C          -6.2189    1.3121   -0.6514 C.3     1  UNL1        0.0631
     16 O          -6.5880    0.3351    0.2463 O.3     1  UNL1       -0.3932
     17 C          -5.0427   -0.0797   -2.3850 C.3     1  UNL1       -0.0172
     18 C          -3.7694   -0.1021   -3.2412 C.3     1  UNL1       -0.0583
     19 C          -6.1839    0.2711   -3.3187 C.3     1  UNL1       -0.0583
     20 C          -5.1924   -1.4403   -1.8059 C.3     1  UNL1       -0.0583
     21 C          -1.4431    0.6669    1.3623 C.ar    1  UNL1       -0.0351
     22 C          -0.3437    0.5681    2.2109 C.ar    1  UNL1        0.0673
     23 C          -0.3013   -0.5597    3.1637 C.2     1  UNL1        0.3374
     24 O           0.6595   -0.7074    3.9558 O.2     1  UNL1       -0.2451
     25 O          -1.3299   -1.4849    3.2026 O.3     1  UNL1       -0.4771
     26 C           2.8906    0.7102    2.8022 C.ar    1  UNL1        0.1372
     27 C           3.1805   -0.0998    1.6382 C.2     1  UNL1        0.2673
     28 O           4.2717   -0.7842    1.6867 O.2     1  UNL1       -0.2682
     29 N           2.4649   -0.2634    0.4557 N.am    1  UNL1       -0.2802
     30 C           2.8992   -1.1233   -0.6200 C.ar    1  UNL1        0.0358
     31 C           2.5676   -2.4352   -0.7318 C.ar    1  UNL1       -0.0383
     32 C           3.0416   -3.1818   -1.8147 C.ar    1  UNL1       -0.0324
     33 C           3.8445   -2.6090   -2.7776 C.ar    1  UNL1        0.0908
     34 N           4.4382   -3.0604   -3.9046 N.ar    1  UNL1       -0.2148
     35 C           5.1247   -2.0410   -4.4770 C.ar    1  UNL1        0.1913
     36 N           5.8797   -2.1139   -5.6722 N.pl3   1  UNL1       -0.3290
     37 N           4.9555   -0.9680   -3.7083 N.ar    1  UNL1       -0.3262
     38 C           4.1766   -1.2964   -2.6662 C.ar    1  UNL1        0.0692
     39 C           3.7021   -0.5548   -1.5850 C.ar    1  UNL1       -0.0150
     40 N           3.8603    0.7654    3.7844 N.ar    1  UNL1       -0.2076
     41 H           6.6649    1.2917    4.9525 H       1  UNL1        0.0660
     42 H           6.4463    0.5370    6.5792 H       1  UNL1        0.0660
     43 H           5.7395   -0.2329    5.0652 H       1  UNL1        0.0660
     44 H           2.5226    2.7803    6.0662 H       1  UNL1        0.0671
     45 H           0.6834    2.7822    4.3893 H       1  UNL1        0.0626
     46 H           1.3257    3.3106    1.1312 H       1  UNL1        0.0624
     47 H          -0.6474    3.4033   -0.3225 H       1  UNL1        0.0625
     48 H          -3.7929    0.0747    0.1953 H       1  UNL1        0.1494
     49 HA         -4.7281    1.9626   -1.9867 H       1  UNL1        0.0526
     50 H1         -6.0795    2.3138   -0.1511 H       1  UNL1        0.0576
     51 H2         -7.0697    1.4632   -1.3431 H       1  UNL1        0.0576
     52 H          -6.9399    0.7527    1.0494 H       1  UNL1        0.2095
     53 H          -3.8441   -0.9352   -3.9776 H       1  UNL1        0.0235
     54 H          -3.6917    0.8385   -3.8113 H       1  UNL1        0.0235
     55 H          -2.9031   -0.1917   -2.5701 H       1  UNL1        0.0235
     56 H          -5.9336    0.0421   -4.3840 H       1  UNL1        0.0235
     57 H          -7.1006   -0.3156   -3.0946 H       1  UNL1        0.0235
     58 H          -6.3826    1.3614   -3.2892 H       1  UNL1        0.0235
     59 H          -5.6925   -2.0810   -2.5913 H       1  UNL1        0.0235
     60 H          -4.1779   -1.9122   -1.6887 H       1  UNL1        0.0235
     61 H          -5.8056   -1.5301   -0.9123 H       1  UNL1        0.0235
     62 H          -2.2097   -0.0816    1.4395 H       1  UNL1        0.0633
     63 H          -1.3152   -2.1761    3.9306 H       1  UNL1        0.2954
     64 H           1.5995    0.2322    0.3070 H       1  UNL1        0.1552
     65 H           1.9417   -2.8821    0.0188 H       1  UNL1        0.0637
     66 H           2.7967   -4.2272   -1.9337 H       1  UNL1        0.0640
     67 H           6.2437   -3.0216   -6.0233 H       1  UNL1        0.1451
     68 H           6.0660   -1.2419   -6.1969 H       1  UNL1        0.1451
     69 H           5.3791   -0.0195   -3.9098 H       1  UNL1        0.1686
     70 H           4.0019    0.4811   -1.5547 H       1  UNL1        0.0657
@<TRIPOS>BOND
     1     1     2    1
     2     2     3    1
     3     3     4   ar
     4     4     5   ar
     5     5     6   ar
     6     6     7    1
     7     7     8   ar
     8     8     9   ar
     9     9    10   ar
    10    10    11    1
    11    11    12    2
    12    11    13   am
    13    13    14    1
    14    14    15    1
    15    15    16    1
    16    14    17    1
    17    17    18    1
    18    17    19    1
    19    17    20    1
    20    10    21   ar
    21    21    22   ar
    22    22    23    1
    23    23    24    2
    24    23    25    1
    25     6    26   ar
    26    26    27    1
    27    27    28    2
    28    27    29   am
    29    29    30    1
    30    30    31   ar
    31    31    32   ar
    32    32    33   ar
    33    33    34   ar
    34    34    35   ar
    35    35    36    1
    36    35    37   ar
    37    37    38   ar
    38    38    39   ar
    39    26    40   ar
    40    40     3   ar
    41    22     7   ar
    42    39    30   ar
    43    38    33   ar
    44     1    41    1
    45     1    42    1
    46     1    43    1
    47     4    44    1
    48     5    45    1
    49     8    46    1
    50     9    47    1
    51    13    48    1
    52    14    49    1
    53    15    50    1
    54    15    51    1
    55    16    52    1
    56    18    53    1
    57    18    54    1
    58    18    55    1
    59    19    56    1
    60    19    57    1
    61    19    58    1
    62    20    59    1
    63    20    60    1
    64    20    61    1
    65    21    62    1
    66    25    63    1
    67    29    64    1
    68    31    65    1
    69    32    66    1
    70    36    67    1
    71    36    68    1
    72    37    69    1
    73    39    70    1
