
     RDKit          3D

 70 73  0  0  0  0  0  0  0  0999 V2000
    5.9544    0.7073    5.5960 C   0  0  0  0  0  0  0  0  0  0  0  0
    4.7875    1.4694    5.8551 O   0  0  0  0  0  0  0  0  0  0  0  0
    3.7521    1.4653    4.9026 C   0  0  0  0  0  0  0  0  0  0  0  0
    2.6121    2.2074    5.1517 C   0  0  0  0  0  0  0  0  0  0  0  0
    1.6003    2.2115    4.2345 C   0  0  0  0  0  0  0  0  0  0  0  0
    1.7816    1.4456    3.0681 C   0  0  0  0  0  0  0  0  0  0  0  0
    0.6627    1.5055    2.1463 C   0  0  0  0  0  0  0  0  0  0  0  0
    0.5560    2.5352    1.2287 C   0  0  0  0  0  0  0  0  0  0  0  0
   -0.5465    2.6016    0.4045 C   0  0  0  0  0  0  0  0  0  0  0  0
   -1.5776    1.6806    0.4385 C   0  0  0  0  0  0  0  0  0  0  0  0
   -2.7313    1.7816   -0.4491 C   0  0  0  0  0  0  0  0  0  0  0  0
   -2.7504    2.7529   -1.2512 O   0  0  0  0  0  0  0  0  0  0  0  0
   -3.8094    0.8950   -0.4819 N   0  0  0  0  0  0  0  0  0  0  0  0
   -4.9321    1.0317   -1.3763 C   0  0  2  0  0  0  0  0  0  0  0  0
   -6.2189    1.3121   -0.6514 C   0  0  0  0  0  0  0  0  0  0  0  0
   -6.5880    0.3351    0.2463 O   0  0  0  0  0  0  0  0  0  0  0  0
   -5.0427   -0.0797   -2.3850 C   0  0  0  0  0  0  0  0  0  0  0  0
   -3.7694   -0.1021   -3.2412 C   0  0  0  0  0  0  0  0  0  0  0  0
   -6.1839    0.2711   -3.3187 C   0  0  0  0  0  0  0  0  0  0  0  0
   -5.1924   -1.4403   -1.8059 C   0  0  0  0  0  0  0  0  0  0  0  0
   -1.4431    0.6669    1.3623 C   0  0  0  0  0  0  0  0  0  0  0  0
   -0.3437    0.5681    2.2109 C   0  0  0  0  0  0  0  0  0  0  0  0
   -0.3013   -0.5597    3.1637 C   0  0  0  0  0  0  0  0  0  0  0  0
    0.6595   -0.7074    3.9558 O   0  0  0  0  0  0  0  0  0  0  0  0
   -1.3299   -1.4849    3.2026 O   0  0  0  0  0  0  0  0  0  0  0  0
    2.8906    0.7102    2.8022 C   0  0  0  0  0  0  0  0  0  0  0  0
    3.1805   -0.0998    1.6382 C   0  0  0  0  0  0  0  0  0  0  0  0
    4.2717   -0.7842    1.6867 O   0  0  0  0  0  0  0  0  0  0  0  0
    2.4649   -0.2634    0.4557 N   0  0  0  0  0  0  0  0  0  0  0  0
    2.8992   -1.1233   -0.6200 C   0  0  0  0  0  0  0  0  0  0  0  0
    2.5676   -2.4352   -0.7318 C   0  0  0  0  0  0  0  0  0  0  0  0
    3.0416   -3.1818   -1.8147 C   0  0  0  0  0  0  0  0  0  0  0  0
    3.8445   -2.6090   -2.7776 C   0  0  0  0  0  0  0  0  0  0  0  0
    4.4382   -3.0604   -3.9046 N   0  0  0  0  0  0  0  0  0  0  0  0
    5.1247   -2.0410   -4.4770 C   0  0  0  0  0  0  0  0  0  0  0  0
    5.8797   -2.1139   -5.6722 N   0  0  0  0  0  0  0  0  0  0  0  0
    4.9555   -0.9680   -3.7083 N   0  0  0  0  0  0  0  0  0  0  0  0
    4.1766   -1.2964   -2.6662 C   0  0  0  0  0  0  0  0  0  0  0  0
    3.7021   -0.5548   -1.5850 C   0  0  0  0  0  0  0  0  0  0  0  0
    3.8603    0.7654    3.7844 N   0  0  0  0  0  0  0  0  0  0  0  0
    6.6649    1.2917    4.9525 H   0  0  0  0  0  0  0  0  0  0  0  0
    6.4463    0.5370    6.5792 H   0  0  0  0  0  0  0  0  0  0  0  0
    5.7395   -0.2329    5.0652 H   0  0  0  0  0  0  0  0  0  0  0  0
    2.5226    2.7803    6.0662 H   0  0  0  0  0  0  0  0  0  0  0  0
    0.6834    2.7822    4.3893 H   0  0  0  0  0  0  0  0  0  0  0  0
    1.3257    3.3106    1.1312 H   0  0  0  0  0  0  0  0  0  0  0  0
   -0.6474    3.4033   -0.3225 H   0  0  0  0  0  0  0  0  0  0  0  0
   -3.7929    0.0747    0.1953 H   0  0  0  0  0  0  0  0  0  0  0  0
   -4.7281    1.9626   -1.9867 H   0  0  0  0  0  0  0  0  0  0  0  0
   -6.0795    2.3138   -0.1511 H   0  0  0  0  0  0  0  0  0  0  0  0
   -7.0697    1.4632   -1.3431 H   0  0  0  0  0  0  0  0  0  0  0  0
   -6.9399    0.7527    1.0494 H   0  0  0  0  0  0  0  0  0  0  0  0
   -3.8441   -0.9352   -3.9776 H   0  0  0  0  0  0  0  0  0  0  0  0
   -3.6917    0.8385   -3.8113 H   0  0  0  0  0  0  0  0  0  0  0  0
   -2.9031   -0.1917   -2.5701 H   0  0  0  0  0  0  0  0  0  0  0  0
   -5.9336    0.0421   -4.3840 H   0  0  0  0  0  0  0  0  0  0  0  0
   -7.1006   -0.3156   -3.0946 H   0  0  0  0  0  0  0  0  0  0  0  0
   -6.3826    1.3614   -3.2892 H   0  0  0  0  0  0  0  0  0  0  0  0
   -5.6925   -2.0810   -2.5913 H   0  0  0  0  0  0  0  0  0  0  0  0
   -4.1779   -1.9122   -1.6887 H   0  0  0  0  0  0  0  0  0  0  0  0
   -5.8056   -1.5301   -0.9123 H   0  0  0  0  0  0  0  0  0  0  0  0
   -2.2097   -0.0816    1.4395 H   0  0  0  0  0  0  0  0  0  0  0  0
   -1.3152   -2.1761    3.9306 H   0  0  0  0  0  0  0  0  0  0  0  0
    1.5995    0.2322    0.3070 H   0  0  0  0  0  0  0  0  0  0  0  0
    1.9417   -2.8821    0.0188 H   0  0  0  0  0  0  0  0  0  0  0  0
    2.7967   -4.2272   -1.9337 H   0  0  0  0  0  0  0  0  0  0  0  0
    6.2437   -3.0216   -6.0233 H   0  0  0  0  0  0  0  0  0  0  0  0
    6.0660   -1.2419   -6.1969 H   0  0  0  0  0  0  0  0  0  0  0  0
    5.3791   -0.0195   -3.9098 H   0  0  0  0  0  0  0  0  0  0  0  0
    4.0019    0.4811   -1.5547 H   0  0  0  0  0  0  0  0  0  0  0  0
  1  2  1  0
  2  3  1  0
  3  4  2  0
  4  5  1  0
  5  6  2  0
  6  7  1  0
  7  8  2  0
  8  9  1  0
  9 10  2  0
 10 11  1  0
 11 12  2  0
 11 13  1  0
 13 14  1  0
 14 15  1  0
 15 16  1  0
 14 17  1  0
 17 18  1  0
 17 19  1  0
 17 20  1  0
 10 21  1  0
 21 22  2  0
 22 23  1  0
 23 24  2  0
 23 25  1  0
  6 26  1  0
 26 27  1  0
 27 28  2  0
 27 29  1  0
 29 30  1  0
 30 31  2  0
 31 32  1  0
 32 33  2  0
 33 34  1  0
 34 35  2  0
 35 36  1  0
 35 37  1  0
 37 38  1  0
 38 39  2  0
 26 40  2  0
 40  3  1  0
 22  7  1  0
 39 30  1  0
 38 33  1  0
  1 41  1  0
  1 42  1  0
  1 43  1  0
  4 44  1  0
  5 45  1  0
  8 46  1  0
  9 47  1  0
 13 48  1  0
 14 49  1  6
 15 50  1  0
 15 51  1  0
 16 52  1  0
 18 53  1  0
 18 54  1  0
 18 55  1  0
 19 56  1  0
 19 57  1  0
 19 58  1  0
 20 59  1  0
 20 60  1  0
 20 61  1  0
 21 62  1  0
 25 63  1  0
 29 64  1  0
 31 65  1  0
 32 66  1  0
 36 67  1  0
 36 68  1  0
 37 69  1  0
 39 70  1  0
M  END
$$$$
