@<TRIPOS>MOLECULE
*****
 57 60 0 0 0
SMALL
GASTEIGER

@<TRIPOS>ATOM
      1 O          -1.0556    2.5469    0.8017 O.2     1  UNL1       -0.2699
      2 C          -0.7466    1.3473    1.0956 C.2     1  UNL1        0.2483
      3 N          -1.4529    0.7775    2.1800 N.am    1  UNL1       -0.2808
      4 C          -2.4539    1.5445    2.8817 C.ar    1  UNL1        0.0459
      5 C          -2.1376    2.3246    3.9764 C.ar    1  UNL1       -0.0384
      6 C          -3.1078    3.0602    4.6470 C.ar    1  UNL1       -0.0416
      7 C          -4.4106    3.0013    4.1997 C.ar    1  UNL1        0.0418
      8 CL         -5.6612    3.9140    5.0185 Cl      1  UNL1       -0.0835
      9 C          -4.7181    2.2067    3.0889 C.ar    1  UNL1       -0.0295
     10 C          -3.7536    1.4819    2.4307 C.ar    1  UNL1        0.0596
     11 C          -4.0441    0.6451    1.2706 C.2     1  UNL1        0.2511
     12 O          -3.1312   -0.0105    0.6871 O.2     1  UNL1       -0.2697
     13 N          -5.3423    0.4964    0.7089 N.am    1  UNL1       -0.2663
     14 C          -5.5887   -0.3289   -0.4239 C.ar    1  UNL1        0.1252
     15 C          -6.8528   -0.4573   -0.9527 C.ar    1  UNL1       -0.0201
     16 C          -7.1101   -1.2598   -2.0591 C.ar    1  UNL1       -0.0387
     17 C          -6.0700   -1.9463   -2.6429 C.ar    1  UNL1        0.0592
     18 CL         -6.3443   -2.9700   -4.0390 Cl      1  UNL1       -0.0820
     19 C          -4.8144   -1.8013   -2.0953 C.ar    1  UNL1        0.0480
     20 N          -4.5952   -1.0122   -1.0171 N.ar    1  UNL1       -0.2387
     21 C           0.2785    0.6680    0.3204 C.ar    1  UNL1        0.0370
     22 C           0.6602   -0.6263    0.5817 C.ar    1  UNL1       -0.0493
     23 C           1.6399   -1.2370   -0.1797 C.ar    1  UNL1       -0.0566
     24 C           2.2688   -0.5795   -1.2232 C.ar    1  UNL1       -0.0333
     25 C           3.3181   -1.2896   -2.0106 C.3     1  UNL1        0.0240
     26 N           4.5906   -1.0617   -1.3931 N.3     1  UNL1       -0.2982
     27 C           4.9360    0.3509   -1.3493 C.3     1  UNL1       -0.0008
     28 C           6.4300    0.5279   -1.1023 C.3     1  UNL1       -0.0402
     29 C           6.8483   -0.6364   -0.2231 C.3     1  UNL1       -0.0507
     30 C           6.7790   -1.9437   -0.9721 C.3     1  UNL1       -0.0402
     31 C           5.6543   -1.8492   -1.9769 C.3     1  UNL1       -0.0008
     32 C           1.8862    0.7184   -1.4854 C.ar    1  UNL1       -0.0566
     33 C           0.9040    1.3246   -0.7187 C.ar    1  UNL1       -0.0493
     34 H          -1.2362   -0.2051    2.4612 H       1  UNL1        0.1552
     35 H          -1.1225    2.3686    4.3225 H       1  UNL1        0.0637
     36 H          -2.8247    3.6621    5.5028 H       1  UNL1        0.0633
     37 H          -5.7447    2.1692    2.7480 H       1  UNL1        0.0640
     38 H          -6.1444    1.0054    1.1355 H       1  UNL1        0.1566
     39 H          -7.6523    0.0894   -0.4792 H       1  UNL1        0.0652
     40 H          -8.1035   -1.3591   -2.4726 H       1  UNL1        0.0634
     41 H          -3.9815   -2.3205   -2.5237 H       1  UNL1        0.0845
     42 H           0.1869   -1.1641    1.3896 H       1  UNL1        0.0625
     43 H           1.9305   -2.2546    0.0363 H       1  UNL1        0.0621
     44 H           3.1093   -2.3546   -2.1514 H       1  UNL1        0.0476
     45 H           3.2996   -0.8160   -3.0337 H       1  UNL1        0.0476
     46 H           4.7287    0.7571   -2.3593 H       1  UNL1        0.0427
     47 H           4.3773    0.9084   -0.5936 H       1  UNL1        0.0427
     48 H           6.5637    1.4617   -0.5516 H       1  UNL1        0.0278
     49 H           6.9440    0.4967   -2.0838 H       1  UNL1        0.0278
     50 H           6.2555   -0.6495    0.7052 H       1  UNL1        0.0266
     51 H           7.9077   -0.4480    0.0543 H       1  UNL1        0.0266
     52 H           7.7608   -2.1042   -1.4662 H       1  UNL1        0.0278
     53 H           6.5743   -2.7839   -0.2706 H       1  UNL1        0.0278
     54 H           6.0685   -1.2506   -2.8381 H       1  UNL1        0.0427
     55 H           5.3125   -2.8277   -2.3243 H       1  UNL1        0.0427
     56 H           2.3797    1.2262   -2.3006 H       1  UNL1        0.0621
     57 H           0.6079    2.3472   -0.9314 H       1  UNL1        0.0625
@<TRIPOS>BOND
     1     1     2    2
     2     2     3   am
     3     3     4    1
     4     4     5   ar
     5     5     6   ar
     6     6     7   ar
     7     7     8    1
     8     7     9   ar
     9     9    10   ar
    10    10    11    1
    11    11    12    2
    12    11    13   am
    13    13    14    1
    14    14    15   ar
    15    15    16   ar
    16    16    17   ar
    17    17    18    1
    18    17    19   ar
    19    19    20   ar
    20     2    21    1
    21    21    22   ar
    22    22    23   ar
    23    23    24   ar
    24    24    25    1
    25    25    26    1
    26    26    27    1
    27    27    28    1
    28    28    29    1
    29    29    30    1
    30    30    31    1
    31    24    32   ar
    32    32    33   ar
    33    10     4   ar
    34    20    14   ar
    35    33    21   ar
    36    31    26    1
    37     3    34    1
    38     5    35    1
    39     6    36    1
    40     9    37    1
    41    13    38    1
    42    15    39    1
    43    16    40    1
    44    19    41    1
    45    22    42    1
    46    23    43    1
    47    25    44    1
    48    25    45    1
    49    27    46    1
    50    27    47    1
    51    28    48    1
    52    28    49    1
    53    29    50    1
    54    29    51    1
    55    30    52    1
    56    30    53    1
    57    31    54    1
    58    31    55    1
    59    32    56    1
    60    33    57    1
