
     RDKit          3D

 53 57  0  0  0  0  0  0  0  0999 V2000
   -2.6989   -1.2902   -2.8376 C   0  0  0  0  0  0  0  0  0  0  0  0
   -2.8331   -1.0488   -1.3967 N   0  0  0  0  0  0  0  0  0  0  0  0
   -1.8975   -1.2307   -0.4723 C   0  0  0  0  0  0  0  0  0  0  0  0
   -2.4447   -0.8836    0.7417 C   0  0  0  0  0  0  0  0  0  0  0  0
   -1.6927   -0.9472    1.9960 C   0  0  0  0  0  0  0  0  0  0  0  0
   -0.4575   -0.5139    2.1447 C   0  0  0  0  0  0  0  0  0  0  0  0
    0.4741    0.1082    1.2226 C   0  0  0  0  0  0  0  0  0  0  0  0
    1.8034   -0.2670    1.0584 C   0  0  0  0  0  0  0  0  0  0  0  0
    2.3980    0.5191    0.1507 N   0  0  0  0  0  0  0  0  0  0  0  0
    3.7788    0.4362   -0.2829 C   0  0  0  0  0  0  0  0  0  0  0  0
    3.9569   -0.4754   -1.4664 C   0  0  0  0  0  0  0  0  0  0  0  0
    5.6808   -0.5489   -1.9708 S   0  0  0  0  0  0  0  0  0  0  0  0
    6.7208   -1.3584   -0.7982 C   0  0  0  0  0  0  0  0  0  0  0  0
    6.2999   -1.9507    0.2454 N   0  0  0  0  0  0  0  0  0  0  0  0
    8.1281   -1.3849   -1.0232 N   0  0  0  0  0  0  0  0  0  0  0  0
    1.4787    1.3998   -0.2778 C   0  0  0  0  0  0  0  0  0  0  0  0
    1.5737    2.4217   -1.1928 C   0  0  0  0  0  0  0  0  0  0  0  0
    0.4902    3.2201   -1.4745 C   0  0  0  0  0  0  0  0  0  0  0  0
   -0.7056    2.9827   -0.8220 C   0  0  0  0  0  0  0  0  0  0  0  0
   -0.8253    1.9642    0.0994 C   0  0  0  0  0  0  0  0  0  0  0  0
    0.2670    1.1707    0.3717 C   0  0  0  0  0  0  0  0  0  0  0  0
   -0.0767   -0.7778    3.5455 C   0  0  0  0  0  0  0  0  0  0  0  0
    1.0327   -0.5103    4.0977 O   0  0  0  0  0  0  0  0  0  0  0  0
   -1.1614   -1.3914    4.2034 N   0  0  0  0  0  0  0  0  0  0  0  0
   -2.1922   -1.5042    3.2288 C   0  0  0  0  0  0  0  0  0  0  0  0
   -3.3002   -2.0140    3.4950 O   0  0  0  0  0  0  0  0  0  0  0  0
   -3.7348   -0.4875    0.5203 C   0  0  0  0  0  0  0  0  0  0  0  0
   -4.7369   -0.0392    1.3290 C   0  0  0  0  0  0  0  0  0  0  0  0
   -5.9814    0.3047    0.8088 C   0  0  0  0  0  0  0  0  0  0  0  0
   -6.2229    0.1990   -0.5313 C   0  0  0  0  0  0  0  0  0  0  0  0
   -5.1902   -0.2596   -1.3463 C   0  0  0  0  0  0  0  0  0  0  0  0
   -3.9589   -0.6007   -0.8393 C   0  0  0  0  0  0  0  0  0  0  0  0
   -1.9019   -1.9997   -3.0718 H   0  0  0  0  0  0  0  0  0  0  0  0
   -2.5880   -0.3129   -3.3509 H   0  0  0  0  0  0  0  0  0  0  0  0
   -3.6692   -1.7024   -3.1852 H   0  0  0  0  0  0  0  0  0  0  0  0
   -0.8963   -1.5837   -0.6270 H   0  0  0  0  0  0  0  0  0  0  0  0
    2.2681   -1.0805    1.5984 H   0  0  0  0  0  0  0  0  0  0  0  0
    4.4392    0.1818    0.5594 H   0  0  0  0  0  0  0  0  0  0  0  0
    4.1155    1.4623   -0.6290 H   0  0  0  0  0  0  0  0  0  0  0  0
    3.3270   -0.2068   -2.3140 H   0  0  0  0  0  0  0  0  0  0  0  0
    3.6465   -1.5189   -1.1605 H   0  0  0  0  0  0  0  0  0  0  0  0
    5.2983   -2.0081    0.4963 H   0  0  0  0  0  0  0  0  0  0  0  0
    8.6759   -0.5162   -0.9782 H   0  0  0  0  0  0  0  0  0  0  0  0
    8.5903   -2.2809   -1.2305 H   0  0  0  0  0  0  0  0  0  0  0  0
    2.5326    2.5684   -1.6757 H   0  0  0  0  0  0  0  0  0  0  0  0
    0.6254    4.0066   -2.2024 H   0  0  0  0  0  0  0  0  0  0  0  0
   -1.5646    3.6298   -1.0579 H   0  0  0  0  0  0  0  0  0  0  0  0
   -1.7775    1.8330    0.5866 H   0  0  0  0  0  0  0  0  0  0  0  0
   -1.2057   -1.7056    5.2137 H   0  0  0  0  0  0  0  0  0  0  0  0
   -4.5702    0.0605    2.3769 H   0  0  0  0  0  0  0  0  0  0  0  0
   -6.7567    0.6577    1.4837 H   0  0  0  0  0  0  0  0  0  0  0  0
   -7.1819    0.4612   -0.9535 H   0  0  0  0  0  0  0  0  0  0  0  0
   -5.3790   -0.3433   -2.4053 H   0  0  0  0  0  0  0  0  0  0  0  0
  1  2  1  0
  2  3  1  0
  3  4  2  0
  4  5  1  0
  5  6  2  0
  6  7  1  0
  7  8  2  0
  8  9  1  0
  9 10  1  0
 10 11  1  0
 11 12  1  0
 12 13  1  0
 13 14  2  3
 13 15  1  0
  9 16  1  0
 16 17  2  0
 17 18  1  0
 18 19  2  0
 19 20  1  0
 20 21  2  0
  6 22  1  0
 22 23  2  0
 22 24  1  0
 24 25  1  0
 25 26  2  0
  4 27  1  0
 27 28  2  0
 28 29  1  0
 29 30  2  0
 30 31  1  0
 31 32  2  0
 32  2  1  0
 25  5  1  0
 32 27  1  0
 21  7  1  0
 21 16  1  0
  1 33  1  0
  1 34  1  0
  1 35  1  0
  3 36  1  0
  8 37  1  0
 10 38  1  0
 10 39  1  0
 11 40  1  0
 11 41  1  0
 14 42  1  0
 15 43  1  0
 15 44  1  0
 17 45  1  0
 18 46  1  0
 19 47  1  0
 20 48  1  0
 24 49  1  0
 28 50  1  0
 29 51  1  0
 30 52  1  0
 31 53  1  0
M  END
$$$$
