@<TRIPOS>MOLECULE
*****
 53 57 0 0 0
SMALL
GASTEIGER

@<TRIPOS>ATOM
      1 C          -2.6989   -1.2902   -2.8376 C.3     1  UNL1        0.0119
      2 N          -2.8331   -1.0488   -1.3967 N.ar    1  UNL1       -0.3491
      3 C          -1.8975   -1.2307   -0.4723 C.ar    1  UNL1        0.0133
      4 C          -2.4447   -0.8836    0.7417 C.ar    1  UNL1        0.0131
      5 C          -1.6927   -0.9472    1.9960 C.2     1  UNL1        0.0590
      6 C          -0.4575   -0.5139    2.1447 C.2     1  UNL1        0.0590
      7 C           0.4741    0.1082    1.2226 C.ar    1  UNL1        0.0131
      8 C           1.8034   -0.2670    1.0584 C.ar    1  UNL1        0.0136
      9 N           2.3980    0.5191    0.1507 N.ar    1  UNL1       -0.3452
     10 C           3.7788    0.4362   -0.2829 C.3     1  UNL1        0.0327
     11 C           3.9569   -0.4754   -1.4664 C.3     1  UNL1        0.0189
     12 S           5.6808   -0.5489   -1.9708 S.3     1  UNL1       -0.0896
     13 C           6.7208   -1.3584   -0.7982 C.2     1  UNL1        0.1439
     14 N           6.2999   -1.9507    0.2454 N.2     1  UNL1       -0.2801
     15 N           8.1281   -1.3849   -1.0232 N.pl3   1  UNL1       -0.3382
     16 C           1.4787    1.3998   -0.2778 C.ar    1  UNL1        0.0497
     17 C           1.5737    2.4217   -1.1928 C.ar    1  UNL1       -0.0376
     18 C           0.4902    3.2201   -1.4745 C.ar    1  UNL1       -0.0598
     19 C          -0.7056    2.9827   -0.8220 C.ar    1  UNL1       -0.0611
     20 C          -0.8253    1.9642    0.0994 C.ar    1  UNL1       -0.0520
     21 C           0.2670    1.1707    0.3717 C.ar    1  UNL1        0.0077
     22 C          -0.0767   -0.7778    3.5455 C.2     1  UNL1        0.2519
     23 O           1.0327   -0.5103    4.0977 O.2     1  UNL1       -0.2697
     24 N          -1.1614   -1.3914    4.2034 N.am    1  UNL1       -0.2483
     25 C          -2.1922   -1.5042    3.2288 C.2     1  UNL1        0.2519
     26 O          -3.3002   -2.0140    3.4950 O.2     1  UNL1       -0.2697
     27 C          -3.7348   -0.4875    0.5203 C.ar    1  UNL1        0.0077
     28 C          -4.7369   -0.0392    1.3290 C.ar    1  UNL1       -0.0520
     29 C          -5.9814    0.3047    0.8088 C.ar    1  UNL1       -0.0611
     30 C          -6.2229    0.1990   -0.5313 C.ar    1  UNL1       -0.0598
     31 C          -5.1902   -0.2596   -1.3463 C.ar    1  UNL1       -0.0376
     32 C          -3.9589   -0.6007   -0.8393 C.ar    1  UNL1        0.0494
     33 H          -1.9019   -1.9997   -3.0718 H       1  UNL1        0.0456
     34 H          -2.5880   -0.3129   -3.3509 H       1  UNL1        0.0456
     35 H          -3.6692   -1.7024   -3.1852 H       1  UNL1        0.0456
     36 H          -0.8963   -1.5837   -0.6270 H       1  UNL1        0.0815
     37 H           2.2681   -1.0805    1.5984 H       1  UNL1        0.0815
     38 H           4.4392    0.1818    0.5594 H       1  UNL1        0.0500
     39 H           4.1155    1.4623   -0.6290 H       1  UNL1        0.0500
     40 H           3.3270   -0.2068   -2.3140 H       1  UNL1        0.0398
     41 H           3.6465   -1.5189   -1.1605 H       1  UNL1        0.0398
     42 H           5.2983   -2.0081    0.4963 H       1  UNL1        0.1886
     43 H           8.6759   -0.5162   -0.9782 H       1  UNL1        0.1442
     44 H           8.5903   -2.2809   -1.2305 H       1  UNL1        0.1442
     45 H           2.5326    2.5684   -1.6757 H       1  UNL1        0.0638
     46 H           0.6254    4.0066   -2.2024 H       1  UNL1        0.0618
     47 H          -1.5646    3.6298   -1.0579 H       1  UNL1        0.0618
     48 H          -1.7775    1.8330    0.5866 H       1  UNL1        0.0624
     49 H          -1.2057   -1.7056    5.2137 H       1  UNL1        0.1581
     50 H          -4.5702    0.0605    2.3769 H       1  UNL1        0.0624
     51 H          -6.7567    0.6577    1.4837 H       1  UNL1        0.0618
     52 H          -7.1819    0.4612   -0.9535 H       1  UNL1        0.0618
     53 H          -5.3790   -0.3433   -2.4053 H       1  UNL1        0.0638
@<TRIPOS>BOND
     1     1     2    1
     2     2     3   ar
     3     3     4   ar
     4     4     5    1
     5     5     6    2
     6     6     7    1
     7     7     8   ar
     8     8     9   ar
     9     9    10    1
    10    10    11    1
    11    11    12    1
    12    12    13    1
    13    13    14    2
    14    13    15    1
    15     9    16   ar
    16    16    17   ar
    17    17    18   ar
    18    18    19   ar
    19    19    20   ar
    20    20    21   ar
    21     6    22    1
    22    22    23    2
    23    22    24   am
    24    24    25   am
    25    25    26    2
    26     4    27   ar
    27    27    28   ar
    28    28    29   ar
    29    29    30   ar
    30    30    31   ar
    31    31    32   ar
    32    32     2   ar
    33    25     5    1
    34    32    27   ar
    35    21     7   ar
    36    21    16   ar
    37     1    33    1
    38     1    34    1
    39     1    35    1
    40     3    36    1
    41     8    37    1
    42    10    38    1
    43    10    39    1
    44    11    40    1
    45    11    41    1
    46    14    42    1
    47    15    43    1
    48    15    44    1
    49    17    45    1
    50    18    46    1
    51    19    47    1
    52    20    48    1
    53    24    49    1
    54    28    50    1
    55    29    51    1
    56    30    52    1
    57    31    53    1
