@<TRIPOS>MOLECULE
*****
 58 62 0 0 0
SMALL
GASTEIGER

@<TRIPOS>ATOM
      1 O          -2.8776    1.4236    1.0069 O.2     1  UNL1       -0.2506
      2 C          -2.1953    1.1690   -0.0144 C.2     1  UNL1        0.3100
      3 O          -1.9555    2.1787   -0.9294 O.3     1  UNL1       -0.4804
      4 C          -1.6717   -0.2039   -0.2023 C.3     1  UNL1        0.0832
      5 C          -0.1418   -0.0651   -0.2543 C.3     1  UNL1        0.0951
      6 S           0.5635   -0.2357    1.3671 S.O2    1  UNL1        0.0005
      7 O           0.1551    0.9017    2.2618 O.2     1  UNL1       -0.1691
      8 O           0.1205   -1.4991    2.0198 O.2     1  UNL1       -0.1691
      9 C           2.3012   -0.1532    1.2025 C.ar    1  UNL1        0.0885
     10 C           3.1116   -1.2561    1.0402 C.ar    1  UNL1       -0.0363
     11 C           4.4844   -1.1476    0.9096 C.ar    1  UNL1       -0.0522
     12 C           5.1102    0.0796    0.9361 C.ar    1  UNL1       -0.0178
     13 C           6.5562    0.1830    0.7972 C.ar    1  UNL1       -0.0178
     14 C           7.1912    1.2580    0.2140 C.ar    1  UNL1       -0.0527
     15 C           8.5652    1.3124    0.1039 C.ar    1  UNL1       -0.0428
     16 C           9.3009    0.2465    0.6003 C.ar    1  UNL1        0.0410
     17 CL         11.0607    0.2956    0.4697 Cl      1  UNL1       -0.0835
     18 C           8.7100   -0.8508    1.1921 C.ar    1  UNL1       -0.0428
     19 C           7.3258   -0.8510    1.2753 C.ar    1  UNL1       -0.0527
     20 C           4.3056    1.1954    1.0989 C.ar    1  UNL1       -0.0522
     21 C           2.9334    1.0838    1.2292 C.ar    1  UNL1       -0.0363
     22 C           0.3289   -1.1769   -1.1344 C.3     1  UNL1       -0.0292
     23 C          -0.8928   -1.7968   -1.7823 C.3     1  UNL1       -0.0460
     24 C          -2.0016   -0.7608   -1.5434 C.3     1  UNL1       -0.0065
     25 C          -3.3043   -1.4501   -1.6917 C.3     1  UNL1        0.0505
     26 N          -4.4759   -0.6928   -1.4361 N.ar    1  UNL1       -0.2101
     27 N          -5.0304    0.0134   -2.4024 N.ar    1  UNL1       -0.0621
     28 N          -6.1145    0.7345   -2.1881 N.ar    1  UNL1       -0.1308
     29 C          -6.7205    0.7994   -0.9895 C.ar    1  UNL1        0.1001
     30 C          -7.8559    1.5583   -0.7762 C.ar    1  UNL1       -0.0337
     31 C          -8.4279    1.5845    0.4669 C.ar    1  UNL1       -0.0597
     32 C          -7.8784    0.8592    1.5052 C.ar    1  UNL1       -0.0609
     33 C          -6.7480    0.0933    1.3257 C.ar    1  UNL1       -0.0473
     34 C          -6.1853    0.0844    0.0489 C.ar    1  UNL1        0.0680
     35 C          -5.0348   -0.6667   -0.2248 C.ar    1  UNL1        0.2778
     36 O          -4.5878   -1.3074    0.7748 O.2     1  UNL1       -0.2655
     37 H          -2.1556    3.1404   -0.6208 H       1  UNL1        0.2951
     38 H          -1.9365   -0.8451    0.6551 H       1  UNL1        0.0436
     39 H           0.1403    0.8976   -0.7238 H       1  UNL1        0.0548
     40 H           2.6188   -2.2399    1.0210 H       1  UNL1        0.0637
     41 H           5.1000   -2.0252    0.7833 H       1  UNL1        0.0624
     42 H           6.6082    2.0870   -0.1715 H       1  UNL1        0.0624
     43 H           9.0785    2.1527   -0.3529 H       1  UNL1        0.0632
     44 H           9.3211   -1.6574    1.5644 H       1  UNL1        0.0632
     45 H           6.8777   -1.7162    1.7409 H       1  UNL1        0.0624
     46 H           4.7684    2.1879    1.1248 H       1  UNL1        0.0624
     47 H           2.3354    1.9569    1.3534 H       1  UNL1        0.0637
     48 H           0.9721   -0.8129   -1.9792 H       1  UNL1        0.0284
     49 H           0.8950   -1.9551   -0.6001 H       1  UNL1        0.0284
     50 H          -0.7684   -1.9877   -2.8477 H       1  UNL1        0.0269
     51 H          -1.1655   -2.6761   -1.1872 H       1  UNL1        0.0269
     52 H          -1.8639    0.0724   -2.2852 H       1  UNL1        0.0327
     53 H          -3.3555   -1.8089   -2.7633 H       1  UNL1        0.0513
     54 H          -3.2807   -2.4231   -1.1142 H       1  UNL1        0.0513
     55 H          -8.2486    2.1108   -1.6271 H       1  UNL1        0.0639
     56 H          -9.3173    2.1914    0.5946 H       1  UNL1        0.0618
     57 H          -8.3550    0.8971    2.4898 H       1  UNL1        0.0618
     58 H          -6.2931   -0.4871    2.1213 H       1  UNL1        0.0626
@<TRIPOS>BOND
     1     1     2    2
     2     2     3    1
     3     2     4    1
     4     4     5    1
     5     5     6    1
     6     6     7    2
     7     6     8    2
     8     6     9    1
     9     9    10   ar
    10    10    11   ar
    11    11    12   ar
    12    12    13    1
    13    13    14   ar
    14    14    15   ar
    15    15    16   ar
    16    16    17    1
    17    16    18   ar
    18    18    19   ar
    19    12    20   ar
    20    20    21   ar
    21     5    22    1
    22    22    23    1
    23    23    24    1
    24    24    25    1
    25    25    26    1
    26    26    27   ar
    27    27    28   ar
    28    28    29   ar
    29    29    30   ar
    30    30    31   ar
    31    31    32   ar
    32    32    33   ar
    33    33    34   ar
    34    34    35   ar
    35    35    36    2
    36    24     4    1
    37    35    26   ar
    38    21     9   ar
    39    34    29   ar
    40    19    13   ar
    41     3    37    1
    42     4    38    1
    43     5    39    1
    44    10    40    1
    45    11    41    1
    46    14    42    1
    47    15    43    1
    48    18    44    1
    49    19    45    1
    50    20    46    1
    51    21    47    1
    52    22    48    1
    53    22    49    1
    54    23    50    1
    55    23    51    1
    56    24    52    1
    57    25    53    1
    58    25    54    1
    59    30    55    1
    60    31    56    1
    61    32    57    1
    62    33    58    1
