
     RDKit          3D

 58 62  0  0  0  0  0  0  0  0999 V2000
   -2.8776    1.4236    1.0069 O   0  0  0  0  0  0  0  0  0  0  0  0
   -2.1953    1.1690   -0.0144 C   0  0  0  0  0  0  0  0  0  0  0  0
   -1.9555    2.1787   -0.9294 O   0  0  0  0  0  0  0  0  0  0  0  0
   -1.6717   -0.2039   -0.2023 C   0  0  2  0  0  0  0  0  0  0  0  0
   -0.1418   -0.0651   -0.2543 C   0  0  1  0  0  0  0  0  0  0  0  0
    0.5635   -0.2357    1.3671 S   0  0  0  0  0  6  0  0  0  0  0  0
    0.1551    0.9017    2.2618 O   0  0  0  0  0  0  0  0  0  0  0  0
    0.1205   -1.4991    2.0198 O   0  0  0  0  0  0  0  0  0  0  0  0
    2.3012   -0.1532    1.2025 C   0  0  0  0  0  0  0  0  0  0  0  0
    3.1116   -1.2561    1.0402 C   0  0  0  0  0  0  0  0  0  0  0  0
    4.4844   -1.1476    0.9096 C   0  0  0  0  0  0  0  0  0  0  0  0
    5.1102    0.0796    0.9361 C   0  0  0  0  0  0  0  0  0  0  0  0
    6.5562    0.1830    0.7972 C   0  0  0  0  0  0  0  0  0  0  0  0
    7.1912    1.2580    0.2140 C   0  0  0  0  0  0  0  0  0  0  0  0
    8.5652    1.3124    0.1039 C   0  0  0  0  0  0  0  0  0  0  0  0
    9.3009    0.2465    0.6003 C   0  0  0  0  0  0  0  0  0  0  0  0
   11.0607    0.2956    0.4697 Cl  0  0  0  0  0  0  0  0  0  0  0  0
    8.7100   -0.8508    1.1921 C   0  0  0  0  0  0  0  0  0  0  0  0
    7.3258   -0.8510    1.2753 C   0  0  0  0  0  0  0  0  0  0  0  0
    4.3056    1.1954    1.0989 C   0  0  0  0  0  0  0  0  0  0  0  0
    2.9334    1.0838    1.2292 C   0  0  0  0  0  0  0  0  0  0  0  0
    0.3289   -1.1769   -1.1344 C   0  0  0  0  0  0  0  0  0  0  0  0
   -0.8928   -1.7968   -1.7823 C   0  0  0  0  0  0  0  0  0  0  0  0
   -2.0016   -0.7608   -1.5434 C   0  0  1  0  0  0  0  0  0  0  0  0
   -3.3043   -1.4501   -1.6917 C   0  0  0  0  0  0  0  0  0  0  0  0
   -4.4759   -0.6928   -1.4361 N   0  0  0  0  0  0  0  0  0  0  0  0
   -5.0304    0.0134   -2.4024 N   0  0  0  0  0  0  0  0  0  0  0  0
   -6.1145    0.7345   -2.1881 N   0  0  0  0  0  0  0  0  0  0  0  0
   -6.7205    0.7994   -0.9895 C   0  0  0  0  0  0  0  0  0  0  0  0
   -7.8559    1.5583   -0.7762 C   0  0  0  0  0  0  0  0  0  0  0  0
   -8.4279    1.5845    0.4669 C   0  0  0  0  0  0  0  0  0  0  0  0
   -7.8784    0.8592    1.5052 C   0  0  0  0  0  0  0  0  0  0  0  0
   -6.7480    0.0933    1.3257 C   0  0  0  0  0  0  0  0  0  0  0  0
   -6.1853    0.0844    0.0489 C   0  0  0  0  0  0  0  0  0  0  0  0
   -5.0348   -0.6667   -0.2248 C   0  0  0  0  0  0  0  0  0  0  0  0
   -4.5878   -1.3074    0.7748 O   0  0  0  0  0  0  0  0  0  0  0  0
   -2.1556    3.1404   -0.6208 H   0  0  0  0  0  0  0  0  0  0  0  0
   -1.9365   -0.8451    0.6551 H   0  0  0  0  0  0  0  0  0  0  0  0
    0.1403    0.8976   -0.7238 H   0  0  0  0  0  0  0  0  0  0  0  0
    2.6188   -2.2399    1.0210 H   0  0  0  0  0  0  0  0  0  0  0  0
    5.1000   -2.0252    0.7833 H   0  0  0  0  0  0  0  0  0  0  0  0
    6.6082    2.0870   -0.1715 H   0  0  0  0  0  0  0  0  0  0  0  0
    9.0785    2.1527   -0.3529 H   0  0  0  0  0  0  0  0  0  0  0  0
    9.3211   -1.6574    1.5644 H   0  0  0  0  0  0  0  0  0  0  0  0
    6.8777   -1.7162    1.7409 H   0  0  0  0  0  0  0  0  0  0  0  0
    4.7684    2.1879    1.1248 H   0  0  0  0  0  0  0  0  0  0  0  0
    2.3354    1.9569    1.3534 H   0  0  0  0  0  0  0  0  0  0  0  0
    0.9721   -0.8129   -1.9792 H   0  0  0  0  0  0  0  0  0  0  0  0
    0.8950   -1.9551   -0.6001 H   0  0  0  0  0  0  0  0  0  0  0  0
   -0.7684   -1.9877   -2.8477 H   0  0  0  0  0  0  0  0  0  0  0  0
   -1.1655   -2.6761   -1.1872 H   0  0  0  0  0  0  0  0  0  0  0  0
   -1.8639    0.0724   -2.2852 H   0  0  0  0  0  0  0  0  0  0  0  0
   -3.3555   -1.8089   -2.7633 H   0  0  0  0  0  0  0  0  0  0  0  0
   -3.2807   -2.4231   -1.1142 H   0  0  0  0  0  0  0  0  0  0  0  0
   -8.2486    2.1108   -1.6271 H   0  0  0  0  0  0  0  0  0  0  0  0
   -9.3173    2.1914    0.5946 H   0  0  0  0  0  0  0  0  0  0  0  0
   -8.3550    0.8971    2.4898 H   0  0  0  0  0  0  0  0  0  0  0  0
   -6.2931   -0.4871    2.1213 H   0  0  0  0  0  0  0  0  0  0  0  0
  1  2  2  0
  2  3  1  0
  2  4  1  0
  4  5  1  0
  5  6  1  0
  6  7  2  0
  6  8  2  0
  6  9  1  0
  9 10  2  0
 10 11  1  0
 11 12  2  0
 12 13  1  0
 13 14  2  0
 14 15  1  0
 15 16  2  0
 16 17  1  0
 16 18  1  0
 18 19  2  0
 12 20  1  0
 20 21  2  0
  5 22  1  0
 22 23  1  0
 23 24  1  0
 24 25  1  0
 25 26  1  0
 26 27  1  0
 27 28  2  0
 28 29  1  0
 29 30  2  0
 30 31  1  0
 31 32  2  0
 32 33  1  0
 33 34  2  0
 34 35  1  0
 35 36  2  0
 24  4  1  0
 35 26  1  0
 21  9  1  0
 34 29  1  0
 19 13  1  0
  3 37  1  0
  4 38  1  1
  5 39  1  6
 10 40  1  0
 11 41  1  0
 14 42  1  0
 15 43  1  0
 18 44  1  0
 19 45  1  0
 20 46  1  0
 21 47  1  0
 22 48  1  0
 22 49  1  0
 23 50  1  0
 23 51  1  0
 24 52  1  6
 25 53  1  0
 25 54  1  0
 30 55  1  0
 31 56  1  0
 32 57  1  0
 33 58  1  0
M  END
$$$$
