@<TRIPOS>MOLECULE
*****
 44 46 0 0 0
SMALL
GASTEIGER

@<TRIPOS>ATOM
      1 N          -8.2868   -0.0362    1.9818 N.pl3   1  UNL1       -0.3420
      2 C          -6.9923    0.1883    1.4586 C.ar    1  UNL1        0.1347
      3 N          -6.6526    1.3094    0.8120 N.ar    1  UNL1       -0.2374
      4 C          -5.4420    1.5485    0.3091 C.ar    1  UNL1        0.0510
      5 C          -4.4746    0.5768    0.4647 C.ar    1  UNL1        0.0534
      6 N          -3.1672    0.7802   -0.0528 N.am    1  UNL1       -0.2801
      7 C          -2.8385    0.3765   -1.3780 C.2     1  UNL1        0.2498
      8 O          -3.7219   -0.1700   -2.1034 O.2     1  UNL1       -0.2698
      9 C          -1.5073    0.5854   -1.8996 C.ar    1  UNL1        0.0570
     10 C          -0.4022   -0.0201   -1.3501 C.ar    1  UNL1       -0.0269
     11 C           0.8362    0.2154   -1.8878 C.ar    1  UNL1        0.0345
     12 N           2.0382   -0.3696   -1.3840 N.am    1  UNL1       -0.2815
     13 C           2.8244    0.2318   -0.3849 C.2     1  UNL1        0.2483
     14 O           2.4185    1.3429    0.0668 O.2     1  UNL1       -0.2699
     15 C           4.0616   -0.3576    0.1423 C.ar    1  UNL1        0.0376
     16 C           4.5557   -1.5630   -0.3002 C.ar    1  UNL1       -0.0496
     17 C           5.7357   -2.1089    0.2114 C.ar    1  UNL1       -0.0605
     18 C           6.4455   -1.4419    1.1882 C.ar    1  UNL1       -0.0501
     19 C           5.9493   -0.2297    1.6338 C.ar    1  UNL1        0.0555
     20 C           6.7321    0.4737    2.6893 C.3     1  UNL1        0.4174
     21 F           7.9487    0.9010    2.1411 F       1  UNL1       -0.1659
     22 F           6.0876    1.6134    3.1142 F       1  UNL1       -0.1659
     23 F           7.0444   -0.3487    3.7374 F       1  UNL1       -0.1659
     24 C           4.7715    0.3074    1.1179 C.ar    1  UNL1       -0.0380
     25 C           0.9689    1.0595   -2.9788 C.ar    1  UNL1       -0.0391
     26 C          -0.1256    1.6800   -3.5493 C.ar    1  UNL1       -0.0409
     27 C          -1.3498    1.4322   -2.9990 C.ar    1  UNL1        0.0532
     28 CL         -2.7816    2.1987   -3.6886 Cl      1  UNL1       -0.0828
     29 C          -4.7692   -0.5904    1.1188 C.ar    1  UNL1       -0.0173
     30 C          -6.0375   -0.8083    1.6301 C.ar    1  UNL1        0.0821
     31 CL         -6.4471   -2.2837    2.4684 Cl      1  UNL1       -0.0799
     32 H          -8.8995    0.7296    2.3390 H       1  UNL1        0.1437
     33 H          -8.6655   -1.0004    2.0219 H       1  UNL1        0.1437
     34 H          -5.1791    2.4613   -0.2125 H       1  UNL1        0.0849
     35 H          -2.4026    1.2341    0.5243 H       1  UNL1        0.1552
     36 H          -0.4881   -0.6816   -0.4987 H       1  UNL1        0.0644
     37 H           2.3258   -1.2890   -1.7937 H       1  UNL1        0.1551
     38 H           4.0301   -2.1169   -1.0633 H       1  UNL1        0.0625
     39 H           6.1148   -3.0760   -0.1569 H       1  UNL1        0.0618
     40 H           7.3677   -1.8527    1.5989 H       1  UNL1        0.0623
     41 H           4.4283    1.2704    1.5096 H       1  UNL1        0.0631
     42 H           1.9526    1.2599   -3.4228 H       1  UNL1        0.0636
     43 H          -0.0035    2.3474   -4.4149 H       1  UNL1        0.0633
     44 H          -4.0033   -1.3551    1.2399 H       1  UNL1        0.0652
@<TRIPOS>BOND
     1     1     2    1
     2     2     3   ar
     3     3     4   ar
     4     4     5   ar
     5     5     6    1
     6     6     7   am
     7     7     8    2
     8     7     9    1
     9     9    10   ar
    10    10    11   ar
    11    11    12    1
    12    12    13   am
    13    13    14    2
    14    13    15    1
    15    15    16   ar
    16    16    17   ar
    17    17    18   ar
    18    18    19   ar
    19    19    20    1
    20    20    21    1
    21    20    22    1
    22    20    23    1
    23    19    24   ar
    24    11    25   ar
    25    25    26   ar
    26    26    27   ar
    27    27    28    1
    28     5    29   ar
    29    29    30   ar
    30    30    31    1
    31    30     2   ar
    32    27     9   ar
    33    24    15   ar
    34     1    32    1
    35     1    33    1
    36     4    34    1
    37     6    35    1
    38    10    36    1
    39    12    37    1
    40    16    38    1
    41    17    39    1
    42    18    40    1
    43    24    41    1
    44    25    42    1
    45    26    43    1
    46    29    44    1
