@<TRIPOS>MOLECULE
*****
 56 60 0 0 0
SMALL
GASTEIGER

@<TRIPOS>ATOM
      1 C          -5.0070   -2.7997    2.8292 C.3     1  UNL1        0.0124
      2 C          -3.5641   -2.6522    2.5558 C.2     1  UNL1        0.2128
      3 O          -2.7519   -3.0969    3.4193 O.2     1  UNL1       -0.2759
      4 N          -3.1015   -2.0335    1.3659 N.am    1  UNL1       -0.2968
      5 C          -4.0936   -1.5499    0.4297 C.3     1  UNL1        0.0204
      6 C          -3.3440   -1.1253   -0.8461 C.3     1  UNL1        0.0055
      7 C          -2.3742   -0.1216   -0.4461 C.ar    1  UNL1        0.0477
      8 C          -1.4850   -0.5112    0.5682 C.ar    1  UNL1        0.0324
      9 C          -0.6767    0.5575    0.7857 C.ar    1  UNL1        0.1499
     10 N           0.3889    0.5814    1.7447 N.pl3   1  UNL1       -0.2955
     11 C           1.7118    0.5092    1.2790 C.ar    1  UNL1        0.0681
     12 C           2.5812    1.5547    1.5686 C.ar    1  UNL1       -0.0371
     13 C           3.8601    1.4708    1.1113 C.ar    1  UNL1       -0.0520
     14 C           4.3221    0.4106    0.3853 C.ar    1  UNL1       -0.0121
     15 C           5.7035    0.3346   -0.0989 C.ar    1  UNL1        0.0196
     16 C           6.8087    0.8612    0.5312 C.ar    1  UNL1        0.0571
     17 N           7.8610    0.5758   -0.2327 N.ar    1  UNL1       -0.1793
     18 N           7.4960   -0.0939   -1.3003 N.ar    1  UNL1       -0.2739
     19 C           8.4141   -0.5563   -2.3367 C.3     1  UNL1        0.0302
     20 C           6.1802   -0.2617   -1.2546 C.ar    1  UNL1        0.0329
     21 C           3.4708   -0.6263    0.0945 C.ar    1  UNL1       -0.0168
     22 C           2.1616   -0.5595    0.5522 C.ar    1  UNL1        0.1450
     23 F           1.3455   -1.5965    0.2501 F       1  UNL1       -0.2035
     24 N          -1.0673    1.5107   -0.0464 N.ar    1  UNL1       -0.1551
     25 N          -2.1022    1.1126   -0.8051 N.ar    1  UNL1       -0.2608
     26 C          -2.6590    1.9893   -1.7497 C.3     1  UNL1        0.0784
     27 C          -3.3221    3.2180   -1.0878 C.3     1  UNL1       -0.0048
     28 C          -4.7247    2.6312   -0.9169 C.3     1  UNL1        0.0498
     29 O          -4.8742    1.6021   -1.7970 O.3     1  UNL1       -0.3776
     30 C          -3.7476    1.5710   -2.6089 C.3     1  UNL1        0.0701
     31 C          -1.6687   -1.8924    1.0984 C.3     1  UNL1        0.0447
     32 H          -5.5308   -3.2547    1.9501 H       1  UNL1        0.0323
     33 H          -5.5264   -1.8265    2.9965 H       1  UNL1        0.0323
     34 H          -5.1959   -3.4416    3.6957 H       1  UNL1        0.0323
     35 H          -4.6300   -0.6615    0.7819 H       1  UNL1        0.0468
     36 H          -4.7657   -2.3900    0.1343 H       1  UNL1        0.0468
     37 H          -2.7435   -2.0562   -1.1001 H       1  UNL1        0.0343
     38 H          -3.9919   -0.9670   -1.6746 H       1  UNL1        0.0343
     39 H           0.1336    0.6528    2.7642 H       1  UNL1        0.1537
     40 H           2.2036    2.3853    2.1422 H       1  UNL1        0.0637
     41 H           4.5554    2.2711    1.3235 H       1  UNL1        0.0624
     42 H           6.7945    1.4075    1.4823 H       1  UNL1        0.0854
     43 H           7.9263   -0.4107   -3.3104 H       1  UNL1        0.0473
     44 H           9.3719   -0.0005   -2.3168 H       1  UNL1        0.0473
     45 H           8.5528   -1.6384   -2.1602 H       1  UNL1        0.0473
     46 H           5.5494   -0.7624   -1.9605 H       1  UNL1        0.0832
     47 H           3.8190   -1.4578   -0.4713 H       1  UNL1        0.0653
     48 H          -1.8140    2.3808   -2.3916 H       1  UNL1        0.0568
     49 H          -2.8281    3.4110   -0.1232 H       1  UNL1        0.0309
     50 H          -3.3481    4.0753   -1.7727 H       1  UNL1        0.0309
     51 H          -5.5059    3.3915   -0.9153 H       1  UNL1        0.0560
     52 H          -4.7107    2.1816    0.1198 H       1  UNL1        0.0560
     53 H          -3.6394    0.7303   -3.2656 H       1  UNL1        0.0581
     54 H          -3.9351    2.4440   -3.3232 H       1  UNL1        0.0581
     55 H          -1.1232   -2.0378    2.0489 H       1  UNL1        0.0515
     56 H          -1.3594   -2.5884    0.3039 H       1  UNL1        0.0515
@<TRIPOS>BOND
     1     1     2    1
     2     2     3    2
     3     2     4   am
     4     4     5    1
     5     5     6    1
     6     6     7    1
     7     7     8   ar
     8     8     9   ar
     9     9    10    1
    10    10    11    1
    11    11    12   ar
    12    12    13   ar
    13    13    14   ar
    14    14    15    1
    15    15    16   ar
    16    16    17   ar
    17    17    18   ar
    18    18    19    1
    19    18    20   ar
    20    14    21   ar
    21    21    22   ar
    22    22    23    1
    23     9    24   ar
    24    24    25   ar
    25    25    26    1
    26    26    27    1
    27    27    28    1
    28    28    29    1
    29    29    30    1
    30     8    31    1
    31    31     4    1
    32    25     7   ar
    33    30    26    1
    34    22    11   ar
    35    20    15   ar
    36     1    32    1
    37     1    33    1
    38     1    34    1
    39     5    35    1
    40     5    36    1
    41     6    37    1
    42     6    38    1
    43    10    39    1
    44    12    40    1
    45    13    41    1
    46    16    42    1
    47    19    43    1
    48    19    44    1
    49    19    45    1
    50    20    46    1
    51    21    47    1
    52    26    48    1
    53    27    49    1
    54    27    50    1
    55    28    51    1
    56    28    52    1
    57    30    53    1
    58    30    54    1
    59    31    55    1
    60    31    56    1
