
     RDKit          3D

 56 60  0  0  0  0  0  0  0  0999 V2000
   -5.0070   -2.7997    2.8292 C   0  0  0  0  0  0  0  0  0  0  0  0
   -3.5641   -2.6522    2.5558 C   0  0  0  0  0  0  0  0  0  0  0  0
   -2.7519   -3.0969    3.4193 O   0  0  0  0  0  0  0  0  0  0  0  0
   -3.1015   -2.0335    1.3659 N   0  0  0  0  0  0  0  0  0  0  0  0
   -4.0936   -1.5499    0.4297 C   0  0  0  0  0  0  0  0  0  0  0  0
   -3.3440   -1.1253   -0.8461 C   0  0  0  0  0  0  0  0  0  0  0  0
   -2.3742   -0.1216   -0.4461 C   0  0  0  0  0  0  0  0  0  0  0  0
   -1.4850   -0.5112    0.5682 C   0  0  0  0  0  0  0  0  0  0  0  0
   -0.6767    0.5575    0.7857 C   0  0  0  0  0  0  0  0  0  0  0  0
    0.3889    0.5814    1.7447 N   0  0  0  0  0  0  0  0  0  0  0  0
    1.7118    0.5092    1.2790 C   0  0  0  0  0  0  0  0  0  0  0  0
    2.5812    1.5547    1.5686 C   0  0  0  0  0  0  0  0  0  0  0  0
    3.8601    1.4708    1.1113 C   0  0  0  0  0  0  0  0  0  0  0  0
    4.3221    0.4106    0.3853 C   0  0  0  0  0  0  0  0  0  0  0  0
    5.7035    0.3346   -0.0989 C   0  0  0  0  0  0  0  0  0  0  0  0
    6.8087    0.8612    0.5312 C   0  0  0  0  0  0  0  0  0  0  0  0
    7.8610    0.5758   -0.2327 N   0  0  0  0  0  0  0  0  0  0  0  0
    7.4960   -0.0939   -1.3003 N   0  0  0  0  0  0  0  0  0  0  0  0
    8.4141   -0.5563   -2.3367 C   0  0  0  0  0  0  0  0  0  0  0  0
    6.1802   -0.2617   -1.2546 C   0  0  0  0  0  0  0  0  0  0  0  0
    3.4708   -0.6263    0.0945 C   0  0  0  0  0  0  0  0  0  0  0  0
    2.1616   -0.5595    0.5522 C   0  0  0  0  0  0  0  0  0  0  0  0
    1.3455   -1.5965    0.2501 F   0  0  0  0  0  0  0  0  0  0  0  0
   -1.0673    1.5107   -0.0464 N   0  0  0  0  0  0  0  0  0  0  0  0
   -2.1022    1.1126   -0.8051 N   0  0  0  0  0  0  0  0  0  0  0  0
   -2.6590    1.9893   -1.7497 C   0  0  2  0  0  0  0  0  0  0  0  0
   -3.3221    3.2180   -1.0878 C   0  0  0  0  0  0  0  0  0  0  0  0
   -4.7247    2.6312   -0.9169 C   0  0  0  0  0  0  0  0  0  0  0  0
   -4.8742    1.6021   -1.7970 O   0  0  0  0  0  0  0  0  0  0  0  0
   -3.7476    1.5710   -2.6089 C   0  0  0  0  0  0  0  0  0  0  0  0
   -1.6687   -1.8924    1.0984 C   0  0  0  0  0  0  0  0  0  0  0  0
   -5.5308   -3.2547    1.9501 H   0  0  0  0  0  0  0  0  0  0  0  0
   -5.5264   -1.8265    2.9965 H   0  0  0  0  0  0  0  0  0  0  0  0
   -5.1959   -3.4416    3.6957 H   0  0  0  0  0  0  0  0  0  0  0  0
   -4.6300   -0.6615    0.7819 H   0  0  0  0  0  0  0  0  0  0  0  0
   -4.7657   -2.3900    0.1343 H   0  0  0  0  0  0  0  0  0  0  0  0
   -2.7435   -2.0562   -1.1001 H   0  0  0  0  0  0  0  0  0  0  0  0
   -3.9919   -0.9670   -1.6746 H   0  0  0  0  0  0  0  0  0  0  0  0
    0.1336    0.6528    2.7642 H   0  0  0  0  0  0  0  0  0  0  0  0
    2.2036    2.3853    2.1422 H   0  0  0  0  0  0  0  0  0  0  0  0
    4.5554    2.2711    1.3235 H   0  0  0  0  0  0  0  0  0  0  0  0
    6.7945    1.4075    1.4823 H   0  0  0  0  0  0  0  0  0  0  0  0
    7.9263   -0.4107   -3.3104 H   0  0  0  0  0  0  0  0  0  0  0  0
    9.3719   -0.0005   -2.3168 H   0  0  0  0  0  0  0  0  0  0  0  0
    8.5528   -1.6384   -2.1602 H   0  0  0  0  0  0  0  0  0  0  0  0
    5.5494   -0.7624   -1.9605 H   0  0  0  0  0  0  0  0  0  0  0  0
    3.8190   -1.4578   -0.4713 H   0  0  0  0  0  0  0  0  0  0  0  0
   -1.8140    2.3808   -2.3916 H   0  0  0  0  0  0  0  0  0  0  0  0
   -2.8281    3.4110   -0.1232 H   0  0  0  0  0  0  0  0  0  0  0  0
   -3.3481    4.0753   -1.7727 H   0  0  0  0  0  0  0  0  0  0  0  0
   -5.5059    3.3915   -0.9153 H   0  0  0  0  0  0  0  0  0  0  0  0
   -4.7107    2.1816    0.1198 H   0  0  0  0  0  0  0  0  0  0  0  0
   -3.6394    0.7303   -3.2656 H   0  0  0  0  0  0  0  0  0  0  0  0
   -3.9351    2.4440   -3.3232 H   0  0  0  0  0  0  0  0  0  0  0  0
   -1.1232   -2.0378    2.0489 H   0  0  0  0  0  0  0  0  0  0  0  0
   -1.3594   -2.5884    0.3039 H   0  0  0  0  0  0  0  0  0  0  0  0
  1  2  1  0
  2  3  2  0
  2  4  1  0
  4  5  1  0
  5  6  1  0
  6  7  1  0
  7  8  2  0
  8  9  1  0
  9 10  1  0
 10 11  1  0
 11 12  2  0
 12 13  1  0
 13 14  2  0
 14 15  1  0
 15 16  1  0
 16 17  2  0
 17 18  1  0
 18 19  1  0
 18 20  1  0
 14 21  1  0
 21 22  2  0
 22 23  1  0
  9 24  2  0
 24 25  1  0
 25 26  1  0
 26 27  1  0
 27 28  1  0
 28 29  1  0
 29 30  1  0
  8 31  1  0
 31  4  1  0
 25  7  1  0
 30 26  1  0
 22 11  1  0
 20 15  2  0
  1 32  1  0
  1 33  1  0
  1 34  1  0
  5 35  1  0
  5 36  1  0
  6 37  1  0
  6 38  1  0
 10 39  1  0
 12 40  1  0
 13 41  1  0
 16 42  1  0
 19 43  1  0
 19 44  1  0
 19 45  1  0
 20 46  1  0
 21 47  1  0
 26 48  1  6
 27 49  1  0
 27 50  1  0
 28 51  1  0
 28 52  1  0
 30 53  1  0
 30 54  1  0
 31 55  1  0
 31 56  1  0
M  END
$$$$
