
     RDKit          3D

 58 62  0  0  0  0  0  0  0  0999 V2000
   -7.0810    1.6271    3.7452 C   0  0  0  0  0  0  0  0  0  0  0  0
   -6.3591    2.1473    2.6421 O   0  0  0  0  0  0  0  0  0  0  0  0
   -5.2827    1.4377    2.0962 C   0  0  0  0  0  0  0  0  0  0  0  0
   -4.5933    1.9612    1.0223 C   0  0  0  0  0  0  0  0  0  0  0  0
   -3.5317    1.2711    0.4766 C   0  0  0  0  0  0  0  0  0  0  0  0
   -3.1168    0.0415    0.9740 C   0  0  0  0  0  0  0  0  0  0  0  0
   -2.1143   -0.8417    0.6301 C   0  0  0  0  0  0  0  0  0  0  0  0
   -1.2007   -0.6539   -0.4186 N   0  0  0  0  0  0  0  0  0  0  0  0
   -0.2025    0.2438   -0.4843 C   0  0  0  0  0  0  0  0  0  0  0  0
    0.1270    1.1140    0.3887 O   0  0  0  0  0  0  0  0  0  0  0  0
    0.4389    0.0948   -1.6581 N   0  0  0  0  0  0  0  0  0  0  0  0
    1.5581    0.8573   -2.1134 C   0  0  0  0  0  0  0  0  0  0  0  0
    2.8716    0.2789   -1.7280 C   0  0  0  0  0  0  0  0  0  0  0  0
    3.5403   -0.6125   -2.5142 C   0  0  0  0  0  0  0  0  0  0  0  0
    4.7495   -1.1035   -2.0912 C   0  0  0  0  0  0  0  0  0  0  0  0
    5.2889   -0.7065   -0.8885 C   0  0  0  0  0  0  0  0  0  0  0  0
    6.8423   -1.3274   -0.3291 Cl  0  0  0  0  0  0  0  0  0  0  0  0
    4.6213    0.2125   -0.0557 C   0  0  0  0  0  0  0  0  0  0  0  0
    5.2385    0.5470    1.1231 O   0  0  0  0  0  0  0  0  0  0  0  0
    4.7267    1.4252    2.0473 C   0  0  2  0  0  0  0  0  0  0  0  0
    5.6644    2.5975    2.3147 C   0  0  0  0  0  0  0  0  0  0  0  0
    4.5353    0.7809    3.3959 C   0  0  0  0  0  0  0  0  0  0  0  0
    4.0731    1.4963    4.3098 O   0  0  0  0  0  0  0  0  0  0  0  0
    4.8474   -0.5283    3.6307 O   0  0  0  0  0  0  0  0  0  0  0  0
    3.4229    0.6685   -0.5254 C   0  0  0  0  0  0  0  0  0  0  0  0
   -0.1647   -0.9021   -2.3263 C   0  0  0  0  0  0  0  0  0  0  0  0
    0.0360   -1.4987   -3.5508 C   0  0  0  0  0  0  0  0  0  0  0  0
   -0.7498   -2.5334   -4.0103 C   0  0  0  0  0  0  0  0  0  0  0  0
   -1.7959   -3.0195   -3.2327 C   0  0  0  0  0  0  0  0  0  0  0  0
   -2.6410   -4.1403   -3.7400 C   0  0  0  0  0  0  0  0  0  0  0  0
   -2.5185   -4.3083   -5.0866 F   0  0  0  0  0  0  0  0  0  0  0  0
   -2.2910   -5.3360   -3.1210 F   0  0  0  0  0  0  0  0  0  0  0  0
   -3.9513   -3.8149   -3.3789 F   0  0  0  0  0  0  0  0  0  0  0  0
   -2.0127   -2.4358   -2.0045 C   0  0  0  0  0  0  0  0  0  0  0  0
   -1.2128   -1.3941   -1.5548 C   0  0  0  0  0  0  0  0  0  0  0  0
   -2.2434   -1.8630    1.5148 N   0  0  0  0  0  0  0  0  0  0  0  0
   -3.2318   -1.6308    2.3267 O   0  0  0  0  0  0  0  0  0  0  0  0
   -3.8091   -0.4839    2.0522 C   0  0  0  0  0  0  0  0  0  0  0  0
   -4.8730    0.2165    2.5926 C   0  0  0  0  0  0  0  0  0  0  0  0
   -6.4178    1.2048    4.5196 H   0  0  0  0  0  0  0  0  0  0  0  0
   -7.8016    2.3517    4.1174 H   0  0  0  0  0  0  0  0  0  0  0  0
   -7.6701    0.7553    3.3445 H   0  0  0  0  0  0  0  0  0  0  0  0
   -4.8636    2.9205    0.5808 H   0  0  0  0  0  0  0  0  0  0  0  0
   -2.9564    1.6422   -0.3708 H   0  0  0  0  0  0  0  0  0  0  0  0
    1.5061    1.8783   -1.6870 H   0  0  0  0  0  0  0  0  0  0  0  0
    1.5937    0.9931   -3.2202 H   0  0  0  0  0  0  0  0  0  0  0  0
    3.1142   -0.9256   -3.4635 H   0  0  0  0  0  0  0  0  0  0  0  0
    5.3170   -1.8287   -2.7070 H   0  0  0  0  0  0  0  0  0  0  0  0
    3.7504    1.8664    1.7817 H   0  0  0  0  0  0  0  0  0  0  0  0
    5.6861    3.2989    1.4718 H   0  0  0  0  0  0  0  0  0  0  0  0
    6.6452    2.2210    2.6182 H   0  0  0  0  0  0  0  0  0  0  0  0
    5.2419    3.1421    3.1861 H   0  0  0  0  0  0  0  0  0  0  0  0
    4.3297   -1.0355    4.3365 H   0  0  0  0  0  0  0  0  0  0  0  0
    2.8878    1.3882    0.1145 H   0  0  0  0  0  0  0  0  0  0  0  0
    0.8280   -1.1519   -4.1726 H   0  0  0  0  0  0  0  0  0  0  0  0
   -0.5791   -2.9888   -4.9703 H   0  0  0  0  0  0  0  0  0  0  0  0
   -2.8101   -2.7877   -1.3831 H   0  0  0  0  0  0  0  0  0  0  0  0
   -5.4065   -0.2010    3.4329 H   0  0  0  0  0  0  0  0  0  0  0  0
  1  2  1  0
  2  3  1  0
  3  4  2  0
  4  5  1  0
  5  6  2  0
  6  7  1  0
  7  8  1  0
  8  9  1  0
  9 10  2  0
  9 11  1  0
 11 12  1  0
 12 13  1  0
 13 14  2  0
 14 15  1  0
 15 16  2  0
 16 17  1  0
 16 18  1  0
 18 19  1  0
 19 20  1  0
 20 21  1  0
 20 22  1  0
 22 23  2  0
 22 24  1  0
 18 25  2  0
 11 26  1  0
 26 27  2  0
 27 28  1  0
 28 29  2  0
 29 30  1  0
 30 31  1  0
 30 32  1  0
 30 33  1  0
 29 34  1  0
 34 35  2  0
  7 36  2  0
 36 37  1  0
 37 38  1  0
 38 39  2  0
 39  3  1  0
 38  6  1  0
 35  8  1  0
 25 13  1  0
 35 26  1  0
  1 40  1  0
  1 41  1  0
  1 42  1  0
  4 43  1  0
  5 44  1  0
 12 45  1  0
 12 46  1  0
 14 47  1  0
 15 48  1  0
 20 49  1  6
 21 50  1  0
 21 51  1  0
 21 52  1  0
 24 53  1  0
 25 54  1  0
 27 55  1  0
 28 56  1  0
 34 57  1  0
 39 58  1  0
M  END
$$$$
