@<TRIPOS>MOLECULE
*****
 58 62 0 0 0
SMALL
GASTEIGER

@<TRIPOS>ATOM
      1 C          -7.0810    1.6271    3.7452 C.3     1  UNL1        0.0788
      2 O          -6.3591    2.1473    2.6421 O.3     1  UNL1       -0.4950
      3 C          -5.2827    1.4377    2.0962 C.ar    1  UNL1        0.1237
      4 C          -4.5933    1.9612    1.0223 C.ar    1  UNL1       -0.0190
      5 C          -3.5317    1.2711    0.4766 C.ar    1  UNL1       -0.0439
      6 C          -3.1168    0.0415    0.9740 C.ar    1  UNL1        0.0662
      7 C          -2.1143   -0.8417    0.6301 C.ar    1  UNL1        0.1922
      8 N          -1.2007   -0.6539   -0.4186 N.ar    1  UNL1       -0.2413
      9 C          -0.2025    0.2438   -0.4843 C.ar    1  UNL1        0.3362
     10 O           0.1270    1.1140    0.3887 O.2     1  UNL1       -0.2459
     11 N           0.4389    0.0948   -1.6581 N.ar    1  UNL1       -0.2874
     12 C           1.5581    0.8573   -2.1134 C.3     1  UNL1        0.0533
     13 C           2.8716    0.2789   -1.7280 C.ar    1  UNL1       -0.0241
     14 C           3.5403   -0.6125   -2.5142 C.ar    1  UNL1       -0.0553
     15 C           4.7495   -1.1035   -2.0912 C.ar    1  UNL1       -0.0395
     16 C           5.2889   -0.7065   -0.8885 C.ar    1  UNL1        0.0826
     17 CL          6.8423   -1.3274   -0.3291 Cl      1  UNL1       -0.0798
     18 C           4.6213    0.2125   -0.0557 C.ar    1  UNL1        0.1402
     19 O           5.2385    0.5470    1.1231 O.3     1  UNL1       -0.4765
     20 C           4.7267    1.4252    2.0473 C.3     1  UNL1        0.1931
     21 C           5.6644    2.5975    2.3147 C.3     1  UNL1       -0.0172
     22 C           4.5353    0.7809    3.3959 C.2     1  UNL1        0.3456
     23 O           4.0731    1.4963    4.3098 O.2     1  UNL1       -0.2468
     24 O           4.8474   -0.5283    3.6307 O.3     1  UNL1       -0.4781
     25 C           3.4229    0.6685   -0.5254 C.ar    1  UNL1       -0.0136
     26 C          -0.1647   -0.9021   -2.3263 C.ar    1  UNL1        0.0707
     27 C           0.0360   -1.4987   -3.5508 C.ar    1  UNL1       -0.0355
     28 C          -0.7498   -2.5334   -4.0103 C.ar    1  UNL1       -0.0480
     29 C          -1.7959   -3.0195   -3.2327 C.ar    1  UNL1        0.0569
     30 C          -2.6410   -4.1403   -3.7400 C.3     1  UNL1        0.4175
     31 F          -2.5185   -4.3083   -5.0866 F       1  UNL1       -0.1659
     32 F          -2.2910   -5.3360   -3.1210 F       1  UNL1       -0.1659
     33 F          -3.9513   -3.8149   -3.3789 F       1  UNL1       -0.1659
     34 C          -2.0127   -2.4358   -2.0045 C.ar    1  UNL1       -0.0240
     35 C          -1.2128   -1.3941   -1.5548 C.ar    1  UNL1        0.0771
     36 N          -2.2434   -1.8630    1.5148 N.ar    1  UNL1       -0.0587
     37 O          -3.2318   -1.6308    2.3267 O.2     1  UNL1       -0.3525
     38 C          -3.8091   -0.4839    2.0522 C.ar    1  UNL1        0.1728
     39 C          -4.8730    0.2165    2.5926 C.ar    1  UNL1        0.0257
     40 H          -6.4178    1.2048    4.5196 H       1  UNL1        0.0660
     41 H          -7.8016    2.3517    4.1174 H       1  UNL1        0.0660
     42 H          -7.6701    0.7553    3.3445 H       1  UNL1        0.0660
     43 H          -4.8636    2.9205    0.5808 H       1  UNL1        0.0654
     44 H          -2.9564    1.6422   -0.3708 H       1  UNL1        0.0627
     45 H           1.5061    1.8783   -1.6870 H       1  UNL1        0.0543
     46 H           1.5937    0.9931   -3.2202 H       1  UNL1        0.0543
     47 H           3.1142   -0.9256   -3.4635 H       1  UNL1        0.0621
     48 H           5.3170   -1.8287   -2.7070 H       1  UNL1        0.0633
     49 H           3.7504    1.8664    1.7817 H       1  UNL1        0.0849
     50 H           5.6861    3.2989    1.4718 H       1  UNL1        0.0271
     51 H           6.6452    2.2210    2.6182 H       1  UNL1        0.0271
     52 H           5.2419    3.1421    3.1861 H       1  UNL1        0.0271
     53 H           4.3297   -1.0355    4.3365 H       1  UNL1        0.2952
     54 H           2.8878    1.3882    0.1145 H       1  UNL1        0.0658
     55 H           0.8280   -1.1519   -4.1726 H       1  UNL1        0.0639
     56 H          -0.5791   -2.9888   -4.9703 H       1  UNL1        0.0624
     57 H          -2.8101   -2.7877   -1.3831 H       1  UNL1        0.0644
     58 H          -5.4065   -0.2010    3.4329 H       1  UNL1        0.0692
@<TRIPOS>BOND
     1     1     2    1
     2     2     3    1
     3     3     4   ar
     4     4     5   ar
     5     5     6   ar
     6     6     7   ar
     7     7     8    1
     8     8     9   ar
     9     9    10    2
    10     9    11   ar
    11    11    12    1
    12    12    13    1
    13    13    14   ar
    14    14    15   ar
    15    15    16   ar
    16    16    17    1
    17    16    18   ar
    18    18    19    1
    19    19    20    1
    20    20    21    1
    21    20    22    1
    22    22    23    2
    23    22    24    1
    24    18    25   ar
    25    11    26   ar
    26    26    27   ar
    27    27    28   ar
    28    28    29   ar
    29    29    30    1
    30    30    31    1
    31    30    32    1
    32    30    33    1
    33    29    34   ar
    34    34    35   ar
    35     7    36   ar
    36    36    37   ar
    37    37    38   ar
    38    38    39   ar
    39    39     3   ar
    40    38     6   ar
    41    35     8   ar
    42    25    13   ar
    43    35    26   ar
    44     1    40    1
    45     1    41    1
    46     1    42    1
    47     4    43    1
    48     5    44    1
    49    12    45    1
    50    12    46    1
    51    14    47    1
    52    15    48    1
    53    20    49    1
    54    21    50    1
    55    21    51    1
    56    21    52    1
    57    24    53    1
    58    25    54    1
    59    27    55    1
    60    28    56    1
    61    34    57    1
    62    39    58    1
