@<TRIPOS>MOLECULE
*****
 83 88 0 0 0
SMALL
GASTEIGER

@<TRIPOS>ATOM
      1 C          -6.6831   -3.6946   -1.8726 C.3     1  UNL1        0.0032
      2 N          -5.2921   -3.3238   -1.6471 N.am    1  UNL1       -0.3024
      3 C          -4.6202   -2.6824   -2.7653 C.3     1  UNL1        0.0032
      4 C          -4.6591   -3.5851   -0.4155 C.2     1  UNL1        0.2627
      5 O          -5.2903   -4.1450    0.4998 O.2     1  UNL1       -0.2684
      6 C          -3.2768   -3.2070   -0.2069 C.ar    1  UNL1        0.1070
      7 C          -2.1594   -3.9936   -0.5108 C.ar    1  UNL1       -0.0209
      8 C          -1.0558   -3.2764   -0.1684 C.ar    1  UNL1        0.0378
      9 C           0.3083   -3.5407   -0.2418 C.ar    1  UNL1        0.0419
     10 N           1.1171   -2.5642    0.2023 N.ar    1  UNL1       -0.2219
     11 C           0.7530   -1.4008    0.6920 C.ar    1  UNL1        0.2224
     12 N           1.5923   -0.3674    1.1579 N.pl3   1  UNL1       -0.2685
     13 C           2.9835   -0.3897    1.1530 C.ar    1  UNL1        0.1250
     14 C           3.7285   -1.4226    0.6808 C.ar    1  UNL1       -0.0208
     15 C           5.1366   -1.3926    0.6998 C.ar    1  UNL1       -0.0449
     16 C           5.7506   -0.2778    1.2149 C.ar    1  UNL1        0.0551
     17 C           7.2022   -0.2262    1.2439 C.2     1  UNL1        0.2482
     18 O           7.8144   -1.1383    1.8498 O.2     1  UNL1       -0.2699
     19 N           7.9341    0.8079    0.6172 N.am    1  UNL1       -0.2945
     20 C           9.3945    0.8502    0.6517 C.3     1  UNL1        0.0304
     21 C           9.8903    1.0457   -0.7522 C.3     1  UNL1        0.0237
     22 C          10.2823    2.5117   -0.9087 C.3     1  UNL1       -0.0346
     23 C           8.9861    3.2209   -1.2700 C.3     1  UNL1       -0.0346
     24 C           7.9944    2.0943   -1.3974 C.3     1  UNL1        0.0237
     25 C           7.2631    1.8810   -0.0904 C.3     1  UNL1        0.0304
     26 N           8.8228    0.9690   -1.7489 N.3     1  UNL1       -0.3075
     27 C           4.9922    0.7690    1.6935 C.ar    1  UNL1        0.0418
     28 N           3.6626    0.6743    1.6449 N.ar    1  UNL1       -0.2394
     29 N          -0.6030   -1.1855    0.7445 N.ar    1  UNL1       -0.1962
     30 C          -1.4964   -2.0910    0.3284 C.ar    1  UNL1        0.1466
     31 N          -2.8538   -2.0587    0.3005 N.ar    1  UNL1       -0.3180
     32 C          -3.5826   -0.8985    0.7740 C.3     1  UNL1        0.0366
     33 C          -3.5283    0.2301   -0.2116 C.3     1  UNL1       -0.0318
     34 C          -4.8472    0.8191   -0.5859 C.3     1  UNL1       -0.0479
     35 C          -5.8219    0.9949    0.5096 C.3     1  UNL1       -0.0360
     36 C          -6.0766    2.4499    0.8664 C.3     1  UNL1       -0.0349
     37 C          -7.0774    2.5651    1.9884 C.3     1  UNL1       -0.0598
     38 C          -6.6602    3.1486   -0.3445 C.3     1  UNL1       -0.0598
     39 C          -4.8335    3.1795    1.2684 C.3     1  UNL1       -0.0598
     40 C          -5.4952    0.1717    1.7529 C.3     1  UNL1       -0.0479
     41 C          -4.9888   -1.1739    1.1931 C.3     1  UNL1       -0.0318
     42 H          -6.7620   -4.6513   -2.4314 H       1  UNL1        0.0428
     43 H          -7.1797   -3.8169   -0.9104 H       1  UNL1        0.0428
     44 H          -7.1463   -2.8777   -2.4633 H       1  UNL1        0.0428
     45 H          -5.3124   -2.0185   -3.2935 H       1  UNL1        0.0428
     46 H          -3.7713   -2.0923   -2.3690 H       1  UNL1        0.0428
     47 H          -4.1644   -3.4455   -3.4345 H       1  UNL1        0.0428
     48 H          -2.1651   -4.9753   -0.9324 H       1  UNL1        0.0647
     49 H           0.6557   -4.4774   -0.6336 H       1  UNL1        0.0838
     50 H           1.1228    0.5080    1.5485 H       1  UNL1        0.1564
     51 H           3.3103   -2.3245    0.2641 H       1  UNL1        0.0652
     52 H           5.6928   -2.2350    0.3143 H       1  UNL1        0.0627
     53 H           9.8100   -0.0614    1.1315 H       1  UNL1        0.0480
     54 H           9.6576    1.7271    1.3003 H       1  UNL1        0.0480
     55 H          10.7328    0.3726   -1.0164 H       1  UNL1        0.0476
     56 H          10.7007    2.8924    0.0339 H       1  UNL1        0.0281
     57 H          10.9891    2.5698   -1.7529 H       1  UNL1        0.0281
     58 H           8.6719    3.9402   -0.4749 H       1  UNL1        0.0281
     59 H           9.0863    3.7294   -2.2690 H       1  UNL1        0.0281
     60 H           7.2181    2.3005   -2.1632 H       1  UNL1        0.0476
     61 H           7.3749    2.8024    0.5457 H       1  UNL1        0.0480
     62 H           6.1867    1.6981   -0.2383 H       1  UNL1        0.0480
     63 H           8.3010    0.0557   -1.6902 H       1  UNL1        0.1226
     64 H           5.4457    1.6666    2.1087 H       1  UNL1        0.0838
     65 H          -3.0531   -0.5807    1.7286 H       1  UNL1        0.0528
     66 H          -2.8006    0.9819    0.1619 H       1  UNL1        0.0285
     67 H          -3.0650   -0.1692   -1.1419 H       1  UNL1        0.0285
     68 H          -5.2730    0.2489   -1.4546 H       1  UNL1        0.0269
     69 H          -4.6315    1.8402   -1.0184 H       1  UNL1        0.0269
     70 H          -6.8124    0.6038    0.1714 H       1  UNL1        0.0306
     71 H          -6.5835    2.5877    2.9909 H       1  UNL1        0.0235
     72 H          -7.6167    3.5357    1.8438 H       1  UNL1        0.0235
     73 H          -7.7557    1.6926    1.9176 H       1  UNL1        0.0235
     74 H          -7.2918    2.4908   -0.9516 H       1  UNL1        0.0235
     75 H          -7.2181    4.0426    0.0211 H       1  UNL1        0.0235
     76 H          -5.7940    3.5672   -0.9180 H       1  UNL1        0.0235
     77 H          -4.3356    3.6668    0.3954 H       1  UNL1        0.0235
     78 H          -4.0776    2.5720    1.7756 H       1  UNL1        0.0235
     79 H          -5.0868    4.0256    1.9640 H       1  UNL1        0.0235
     80 H          -6.3997   -0.0134    2.3516 H       1  UNL1        0.0269
     81 H          -4.6664    0.6170    2.3380 H       1  UNL1        0.0269
     82 H          -5.6561   -1.4394    0.3745 H       1  UNL1        0.0285
     83 H          -5.0443   -1.9046    2.0241 H       1  UNL1        0.0285
@<TRIPOS>BOND
     1     1     2    1
     2     2     3    1
     3     2     4   am
     4     4     5    2
     5     4     6    1
     6     6     7   ar
     7     7     8   ar
     8     8     9   ar
     9     9    10   ar
    10    10    11   ar
    11    11    12    1
    12    12    13    1
    13    13    14   ar
    14    14    15   ar
    15    15    16   ar
    16    16    17    1
    17    17    18    2
    18    17    19   am
    19    19    20    1
    20    20    21    1
    21    21    22    1
    22    22    23    1
    23    23    24    1
    24    24    25    1
    25    24    26    1
    26    16    27   ar
    27    27    28   ar
    28    11    29   ar
    29    29    30   ar
    30    30    31   ar
    31    31    32    1
    32    32    33    1
    33    33    34    1
    34    34    35    1
    35    35    36    1
    36    36    37    1
    37    36    38    1
    38    36    39    1
    39    35    40    1
    40    40    41    1
    41    31     6   ar
    42    41    32    1
    43    30     8   ar
    44    28    13   ar
    45    25    19    1
    46    26    21    1
    47     1    42    1
    48     1    43    1
    49     1    44    1
    50     3    45    1
    51     3    46    1
    52     3    47    1
    53     7    48    1
    54     9    49    1
    55    12    50    1
    56    14    51    1
    57    15    52    1
    58    20    53    1
    59    20    54    1
    60    21    55    1
    61    22    56    1
    62    22    57    1
    63    23    58    1
    64    23    59    1
    65    24    60    1
    66    25    61    1
    67    25    62    1
    68    26    63    1
    69    27    64    1
    70    32    65    1
    71    33    66    1
    72    33    67    1
    73    34    68    1
    74    34    69    1
    75    35    70    1
    76    37    71    1
    77    37    72    1
    78    37    73    1
    79    38    74    1
    80    38    75    1
    81    38    76    1
    82    39    77    1
    83    39    78    1
    84    39    79    1
    85    40    80    1
    86    40    81    1
    87    41    82    1
    88    41    83    1
