
     RDKit          3D

 83 88  0  0  0  0  0  0  0  0999 V2000
   -6.6831   -3.6946   -1.8726 C   0  0  0  0  0  0  0  0  0  0  0  0
   -5.2921   -3.3238   -1.6471 N   0  0  0  0  0  0  0  0  0  0  0  0
   -4.6202   -2.6824   -2.7653 C   0  0  0  0  0  0  0  0  0  0  0  0
   -4.6591   -3.5851   -0.4155 C   0  0  0  0  0  0  0  0  0  0  0  0
   -5.2903   -4.1450    0.4998 O   0  0  0  0  0  0  0  0  0  0  0  0
   -3.2768   -3.2070   -0.2069 C   0  0  0  0  0  0  0  0  0  0  0  0
   -2.1594   -3.9936   -0.5108 C   0  0  0  0  0  0  0  0  0  0  0  0
   -1.0558   -3.2764   -0.1684 C   0  0  0  0  0  0  0  0  0  0  0  0
    0.3083   -3.5407   -0.2418 C   0  0  0  0  0  0  0  0  0  0  0  0
    1.1171   -2.5642    0.2023 N   0  0  0  0  0  0  0  0  0  0  0  0
    0.7530   -1.4008    0.6920 C   0  0  0  0  0  0  0  0  0  0  0  0
    1.5923   -0.3674    1.1579 N   0  0  0  0  0  0  0  0  0  0  0  0
    2.9835   -0.3897    1.1530 C   0  0  0  0  0  0  0  0  0  0  0  0
    3.7285   -1.4226    0.6808 C   0  0  0  0  0  0  0  0  0  0  0  0
    5.1366   -1.3926    0.6998 C   0  0  0  0  0  0  0  0  0  0  0  0
    5.7506   -0.2778    1.2149 C   0  0  0  0  0  0  0  0  0  0  0  0
    7.2022   -0.2262    1.2439 C   0  0  0  0  0  0  0  0  0  0  0  0
    7.8144   -1.1383    1.8498 O   0  0  0  0  0  0  0  0  0  0  0  0
    7.9341    0.8079    0.6172 N   0  0  0  0  0  0  0  0  0  0  0  0
    9.3945    0.8502    0.6517 C   0  0  0  0  0  0  0  0  0  0  0  0
    9.8903    1.0457   -0.7522 C   0  0  0  0  0  0  0  0  0  0  0  0
   10.2823    2.5117   -0.9087 C   0  0  0  0  0  0  0  0  0  0  0  0
    8.9861    3.2209   -1.2700 C   0  0  0  0  0  0  0  0  0  0  0  0
    7.9944    2.0943   -1.3974 C   0  0  0  0  0  0  0  0  0  0  0  0
    7.2631    1.8810   -0.0904 C   0  0  0  0  0  0  0  0  0  0  0  0
    8.8228    0.9690   -1.7489 N   0  0  0  0  0  0  0  0  0  0  0  0
    4.9922    0.7690    1.6935 C   0  0  0  0  0  0  0  0  0  0  0  0
    3.6626    0.6743    1.6449 N   0  0  0  0  0  0  0  0  0  0  0  0
   -0.6030   -1.1855    0.7445 N   0  0  0  0  0  0  0  0  0  0  0  0
   -1.4964   -2.0910    0.3284 C   0  0  0  0  0  0  0  0  0  0  0  0
   -2.8538   -2.0587    0.3005 N   0  0  0  0  0  0  0  0  0  0  0  0
   -3.5826   -0.8985    0.7740 C   0  0  1  0  0  0  0  0  0  0  0  0
   -3.5283    0.2301   -0.2116 C   0  0  0  0  0  0  0  0  0  0  0  0
   -4.8472    0.8191   -0.5859 C   0  0  0  0  0  0  0  0  0  0  0  0
   -5.8219    0.9949    0.5096 C   0  0  2  0  0  0  0  0  0  0  0  0
   -6.0766    2.4499    0.8664 C   0  0  0  0  0  0  0  0  0  0  0  0
   -7.0774    2.5651    1.9884 C   0  0  0  0  0  0  0  0  0  0  0  0
   -6.6602    3.1486   -0.3445 C   0  0  0  0  0  0  0  0  0  0  0  0
   -4.8335    3.1795    1.2684 C   0  0  0  0  0  0  0  0  0  0  0  0
   -5.4952    0.1717    1.7529 C   0  0  0  0  0  0  0  0  0  0  0  0
   -4.9888   -1.1739    1.1931 C   0  0  0  0  0  0  0  0  0  0  0  0
   -6.7620   -4.6513   -2.4314 H   0  0  0  0  0  0  0  0  0  0  0  0
   -7.1797   -3.8169   -0.9104 H   0  0  0  0  0  0  0  0  0  0  0  0
   -7.1463   -2.8777   -2.4633 H   0  0  0  0  0  0  0  0  0  0  0  0
   -5.3124   -2.0185   -3.2935 H   0  0  0  0  0  0  0  0  0  0  0  0
   -3.7713   -2.0923   -2.3690 H   0  0  0  0  0  0  0  0  0  0  0  0
   -4.1644   -3.4455   -3.4345 H   0  0  0  0  0  0  0  0  0  0  0  0
   -2.1651   -4.9753   -0.9324 H   0  0  0  0  0  0  0  0  0  0  0  0
    0.6557   -4.4774   -0.6336 H   0  0  0  0  0  0  0  0  0  0  0  0
    1.1228    0.5080    1.5485 H   0  0  0  0  0  0  0  0  0  0  0  0
    3.3103   -2.3245    0.2641 H   0  0  0  0  0  0  0  0  0  0  0  0
    5.6928   -2.2350    0.3143 H   0  0  0  0  0  0  0  0  0  0  0  0
    9.8100   -0.0614    1.1315 H   0  0  0  0  0  0  0  0  0  0  0  0
    9.6576    1.7271    1.3003 H   0  0  0  0  0  0  0  0  0  0  0  0
   10.7328    0.3726   -1.0164 H   0  0  0  0  0  0  0  0  0  0  0  0
   10.7007    2.8924    0.0339 H   0  0  0  0  0  0  0  0  0  0  0  0
   10.9891    2.5698   -1.7529 H   0  0  0  0  0  0  0  0  0  0  0  0
    8.6719    3.9402   -0.4749 H   0  0  0  0  0  0  0  0  0  0  0  0
    9.0863    3.7294   -2.2690 H   0  0  0  0  0  0  0  0  0  0  0  0
    7.2181    2.3005   -2.1632 H   0  0  0  0  0  0  0  0  0  0  0  0
    7.3749    2.8024    0.5457 H   0  0  0  0  0  0  0  0  0  0  0  0
    6.1867    1.6981   -0.2383 H   0  0  0  0  0  0  0  0  0  0  0  0
    8.3010    0.0557   -1.6902 H   0  0  0  0  0  0  0  0  0  0  0  0
    5.4457    1.6666    2.1087 H   0  0  0  0  0  0  0  0  0  0  0  0
   -3.0531   -0.5807    1.7286 H   0  0  0  0  0  0  0  0  0  0  0  0
   -2.8006    0.9819    0.1619 H   0  0  0  0  0  0  0  0  0  0  0  0
   -3.0650   -0.1692   -1.1419 H   0  0  0  0  0  0  0  0  0  0  0  0
   -5.2730    0.2489   -1.4546 H   0  0  0  0  0  0  0  0  0  0  0  0
   -4.6315    1.8402   -1.0184 H   0  0  0  0  0  0  0  0  0  0  0  0
   -6.8124    0.6038    0.1714 H   0  0  0  0  0  0  0  0  0  0  0  0
   -6.5835    2.5877    2.9909 H   0  0  0  0  0  0  0  0  0  0  0  0
   -7.6167    3.5357    1.8438 H   0  0  0  0  0  0  0  0  0  0  0  0
   -7.7557    1.6926    1.9176 H   0  0  0  0  0  0  0  0  0  0  0  0
   -7.2918    2.4908   -0.9516 H   0  0  0  0  0  0  0  0  0  0  0  0
   -7.2181    4.0426    0.0211 H   0  0  0  0  0  0  0  0  0  0  0  0
   -5.7940    3.5672   -0.9180 H   0  0  0  0  0  0  0  0  0  0  0  0
   -4.3356    3.6668    0.3954 H   0  0  0  0  0  0  0  0  0  0  0  0
   -4.0776    2.5720    1.7756 H   0  0  0  0  0  0  0  0  0  0  0  0
   -5.0868    4.0256    1.9640 H   0  0  0  0  0  0  0  0  0  0  0  0
   -6.3997   -0.0134    2.3516 H   0  0  0  0  0  0  0  0  0  0  0  0
   -4.6664    0.6170    2.3380 H   0  0  0  0  0  0  0  0  0  0  0  0
   -5.6561   -1.4394    0.3745 H   0  0  0  0  0  0  0  0  0  0  0  0
   -5.0443   -1.9046    2.0241 H   0  0  0  0  0  0  0  0  0  0  0  0
  1  2  1  0
  2  3  1  0
  2  4  1  0
  4  5  2  0
  4  6  1  0
  6  7  2  0
  7  8  1  0
  8  9  2  0
  9 10  1  0
 10 11  2  0
 11 12  1  0
 12 13  1  0
 13 14  2  0
 14 15  1  0
 15 16  2  0
 16 17  1  0
 17 18  2  0
 17 19  1  0
 19 20  1  0
 20 21  1  0
 21 22  1  0
 22 23  1  0
 23 24  1  0
 24 25  1  0
 24 26  1  0
 16 27  1  0
 27 28  2  0
 11 29  1  0
 29 30  2  0
 30 31  1  0
 31 32  1  0
 32 33  1  0
 33 34  1  0
 34 35  1  0
 35 36  1  0
 36 37  1  0
 36 38  1  0
 36 39  1  0
 35 40  1  0
 40 41  1  0
 31  6  1  0
 41 32  1  0
 30  8  1  0
 28 13  1  0
 25 19  1  0
 26 21  1  0
  1 42  1  0
  1 43  1  0
  1 44  1  0
  3 45  1  0
  3 46  1  0
  3 47  1  0
  7 48  1  0
  9 49  1  0
 12 50  1  0
 14 51  1  0
 15 52  1  0
 20 53  1  0
 20 54  1  0
 21 55  1  0
 22 56  1  0
 22 57  1  0
 23 58  1  0
 23 59  1  0
 24 60  1  0
 25 61  1  0
 25 62  1  0
 26 63  1  0
 27 64  1  0
 32 65  1  1
 33 66  1  0
 33 67  1  0
 34 68  1  0
 34 69  1  0
 35 70  1  6
 37 71  1  0
 37 72  1  0
 37 73  1  0
 38 74  1  0
 38 75  1  0
 38 76  1  0
 39 77  1  0
 39 78  1  0
 39 79  1  0
 40 80  1  0
 40 81  1  0
 41 82  1  0
 41 83  1  0
M  END
$$$$
