@<TRIPOS>MOLECULE
*****
 59 61 0 0 0
SMALL
GASTEIGER

@<TRIPOS>ATOM
      1 O           2.6148    2.1366    1.4854 O.3     1  UNL1       -0.3864
      2 C           3.2601    1.5392    0.4261 C.3     1  UNL1        0.1135
      3 C           2.8874    0.0537    0.4144 C.3     1  UNL1        0.1134
      4 C           1.6150   -0.0646   -0.3754 C.3     1  UNL1        0.0879
      5 O           1.2062   -1.3458   -0.6442 O.3     1  UNL1       -0.2837
      6 P          -0.2413   -1.1952   -1.5391 P.3     1  UNL1        0.4835
      7 O           0.0342   -0.9829   -3.1757 O.3     1  UNL1       -0.3022
      8 O          -1.1463   -2.3736   -1.2709 O.2     1  UNL1       -0.2269
      9 O          -1.0645    0.1771   -0.9495 O.3     1  UNL1       -0.1860
     10 P          -1.9869   -0.1729    0.4008 P.3     1  UNL1        0.4857
     11 O          -1.4662    0.6882    1.7715 O.3     1  UNL1       -0.3022
     12 O          -2.0276   -1.6420    0.7460 O.2     1  UNL1       -0.2268
     13 O          -3.6011    0.3263    0.1426 O.3     1  UNL1       -0.2536
     14 C          -4.3468   -0.7767   -0.2928 C.3     1  UNL1        0.1993
     15 O          -5.2833   -1.0658    0.7012 O.3     1  UNL1       -0.3310
     16 C          -6.1319    0.0420    0.8360 C.3     1  UNL1        0.1859
     17 C          -7.1047    0.0082   -0.3208 C.3     1  UNL1        0.1201
     18 O          -7.3995    1.3175   -0.6948 O.3     1  UNL1       -0.3860
     19 C          -6.4906   -0.6977   -1.4999 C.3     1  UNL1        0.1145
     20 O          -6.7682   -2.0637   -1.4663 O.3     1  UNL1       -0.3864
     21 C          -5.0084   -0.5021   -1.6093 C.3     1  UNL1        0.1347
     22 O          -4.7113    0.7681   -2.0980 O.3     1  UNL1       -0.3841
     23 C          -6.8457    0.0032    2.1409 C.2     1  UNL1        0.3367
     24 O          -6.7534   -0.9489    3.1469 O.3     1  UNL1       -0.4788
     25 O          -7.6748    0.8761    2.5297 O.2     1  UNL1       -0.2480
     26 O           3.9973   -0.5063   -0.1654 O.3     1  UNL1       -0.3456
     27 C           5.0025   -0.0137    0.6824 C.3     1  UNL1        0.1679
     28 C           4.7753    1.4612    0.6231 C.3     1  UNL1        0.1286
     29 O           5.0511    2.0687    1.8468 O.3     1  UNL1       -0.3847
     30 N           6.3210   -0.4389    0.3138 N.ar    1  UNL1       -0.2715
     31 C           7.3685    0.3433   -0.0066 C.ar    1  UNL1        0.0171
     32 C           8.5913   -0.1685   -0.3456 C.ar    1  UNL1        0.0192
     33 C           8.7112   -1.5446   -0.3462 C.ar    1  UNL1        0.2539
     34 O           9.8529   -2.0018   -0.6631 O.2     1  UNL1       -0.2677
     35 N           7.6709   -2.3368   -0.0276 N.ar    1  UNL1       -0.2749
     36 C           6.4696   -1.7793    0.3040 C.ar    1  UNL1        0.3314
     37 O           5.6126   -2.6603    0.5721 O.2     1  UNL1       -0.2464
     38 H           1.7051    1.7139    1.5554 H       1  UNL1        0.2100
     39 H           2.9906    1.9636   -0.5492 H       1  UNL1        0.0647
     40 H           2.7945   -0.2521    1.4548 H       1  UNL1        0.0647
     41 H           1.6828    0.4875   -1.3352 H       1  UNL1        0.0592
     42 H           0.8161    0.3909    0.2651 H       1  UNL1        0.0592
     43 H           0.8812   -0.4485   -3.2982 H       1  UNL1        0.2220
     44 H          -1.3567    1.6483    1.5497 H       1  UNL1        0.2220
     45 H          -3.6312   -1.6227   -0.3264 H       1  UNL1        0.0943
     46 H          -5.5158    0.9411    0.8189 H       1  UNL1        0.0741
     47 H          -8.0376   -0.5235    0.0170 H       1  UNL1        0.0652
     48 H          -7.9827    1.7351   -0.0152 H       1  UNL1        0.2100
     49 H          -6.9621   -0.3173   -2.4346 H       1  UNL1        0.0648
     50 H          -5.9462   -2.6153   -1.4513 H       1  UNL1        0.2100
     51 H          -4.6319   -1.2659   -2.3333 H       1  UNL1        0.0671
     52 H          -4.3234    0.7021   -2.9937 H       1  UNL1        0.2101
     53 H          -6.5205   -0.6533    4.0919 H       1  UNL1        0.2951
     54 H           4.7072   -0.3467    1.7015 H       1  UNL1        0.0867
     55 H           5.2314    1.9809   -0.2264 H       1  UNL1        0.0665
     56 H           4.7044    1.4357    2.5374 H       1  UNL1        0.2101
     57 H           7.1767    1.4019    0.0224 H       1  UNL1        0.0813
     58 H           9.3640    0.5496   -0.5854 H       1  UNL1        0.0686
     59 H           7.8648   -3.3694   -0.0579 H       1  UNL1        0.1734
@<TRIPOS>BOND
     1     1     2    1
     2     2     3    1
     3     3     4    1
     4     4     5    1
     5     5     6    1
     6     6     7    1
     7     6     8    2
     8     6     9    1
     9     9    10    1
    10    10    11    1
    11    10    12    2
    12    10    13    1
    13    13    14    1
    14    14    15    1
    15    15    16    1
    16    16    17    1
    17    17    18    1
    18    17    19    1
    19    19    20    1
    20    19    21    1
    21    21    22    1
    22    16    23    1
    23    23    24    1
    24    23    25    2
    25     3    26    1
    26    26    27    1
    27    27    28    1
    28    28    29    1
    29    27    30    1
    30    30    31   ar
    31    31    32   ar
    32    32    33   ar
    33    33    34    2
    34    33    35   ar
    35    35    36   ar
    36    36    37    2
    37    28     2    1
    38    36    30   ar
    39    21    14    1
    40     1    38    1
    41     2    39    1
    42     3    40    1
    43     4    41    1
    44     4    42    1
    45     7    43    1
    46    11    44    1
    47    14    45    1
    48    16    46    1
    49    17    47    1
    50    18    48    1
    51    19    49    1
    52    20    50    1
    53    21    51    1
    54    22    52    1
    55    24    53    1
    56    27    54    1
    57    28    55    1
    58    29    56    1
    59    31    57    1
    60    32    58    1
    61    35    59    1
