@<TRIPOS>MOLECULE
*****
 25 26 0 0 0
SMALL
GASTEIGER

@<TRIPOS>ATOM
      1 N           5.0035   -0.5844    1.4189 N.3     1  UNL1       -0.2541
      2 N           3.6432   -0.4977    1.0654 N.am    1  UNL1       -0.2483
      3 C           3.2706   -0.3666   -0.3042 C.2     1  UNL1        0.2751
      4 O           4.1873   -0.3301   -1.1921 O.2     1  UNL1       -0.2672
      5 C           1.8776   -0.2744   -0.7061 C.ar    1  UNL1        0.1219
      6 C           0.8118   -0.3033    0.1655 C.ar    1  UNL1       -0.0041
      7 C          -0.3192   -0.1915   -0.5992 C.ar    1  UNL1        0.0946
      8 C          -1.7176   -0.1644   -0.2267 C.ar    1  UNL1        0.0205
      9 C          -2.6579   -0.0376   -1.2624 C.ar    1  UNL1       -0.0497
     10 C          -4.0098   -0.0031   -1.0004 C.ar    1  UNL1       -0.0427
     11 C          -4.4530   -0.0945    0.3018 C.ar    1  UNL1        0.0424
     12 CL         -6.1644   -0.0560    0.6946 Cl      1  UNL1       -0.0835
     13 C          -3.5686   -0.2186    1.3331 C.ar    1  UNL1       -0.0244
     14 C          -2.1962   -0.2495    1.0189 C.ar    1  UNL1        0.0516
     15 CL         -1.0889   -0.4106    2.3783 Cl      1  UNL1       -0.0828
     16 N           0.1270   -0.1000   -1.9039 N.ar    1  UNL1       -0.1732
     17 N           1.4312   -0.1494   -1.9661 N.ar    1  UNL1       -0.2719
     18 H           5.3377   -1.5501    1.5003 H       1  UNL1        0.1405
     19 H           5.6060    0.0379    0.8633 H       1  UNL1        0.1405
     20 H           2.8795   -0.5249    1.7673 H       1  UNL1        0.1691
     21 H           0.9214   -0.3965    1.2162 H       1  UNL1        0.0662
     22 H          -2.3398    0.0361   -2.2930 H       1  UNL1        0.0625
     23 H          -4.7273    0.0944   -1.7996 H       1  UNL1        0.0632
     24 H          -3.8622   -0.2938    2.3696 H       1  UNL1        0.0647
     25 H           2.0082   -0.0998   -2.8396 H       1  UNL1        0.1891
@<TRIPOS>BOND
     1     1     2    1
     2     2     3   am
     3     3     4    2
     4     3     5    1
     5     5     6   ar
     6     6     7   ar
     7     7     8    1
     8     8     9   ar
     9     9    10   ar
    10    10    11   ar
    11    11    12    1
    12    11    13   ar
    13    13    14   ar
    14    14    15    1
    15     7    16   ar
    16    16    17   ar
    17    17     5   ar
    18    14     8   ar
    19     1    18    1
    20     1    19    1
    21     2    20    1
    22     6    21    1
    23     9    22    1
    24    10    23    1
    25    13    24    1
    26    17    25    1
