@<TRIPOS>MOLECULE
*****
 55 58 0 0 0
SMALL
GASTEIGER

@<TRIPOS>ATOM
      1 C           4.0129    2.2184    0.2997 C.3     1  UNL1        0.0028
      2 N           4.4495    1.0103    0.9993 N.pl3   1  UNL1       -0.3089
      3 C           4.6150   -0.2382    0.2665 C.3     1  UNL1        0.0387
      4 C           3.3108   -0.5897   -0.3092 C.ar    1  UNL1       -0.0301
      5 C           2.3684   -1.3686    0.3272 C.ar    1  UNL1       -0.0564
      6 C           1.1604   -1.6597   -0.2779 C.ar    1  UNL1       -0.0493
      7 C           0.8300   -1.1978   -1.5312 C.ar    1  UNL1        0.0370
      8 C          -0.4367   -1.5006   -2.1795 C.2     1  UNL1        0.2483
      9 O          -0.6538   -1.0191   -3.3344 O.2     1  UNL1       -0.2699
     10 N          -1.4643   -2.2944   -1.6334 N.am    1  UNL1       -0.2808
     11 C          -2.6894   -2.5725   -2.2918 C.ar    1  UNL1        0.0459
     12 C          -2.8039   -3.6794   -3.1138 C.ar    1  UNL1       -0.0384
     13 C          -4.0298   -3.9177   -3.7430 C.ar    1  UNL1       -0.0416
     14 C          -5.1067   -3.0706   -3.5522 C.ar    1  UNL1        0.0418
     15 CL         -6.6076   -3.4272   -4.3682 Cl      1  UNL1       -0.0835
     16 C          -4.9401   -1.9740   -2.7174 C.ar    1  UNL1       -0.0295
     17 C          -3.7428   -1.7211   -2.0892 C.ar    1  UNL1        0.0596
     18 C          -3.5867   -0.5766   -1.2240 C.2     1  UNL1        0.2511
     19 O          -2.4607   -0.3826   -0.6585 O.2     1  UNL1       -0.2697
     20 N          -4.5775    0.3782   -0.9293 N.am    1  UNL1       -0.2663
     21 C          -4.3533    1.4962   -0.0559 C.ar    1  UNL1        0.1252
     22 C          -4.5901    1.3944    1.2976 C.ar    1  UNL1       -0.0201
     23 C          -4.3892    2.4445    2.1825 C.ar    1  UNL1       -0.0387
     24 C          -3.9293    3.6414    1.6616 C.ar    1  UNL1        0.0592
     25 CL         -3.6541    4.9983    2.7033 Cl      1  UNL1       -0.0820
     26 C          -3.6952    3.7341    0.3057 C.ar    1  UNL1        0.0480
     27 N          -3.9081    2.6747   -0.5182 N.ar    1  UNL1       -0.2387
     28 C           1.7752   -0.4180   -2.1659 C.ar    1  UNL1       -0.0493
     29 C           2.9956   -0.1187   -1.5655 C.ar    1  UNL1       -0.0564
     30 C           4.7163    1.0233    2.3886 C.2     1  UNL1        0.1520
     31 N           4.6688    2.0175    3.1656 N.2     1  UNL1       -0.2626
     32 C           4.9592    1.8770    4.5251 C.3     1  UNL1        0.0516
     33 C           5.8225    0.6644    4.7990 C.3     1  UNL1        0.0205
     34 S           5.2030   -0.3699    3.3996 S.3     1  UNL1       -0.0889
     35 H           2.9247    2.1936    0.1362 H       1  UNL1        0.0428
     36 H           4.2793    3.0698    0.9538 H       1  UNL1        0.0428
     37 H           4.5792    2.2269   -0.6634 H       1  UNL1        0.0428
     38 H           5.3508   -0.0715   -0.5749 H       1  UNL1        0.0513
     39 H           5.0038   -1.0262    0.9346 H       1  UNL1        0.0513
     40 H           2.6031   -1.7433    1.3108 H       1  UNL1        0.0621
     41 H           0.4131   -2.2813    0.2355 H       1  UNL1        0.0625
     42 H          -1.3325   -2.7110   -0.6899 H       1  UNL1        0.1552
     43 H          -1.9643   -4.3511   -3.2702 H       1  UNL1        0.0637
     44 H          -4.1217   -4.7895   -4.3913 H       1  UNL1        0.0633
     45 H          -5.7940   -1.3280   -2.5830 H       1  UNL1        0.0640
     46 H          -5.5147    0.2659   -1.3668 H       1  UNL1        0.1566
     47 H          -4.9475    0.4570    1.6845 H       1  UNL1        0.0652
     48 H          -4.5776    2.3561    3.2486 H       1  UNL1        0.0634
     49 H          -3.3363    4.6921   -0.0581 H       1  UNL1        0.0845
     50 H           1.5383   -0.0413   -3.1573 H       1  UNL1        0.0625
     51 H           3.6938    0.5100   -2.1389 H       1  UNL1        0.0621
     52 H           3.9926    1.7135    5.0700 H       1  UNL1        0.0517
     53 H           5.4539    2.8139    4.8770 H       1  UNL1        0.0517
     54 H           5.5966    0.1732    5.7531 H       1  UNL1        0.0399
     55 H           6.8909    0.8600    4.6267 H       1  UNL1        0.0399
@<TRIPOS>BOND
     1     1     2    1
     2     2     3    1
     3     3     4    1
     4     4     5   ar
     5     5     6   ar
     6     6     7   ar
     7     7     8    1
     8     8     9    2
     9     8    10   am
    10    10    11    1
    11    11    12   ar
    12    12    13   ar
    13    13    14   ar
    14    14    15    1
    15    14    16   ar
    16    16    17   ar
    17    17    18    1
    18    18    19    2
    19    18    20   am
    20    20    21    1
    21    21    22   ar
    22    22    23   ar
    23    23    24   ar
    24    24    25    1
    25    24    26   ar
    26    26    27   ar
    27     7    28   ar
    28    28    29   ar
    29     2    30    1
    30    30    31    2
    31    31    32    1
    32    32    33    1
    33    33    34    1
    34    29     4   ar
    35    34    30    1
    36    17    11   ar
    37    27    21   ar
    38     1    35    1
    39     1    36    1
    40     1    37    1
    41     3    38    1
    42     3    39    1
    43     5    40    1
    44     6    41    1
    45    10    42    1
    46    12    43    1
    47    13    44    1
    48    16    45    1
    49    20    46    1
    50    22    47    1
    51    23    48    1
    52    26    49    1
    53    28    50    1
    54    29    51    1
    55    32    52    1
    56    32    53    1
    57    33    54    1
    58    33    55    1
