
     RDKit          3D

 55 58  0  0  0  0  0  0  0  0999 V2000
    4.0129    2.2184    0.2997 C   0  0  0  0  0  0  0  0  0  0  0  0
    4.4495    1.0103    0.9993 N   0  0  0  0  0  0  0  0  0  0  0  0
    4.6150   -0.2382    0.2665 C   0  0  0  0  0  0  0  0  0  0  0  0
    3.3108   -0.5897   -0.3092 C   0  0  0  0  0  0  0  0  0  0  0  0
    2.3684   -1.3686    0.3272 C   0  0  0  0  0  0  0  0  0  0  0  0
    1.1604   -1.6597   -0.2779 C   0  0  0  0  0  0  0  0  0  0  0  0
    0.8300   -1.1978   -1.5312 C   0  0  0  0  0  0  0  0  0  0  0  0
   -0.4367   -1.5006   -2.1795 C   0  0  0  0  0  0  0  0  0  0  0  0
   -0.6538   -1.0191   -3.3344 O   0  0  0  0  0  0  0  0  0  0  0  0
   -1.4643   -2.2944   -1.6334 N   0  0  0  0  0  0  0  0  0  0  0  0
   -2.6894   -2.5725   -2.2918 C   0  0  0  0  0  0  0  0  0  0  0  0
   -2.8039   -3.6794   -3.1138 C   0  0  0  0  0  0  0  0  0  0  0  0
   -4.0298   -3.9177   -3.7430 C   0  0  0  0  0  0  0  0  0  0  0  0
   -5.1067   -3.0706   -3.5522 C   0  0  0  0  0  0  0  0  0  0  0  0
   -6.6076   -3.4272   -4.3682 Cl  0  0  0  0  0  0  0  0  0  0  0  0
   -4.9401   -1.9740   -2.7174 C   0  0  0  0  0  0  0  0  0  0  0  0
   -3.7428   -1.7211   -2.0892 C   0  0  0  0  0  0  0  0  0  0  0  0
   -3.5867   -0.5766   -1.2240 C   0  0  0  0  0  0  0  0  0  0  0  0
   -2.4607   -0.3826   -0.6585 O   0  0  0  0  0  0  0  0  0  0  0  0
   -4.5775    0.3782   -0.9293 N   0  0  0  0  0  0  0  0  0  0  0  0
   -4.3533    1.4962   -0.0559 C   0  0  0  0  0  0  0  0  0  0  0  0
   -4.5901    1.3944    1.2976 C   0  0  0  0  0  0  0  0  0  0  0  0
   -4.3892    2.4445    2.1825 C   0  0  0  0  0  0  0  0  0  0  0  0
   -3.9293    3.6414    1.6616 C   0  0  0  0  0  0  0  0  0  0  0  0
   -3.6541    4.9983    2.7033 Cl  0  0  0  0  0  0  0  0  0  0  0  0
   -3.6952    3.7341    0.3057 C   0  0  0  0  0  0  0  0  0  0  0  0
   -3.9081    2.6747   -0.5182 N   0  0  0  0  0  0  0  0  0  0  0  0
    1.7752   -0.4180   -2.1659 C   0  0  0  0  0  0  0  0  0  0  0  0
    2.9956   -0.1187   -1.5655 C   0  0  0  0  0  0  0  0  0  0  0  0
    4.7163    1.0233    2.3886 C   0  0  0  0  0  0  0  0  0  0  0  0
    4.6688    2.0175    3.1656 N   0  0  0  0  0  0  0  0  0  0  0  0
    4.9592    1.8770    4.5251 C   0  0  0  0  0  0  0  0  0  0  0  0
    5.8225    0.6644    4.7990 C   0  0  0  0  0  0  0  0  0  0  0  0
    5.2030   -0.3699    3.3996 S   0  0  0  0  0  0  0  0  0  0  0  0
    2.9247    2.1936    0.1362 H   0  0  0  0  0  0  0  0  0  0  0  0
    4.2793    3.0698    0.9538 H   0  0  0  0  0  0  0  0  0  0  0  0
    4.5792    2.2269   -0.6634 H   0  0  0  0  0  0  0  0  0  0  0  0
    5.3508   -0.0715   -0.5749 H   0  0  0  0  0  0  0  0  0  0  0  0
    5.0038   -1.0262    0.9346 H   0  0  0  0  0  0  0  0  0  0  0  0
    2.6031   -1.7433    1.3108 H   0  0  0  0  0  0  0  0  0  0  0  0
    0.4131   -2.2813    0.2355 H   0  0  0  0  0  0  0  0  0  0  0  0
   -1.3325   -2.7110   -0.6899 H   0  0  0  0  0  0  0  0  0  0  0  0
   -1.9643   -4.3511   -3.2702 H   0  0  0  0  0  0  0  0  0  0  0  0
   -4.1217   -4.7895   -4.3913 H   0  0  0  0  0  0  0  0  0  0  0  0
   -5.7940   -1.3280   -2.5830 H   0  0  0  0  0  0  0  0  0  0  0  0
   -5.5147    0.2659   -1.3668 H   0  0  0  0  0  0  0  0  0  0  0  0
   -4.9475    0.4570    1.6845 H   0  0  0  0  0  0  0  0  0  0  0  0
   -4.5776    2.3561    3.2486 H   0  0  0  0  0  0  0  0  0  0  0  0
   -3.3363    4.6921   -0.0581 H   0  0  0  0  0  0  0  0  0  0  0  0
    1.5383   -0.0413   -3.1573 H   0  0  0  0  0  0  0  0  0  0  0  0
    3.6938    0.5100   -2.1389 H   0  0  0  0  0  0  0  0  0  0  0  0
    3.9926    1.7135    5.0700 H   0  0  0  0  0  0  0  0  0  0  0  0
    5.4539    2.8139    4.8770 H   0  0  0  0  0  0  0  0  0  0  0  0
    5.5966    0.1732    5.7531 H   0  0  0  0  0  0  0  0  0  0  0  0
    6.8909    0.8600    4.6267 H   0  0  0  0  0  0  0  0  0  0  0  0
  1  2  1  0
  2  3  1  0
  3  4  1  0
  4  5  2  0
  5  6  1  0
  6  7  2  0
  7  8  1  0
  8  9  2  0
  8 10  1  0
 10 11  1  0
 11 12  2  0
 12 13  1  0
 13 14  2  0
 14 15  1  0
 14 16  1  0
 16 17  2  0
 17 18  1  0
 18 19  2  0
 18 20  1  0
 20 21  1  0
 21 22  2  0
 22 23  1  0
 23 24  2  0
 24 25  1  0
 24 26  1  0
 26 27  2  0
  7 28  1  0
 28 29  2  0
  2 30  1  0
 30 31  2  0
 31 32  1  0
 32 33  1  0
 33 34  1  0
 29  4  1  0
 34 30  1  0
 17 11  1  0
 27 21  1  0
  1 35  1  0
  1 36  1  0
  1 37  1  0
  3 38  1  0
  3 39  1  0
  5 40  1  0
  6 41  1  0
 10 42  1  0
 12 43  1  0
 13 44  1  0
 16 45  1  0
 20 46  1  0
 22 47  1  0
 23 48  1  0
 26 49  1  0
 28 50  1  0
 29 51  1  0
 32 52  1  0
 32 53  1  0
 33 54  1  0
 33 55  1  0
M  END
$$$$
