
     RDKit          3D

 49 52  0  0  0  0  0  0  0  0999 V2000
    2.4219    1.4866    3.3080 C   0  0  0  0  0  0  0  0  0  0  0  0
    1.0090    1.9827    2.4095 S   0  0  0  0  0  6  0  0  0  0  0  0
   -0.0580    2.3534    3.4203 O   0  0  0  0  0  0  0  0  0  0  0  0
    1.3534    3.3089    1.7277 O   0  0  0  0  0  0  0  0  0  0  0  0
    0.4172    0.8513    1.2546 N   0  0  0  0  0  0  0  0  0  0  0  0
   -0.7851    1.3343    0.5785 C   0  0  0  0  0  0  0  0  0  0  0  0
   -1.4579    2.2763    1.0956 O   0  0  0  0  0  0  0  0  0  0  0  0
   -1.2308    0.7892   -0.6339 N   0  0  0  0  0  0  0  0  0  0  0  0
   -2.4153    1.1922   -1.3140 C   0  0  0  0  0  0  0  0  0  0  0  0
   -2.3700    2.3572   -2.0473 C   0  0  0  0  0  0  0  0  0  0  0  0
   -3.4417    2.8166   -2.7689 C   0  0  0  0  0  0  0  0  0  0  0  0
   -4.5894    2.0753   -2.7463 C   0  0  0  0  0  0  0  0  0  0  0  0
   -4.6594    0.8962   -2.0139 C   0  0  0  0  0  0  0  0  0  0  0  0
   -5.9134    0.1206   -2.0335 C   0  0  0  0  0  0  0  0  0  0  0  0
   -6.4135    0.0243   -3.3198 F   0  0  0  0  0  0  0  0  0  0  0  0
   -5.6265   -1.1517   -1.5314 F   0  0  0  0  0  0  0  0  0  0  0  0
   -6.8088    0.7159   -1.1760 F   0  0  0  0  0  0  0  0  0  0  0  0
   -3.5717    0.4387   -1.2871 C   0  0  0  0  0  0  0  0  0  0  0  0
   -0.4326   -0.2933   -1.1475 C   0  0  0  0  0  0  0  0  0  0  0  0
    0.6077   -0.7759   -0.5320 C   0  0  0  0  0  0  0  0  0  0  0  0
    1.2080   -1.8640   -1.3526 C   0  0  0  0  0  0  0  0  0  0  0  0
    1.9747   -2.7814   -0.9190 O   0  0  0  0  0  0  0  0  0  0  0  0
    0.7022   -1.6111   -2.7244 C   0  0  0  0  0  0  0  0  0  0  0  0
   -0.6788   -0.9858   -2.4586 C   0  0  0  0  0  0  0  0  0  0  0  0
    0.9177   -0.3828    0.8690 C   0  0  1  0  0  0  0  0  0  0  0  0
    2.1544   -0.9210    1.3661 C   0  0  0  0  0  0  0  0  0  0  0  0
    3.2808   -0.9606    0.6246 C   0  0  0  0  0  0  0  0  0  0  0  0
    4.4691   -1.5571    1.0805 C   0  0  0  0  0  0  0  0  0  0  0  0
    4.4773   -2.1273    2.3479 C   0  0  0  0  0  0  0  0  0  0  0  0
    5.7057   -2.7860    2.8590 C   0  0  0  0  0  0  0  0  0  0  0  0
    6.6283   -3.2889    3.2602 N   0  0  0  0  0  0  0  0  0  0  0  0
    3.3483   -2.0919    3.1077 C   0  0  0  0  0  0  0  0  0  0  0  0
    2.1784   -1.4990    2.6452 C   0  0  0  0  0  0  0  0  0  0  0  0
    2.8758    2.3650    3.8847 H   0  0  0  0  0  0  0  0  0  0  0  0
    3.2661    1.1351    2.6961 H   0  0  0  0  0  0  0  0  0  0  0  0
    2.1622    0.8002    4.1686 H   0  0  0  0  0  0  0  0  0  0  0  0
   -1.4648    2.9820   -2.0869 H   0  0  0  0  0  0  0  0  0  0  0  0
   -3.3764    3.7341   -3.3307 H   0  0  0  0  0  0  0  0  0  0  0  0
   -5.4214    2.4683   -3.3324 H   0  0  0  0  0  0  0  0  0  0  0  0
   -3.5711   -0.4588   -0.7170 H   0  0  0  0  0  0  0  0  0  0  0  0
    1.3480   -0.9634   -3.3131 H   0  0  0  0  0  0  0  0  0  0  0  0
    0.5624   -2.5950   -3.2177 H   0  0  0  0  0  0  0  0  0  0  0  0
   -1.3828   -1.8218   -2.3371 H   0  0  0  0  0  0  0  0  0  0  0  0
   -0.9386   -0.3080   -3.2692 H   0  0  0  0  0  0  0  0  0  0  0  0
    0.1157   -1.1212    1.4072 H   0  0  0  0  0  0  0  0  0  0  0  0
    3.3769   -0.5270   -0.3856 H   0  0  0  0  0  0  0  0  0  0  0  0
    5.3451   -1.5779    0.4775 H   0  0  0  0  0  0  0  0  0  0  0  0
    3.3695   -2.5382    4.0976 H   0  0  0  0  0  0  0  0  0  0  0  0
    1.3323   -1.5157    3.3100 H   0  0  0  0  0  0  0  0  0  0  0  0
  1  2  1  0
  2  3  2  0
  2  4  2  0
  2  5  1  0
  5  6  1  0
  6  7  2  0
  6  8  1  0
  8  9  1  0
  9 10  2  0
 10 11  1  0
 11 12  2  0
 12 13  1  0
 13 14  1  0
 14 15  1  0
 14 16  1  0
 14 17  1  0
 13 18  2  0
  8 19  1  0
 19 20  2  0
 20 21  1  0
 21 22  2  0
 21 23  1  0
 23 24  1  0
 20 25  1  0
 25 26  1  0
 26 27  2  0
 27 28  1  0
 28 29  2  0
 29 30  1  0
 30 31  3  0
 29 32  1  0
 32 33  2  0
 25  5  1  0
 33 26  1  0
 18  9  1  0
 24 19  1  0
  1 34  1  0
  1 35  1  0
  1 36  1  0
 10 37  1  0
 11 38  1  0
 12 39  1  0
 18 40  1  0
 23 41  1  0
 23 42  1  0
 24 43  1  0
 24 44  1  0
 25 45  1  1
 27 46  1  0
 28 47  1  0
 32 48  1  0
 33 49  1  0
M  END
$$$$
