@<TRIPOS>MOLECULE
*****
 49 52 0 0 0
SMALL
GASTEIGER

@<TRIPOS>ATOM
      1 C           2.4219    1.4866    3.3080 C.3     1  UNL1        0.0739
      2 S           1.0090    1.9827    2.4095 S.O2    1  UNL1        0.0467
      3 O          -0.0580    2.3534    3.4203 O.2     1  UNL1       -0.1551
      4 O           1.3534    3.3089    1.7277 O.2     1  UNL1       -0.1551
      5 N           0.4172    0.8513    1.2546 N.am    1  UNL1       -0.1475
      6 C          -0.7851    1.3343    0.5785 C.2     1  UNL1        0.3331
      7 O          -1.4579    2.2763    1.0956 O.2     1  UNL1       -0.2500
      8 N          -1.2308    0.7892   -0.6339 N.am    1  UNL1       -0.2263
      9 C          -2.4153    1.1922   -1.3140 C.ar    1  UNL1        0.0431
     10 C          -2.3700    2.3572   -2.0473 C.ar    1  UNL1       -0.0399
     11 C          -3.4417    2.8166   -2.7689 C.ar    1  UNL1       -0.0595
     12 C          -4.5894    2.0753   -2.7463 C.ar    1  UNL1       -0.0500
     13 C          -4.6594    0.8962   -2.0139 C.ar    1  UNL1        0.0566
     14 C          -5.9134    0.1206   -2.0335 C.3     1  UNL1        0.4175
     15 F          -6.4135    0.0243   -3.3198 F       1  UNL1       -0.1659
     16 F          -5.6265   -1.1517   -1.5314 F       1  UNL1       -0.1659
     17 F          -6.8088    0.7159   -1.1760 F       1  UNL1       -0.1659
     18 C          -3.5717    0.4387   -1.2871 C.ar    1  UNL1       -0.0283
     19 C          -0.4326   -0.2933   -1.1475 C.2     1  UNL1        0.0290
     20 C           0.6077   -0.7759   -0.5320 C.2     1  UNL1        0.0392
     21 C           1.2080   -1.8640   -1.3526 C.2     1  UNL1        0.1632
     22 O           1.9747   -2.7814   -0.9190 O.2     1  UNL1       -0.2923
     23 C           0.7022   -1.6111   -2.7244 C.3     1  UNL1        0.0154
     24 C          -0.6788   -0.9858   -2.4586 C.3     1  UNL1       -0.0064
     25 C           0.9177   -0.3828    0.8690 C.3     1  UNL1        0.1046
     26 C           2.1544   -0.9210    1.3661 C.ar    1  UNL1       -0.0206
     27 C           3.2808   -0.9606    0.6246 C.ar    1  UNL1       -0.0552
     28 C           4.4691   -1.5571    1.0805 C.ar    1  UNL1       -0.0440
     29 C           4.4773   -2.1273    2.3479 C.ar    1  UNL1        0.0518
     30 C           5.7057   -2.7860    2.8590 C.1     1  UNL1        0.0992
     31 N           6.6283   -3.2889    3.2602 N.1     1  UNL1       -0.1909
     32 C           3.3483   -2.0919    3.1077 C.ar    1  UNL1       -0.0440
     33 C           2.1784   -1.4990    2.6452 C.ar    1  UNL1       -0.0552
     34 H           2.8758    2.3650    3.8847 H       1  UNL1        0.0482
     35 H           3.2661    1.1351    2.6961 H       1  UNL1        0.0482
     36 H           2.1622    0.8002    4.1686 H       1  UNL1        0.0482
     37 H          -1.4648    2.9820   -2.0869 H       1  UNL1        0.0636
     38 H          -3.3764    3.7341   -3.3307 H       1  UNL1        0.0618
     39 H          -5.4214    2.4683   -3.3324 H       1  UNL1        0.0623
     40 H          -3.5711   -0.4588   -0.7170 H       1  UNL1        0.0642
     41 H           1.3480   -0.9634   -3.3131 H       1  UNL1        0.0349
     42 H           0.5624   -2.5950   -3.2177 H       1  UNL1        0.0349
     43 H          -1.3828   -1.8218   -2.3371 H       1  UNL1        0.0330
     44 H          -0.9386   -0.3080   -3.2692 H       1  UNL1        0.0330
     45 H           0.1157   -1.1212    1.4072 H       1  UNL1        0.0621
     46 H           3.3769   -0.5270   -0.3856 H       1  UNL1        0.0621
     47 H           5.3451   -1.5779    0.4775 H       1  UNL1        0.0630
     48 H           3.3695   -2.5382    4.0976 H       1  UNL1        0.0630
     49 H           1.3323   -1.5157    3.3100 H       1  UNL1        0.0621
@<TRIPOS>BOND
     1     1     2    1
     2     2     3    2
     3     2     4    2
     4     2     5    1
     5     5     6   am
     6     6     7    2
     7     6     8   am
     8     8     9    1
     9     9    10   ar
    10    10    11   ar
    11    11    12   ar
    12    12    13   ar
    13    13    14    1
    14    14    15    1
    15    14    16    1
    16    14    17    1
    17    13    18   ar
    18     8    19    1
    19    19    20    2
    20    20    21    1
    21    21    22    2
    22    21    23    1
    23    23    24    1
    24    20    25    1
    25    25    26    1
    26    26    27   ar
    27    27    28   ar
    28    28    29   ar
    29    29    30    1
    30    30    31    3
    31    29    32   ar
    32    32    33   ar
    33    25     5    1
    34    33    26   ar
    35    18     9   ar
    36    24    19    1
    37     1    34    1
    38     1    35    1
    39     1    36    1
    40    10    37    1
    41    11    38    1
    42    12    39    1
    43    18    40    1
    44    23    41    1
    45    23    42    1
    46    24    43    1
    47    24    44    1
    48    25    45    1
    49    27    46    1
    50    28    47    1
    51    32    48    1
    52    33    49    1
