@<TRIPOS>MOLECULE
*****
 47 50 0 0 0
SMALL
GASTEIGER

@<TRIPOS>ATOM
      1 C          10.3845    0.0309   -0.7312 C.1     1  UNL1       -0.1158
      2 C           9.2904   -0.1050   -0.9892 C.1     1  UNL1       -0.0647
      3 C           7.8444   -0.2609   -1.3180 C.3     1  UNL1        0.1513
      4 O           7.1130    0.1132   -0.1882 O.3     1  UNL1       -0.4624
      5 C           5.7193    0.0995   -0.1785 C.ar    1  UNL1        0.2344
      6 C           5.0788    0.4835    0.9624 C.ar    1  UNL1        0.0899
      7 N           3.7405    0.4830    1.0021 N.ar    1  UNL1       -0.2435
      8 C           3.0381    0.0973   -0.1039 C.ar    1  UNL1        0.1439
      9 C           1.5604    0.1369   -0.0109 C.2     1  UNL1        0.2681
     10 O           0.9191   -0.2228   -1.0113 O.2     1  UNL1       -0.2681
     11 N           0.8855    0.5596    1.1434 N.am    1  UNL1       -0.2802
     12 C          -0.4960    0.6510    1.3644 C.ar    1  UNL1        0.0341
     13 C          -0.9257    1.0589    2.6172 C.ar    1  UNL1       -0.0391
     14 C          -2.2547    1.1912    2.9415 C.ar    1  UNL1       -0.0413
     15 C          -3.1830    0.8952    1.9455 C.ar    1  UNL1        0.0467
     16 CL         -4.8576    1.0569    2.3636 Cl      1  UNL1       -0.0832
     17 C          -2.8102    0.4905    0.6973 C.ar    1  UNL1        0.0059
     18 C          -3.8308    0.1843   -0.3600 C.3     1  UNL1        0.1590
     19 C          -4.5713    1.4575   -0.7528 C.3     1  UNL1        0.2685
     20 F          -3.6850    2.4081   -1.2337 F       1  UNL1       -0.2062
     21 F          -5.3440    1.1217   -1.8786 F       1  UNL1       -0.2062
     22 N          -3.1003   -0.2180   -1.5340 N.2     1  UNL1       -0.2194
     23 C          -3.5874   -1.0194   -2.3879 C.2     1  UNL1        0.2764
     24 N          -2.8164   -1.3745   -3.5235 N.pl3   1  UNL1       -0.3134
     25 O          -4.8753   -1.5197   -2.1657 O.2     1  UNL1       -0.4622
     26 C          -5.2186   -1.8766   -0.8326 C.3     1  UNL1        0.1091
     27 C          -6.1745   -0.9744   -0.1442 C.3     1  UNL1       -0.0064
     28 C          -4.7339   -0.8812    0.1534 C.3     1  UNL1        0.0344
     29 C          -1.4507    0.3752    0.4293 C.ar    1  UNL1       -0.0334
     30 C           3.6708   -0.2880   -1.2449 C.ar    1  UNL1        0.0619
     31 N           5.0166   -0.2860   -1.2809 N.ar    1  UNL1       -0.2177
     32 H          11.4329    0.1797   -0.4853 H       1  UNL1        0.1229
     33 H           7.6832   -1.3076   -1.5823 H       1  UNL1        0.0837
     34 H           7.5598    0.4522   -2.1402 H       1  UNL1        0.0837
     35 H           5.6454    0.7926    1.8644 H       1  UNL1        0.0884
     36 H           1.5471    0.8421    1.9425 H       1  UNL1        0.1552
     37 H          -0.1841    1.2924    3.4040 H       1  UNL1        0.0636
     38 H          -2.5530    1.5094    3.9276 H       1  UNL1        0.0633
     39 H          -5.2711    1.8225    0.0019 H       1  UNL1        0.1047
     40 H          -1.7611   -1.3917   -3.4393 H       1  UNL1        0.1466
     41 H          -3.2085   -1.6216   -4.4524 H       1  UNL1        0.1466
     42 H          -5.1196   -2.9484   -0.5783 H       1  UNL1        0.0737
     43 H          -6.8389   -1.4835    0.5953 H       1  UNL1        0.0306
     44 H          -6.6948   -0.1683   -0.6635 H       1  UNL1        0.0306
     45 H          -4.4583   -1.3136    1.1658 H       1  UNL1        0.0366
     46 H          -1.1851    0.0592   -0.5501 H       1  UNL1        0.0640
     47 H           3.0604   -0.5832   -2.0882 H       1  UNL1        0.0854
@<TRIPOS>BOND
     1     1     2    3
     2     2     3    1
     3     3     4    1
     4     4     5    1
     5     5     6   ar
     6     6     7   ar
     7     7     8   ar
     8     8     9    1
     9     9    10    2
    10     9    11   am
    11    11    12    1
    12    12    13   ar
    13    13    14   ar
    14    14    15   ar
    15    15    16    1
    16    15    17   ar
    17    17    18    1
    18    18    19    1
    19    19    20    1
    20    19    21    1
    21    18    22    1
    22    22    23    2
    23    23    24    1
    24    23    25    1
    25    25    26    1
    26    26    27    1
    27    27    28    1
    28    17    29   ar
    29     8    30   ar
    30    30    31   ar
    31    31     5   ar
    32    29    12   ar
    33    28    18    1
    34    28    26    1
    35     1    32    1
    36     3    33    1
    37     3    34    1
    38     6    35    1
    39    11    36    1
    40    13    37    1
    41    14    38    1
    42    19    39    1
    43    24    40    1
    44    24    41    1
    45    26    42    1
    46    27    43    1
    47    27    44    1
    48    28    45    1
    49    29    46    1
    50    30    47    1
