@<TRIPOS>MOLECULE
*****
 37 39 0 0 0
SMALL
GASTEIGER

@<TRIPOS>ATOM
      1 O           5.0608   -0.1683   -2.6153 O.2     1  UNL1       -0.2451
      2 C           5.3242    0.2950   -1.4761 C.2     1  UNL1        0.3369
      3 O           6.5371    0.8937   -1.2755 O.3     1  UNL1       -0.4771
      4 C           4.3164    0.1754   -0.4011 C.ar    1  UNL1        0.0607
      5 C           4.5582    0.6670    0.8624 C.ar    1  UNL1       -0.0477
      6 C           3.6145    0.5582    1.8797 C.ar    1  UNL1       -0.0591
      7 C           2.4081   -0.0646    1.5903 C.ar    1  UNL1       -0.0353
      8 C           2.1306   -0.5701    0.3332 C.ar    1  UNL1        0.1063
      9 S           0.6028   -1.3503   -0.0053 S.O2    1  UNL1        0.0612
     10 O           0.7834   -2.3533   -1.1376 O.2     1  UNL1       -0.1528
     11 O           0.1317   -2.1192    1.1767 O.2     1  UNL1       -0.1528
     12 N          -0.5396   -0.1954   -0.5523 N.3     1  UNL1       -0.1720
     13 C          -0.8356    0.8278    0.3950 C.3     1  UNL1        0.0249
     14 C          -1.9727    0.4800    1.3253 C.3     1  UNL1       -0.0115
     15 C          -3.1755    0.2621    0.4678 C.ar    1  UNL1       -0.0233
     16 C          -4.4374    0.6241    0.8564 C.ar    1  UNL1        0.0445
     17 CL         -4.6461    1.3741    2.4264 Cl      1  UNL1       -0.0833
     18 C          -5.4902    0.3850    0.0000 C.ar    1  UNL1       -0.0431
     19 C          -5.3196   -0.2048   -1.2327 C.ar    1  UNL1       -0.0601
     20 C          -4.0386   -0.5596   -1.5995 C.ar    1  UNL1       -0.0569
     21 C          -2.9723   -0.3250   -0.7487 C.ar    1  UNL1       -0.0271
     22 C          -1.6383   -0.7466   -1.2441 C.3     1  UNL1        0.0458
     23 C           3.1174   -0.4304   -0.6451 C.ar    1  UNL1       -0.0214
     24 H           7.2818    0.8010   -1.9721 H       1  UNL1        0.2954
     25 H           5.5003    1.1423    1.0520 H       1  UNL1        0.0626
     26 H           3.8263    0.9494    2.8566 H       1  UNL1        0.0618
     27 H           1.6540   -0.1590    2.3791 H       1  UNL1        0.0637
     28 H           0.0581    1.0138    1.0243 H       1  UNL1        0.0447
     29 H          -1.0875    1.7861   -0.1113 H       1  UNL1        0.0447
     30 H          -1.7276   -0.4728    1.8270 H       1  UNL1        0.0327
     31 H          -2.0984    1.3178    2.0292 H       1  UNL1        0.0327
     32 H          -6.4932    0.6652    0.2925 H       1  UNL1        0.0632
     33 H          -6.1819   -0.3794   -1.8876 H       1  UNL1        0.0618
     34 H          -3.9302   -1.0216   -2.5730 H       1  UNL1        0.0621
     35 H          -1.6111   -1.8607   -1.3060 H       1  UNL1        0.0493
     36 H          -1.5883   -0.4078   -2.3200 H       1  UNL1        0.0493
     37 H           2.8784   -0.8294   -1.6083 H       1  UNL1        0.0645
@<TRIPOS>BOND
     1     1     2    2
     2     2     3    1
     3     2     4    1
     4     4     5   ar
     5     5     6   ar
     6     6     7   ar
     7     7     8   ar
     8     8     9    1
     9     9    10    2
    10     9    11    2
    11     9    12    1
    12    12    13    1
    13    13    14    1
    14    14    15    1
    15    15    16   ar
    16    16    17    1
    17    16    18   ar
    18    18    19   ar
    19    19    20   ar
    20    20    21   ar
    21    21    22    1
    22     8    23   ar
    23    23     4   ar
    24    22    12    1
    25    21    15   ar
    26     3    24    1
    27     5    25    1
    28     6    26    1
    29     7    27    1
    30    13    28    1
    31    13    29    1
    32    14    30    1
    33    14    31    1
    34    18    32    1
    35    19    33    1
    36    20    34    1
    37    22    35    1
    38    22    36    1
    39    23    37    1
