
     RDKit          3D

 37 39  0  0  0  0  0  0  0  0999 V2000
    5.0608   -0.1683   -2.6153 O   0  0  0  0  0  0  0  0  0  0  0  0
    5.3242    0.2950   -1.4761 C   0  0  0  0  0  0  0  0  0  0  0  0
    6.5371    0.8937   -1.2755 O   0  0  0  0  0  0  0  0  0  0  0  0
    4.3164    0.1754   -0.4011 C   0  0  0  0  0  0  0  0  0  0  0  0
    4.5582    0.6670    0.8624 C   0  0  0  0  0  0  0  0  0  0  0  0
    3.6145    0.5582    1.8797 C   0  0  0  0  0  0  0  0  0  0  0  0
    2.4081   -0.0646    1.5903 C   0  0  0  0  0  0  0  0  0  0  0  0
    2.1306   -0.5701    0.3332 C   0  0  0  0  0  0  0  0  0  0  0  0
    0.6028   -1.3503   -0.0053 S   0  0  0  0  0  6  0  0  0  0  0  0
    0.7834   -2.3533   -1.1376 O   0  0  0  0  0  0  0  0  0  0  0  0
    0.1317   -2.1192    1.1767 O   0  0  0  0  0  0  0  0  0  0  0  0
   -0.5396   -0.1954   -0.5523 N   0  0  0  0  0  0  0  0  0  0  0  0
   -0.8356    0.8278    0.3950 C   0  0  0  0  0  0  0  0  0  0  0  0
   -1.9727    0.4800    1.3253 C   0  0  0  0  0  0  0  0  0  0  0  0
   -3.1755    0.2621    0.4678 C   0  0  0  0  0  0  0  0  0  0  0  0
   -4.4374    0.6241    0.8564 C   0  0  0  0  0  0  0  0  0  0  0  0
   -4.6461    1.3741    2.4264 Cl  0  0  0  0  0  0  0  0  0  0  0  0
   -5.4902    0.3850    0.0000 C   0  0  0  0  0  0  0  0  0  0  0  0
   -5.3196   -0.2048   -1.2327 C   0  0  0  0  0  0  0  0  0  0  0  0
   -4.0386   -0.5596   -1.5995 C   0  0  0  0  0  0  0  0  0  0  0  0
   -2.9723   -0.3250   -0.7487 C   0  0  0  0  0  0  0  0  0  0  0  0
   -1.6383   -0.7466   -1.2441 C   0  0  0  0  0  0  0  0  0  0  0  0
    3.1174   -0.4304   -0.6451 C   0  0  0  0  0  0  0  0  0  0  0  0
    7.2818    0.8010   -1.9721 H   0  0  0  0  0  0  0  0  0  0  0  0
    5.5003    1.1423    1.0520 H   0  0  0  0  0  0  0  0  0  0  0  0
    3.8263    0.9494    2.8566 H   0  0  0  0  0  0  0  0  0  0  0  0
    1.6540   -0.1590    2.3791 H   0  0  0  0  0  0  0  0  0  0  0  0
    0.0581    1.0138    1.0243 H   0  0  0  0  0  0  0  0  0  0  0  0
   -1.0875    1.7861   -0.1113 H   0  0  0  0  0  0  0  0  0  0  0  0
   -1.7276   -0.4728    1.8270 H   0  0  0  0  0  0  0  0  0  0  0  0
   -2.0984    1.3178    2.0292 H   0  0  0  0  0  0  0  0  0  0  0  0
   -6.4932    0.6652    0.2925 H   0  0  0  0  0  0  0  0  0  0  0  0
   -6.1819   -0.3794   -1.8876 H   0  0  0  0  0  0  0  0  0  0  0  0
   -3.9302   -1.0216   -2.5730 H   0  0  0  0  0  0  0  0  0  0  0  0
   -1.6111   -1.8607   -1.3060 H   0  0  0  0  0  0  0  0  0  0  0  0
   -1.5883   -0.4078   -2.3200 H   0  0  0  0  0  0  0  0  0  0  0  0
    2.8784   -0.8294   -1.6083 H   0  0  0  0  0  0  0  0  0  0  0  0
  1  2  2  0
  2  3  1  0
  2  4  1  0
  4  5  2  0
  5  6  1  0
  6  7  2  0
  7  8  1  0
  8  9  1  0
  9 10  2  0
  9 11  2  0
  9 12  1  0
 12 13  1  0
 13 14  1  0
 14 15  1  0
 15 16  2  0
 16 17  1  0
 16 18  1  0
 18 19  2  0
 19 20  1  0
 20 21  2  0
 21 22  1  0
  8 23  2  0
 23  4  1  0
 22 12  1  0
 21 15  1  0
  3 24  1  0
  5 25  1  0
  6 26  1  0
  7 27  1  0
 13 28  1  0
 13 29  1  0
 14 30  1  0
 14 31  1  0
 18 32  1  0
 19 33  1  0
 20 34  1  0
 22 35  1  0
 22 36  1  0
 23 37  1  0
M  END
$$$$
