@<TRIPOS>MOLECULE
*****
 41 43 0 0 0
SMALL
GASTEIGER

@<TRIPOS>ATOM
      1 C           2.6198   -1.8459    2.1757 C.3     1  UNL1       -0.0242
      2 C           1.7723   -0.9986    1.2880 C.ar    1  UNL1        0.0167
      3 N           0.4755   -0.7082    1.5315 N.ar    1  UNL1       -0.3581
      4 C           0.0500    0.0624    0.5280 C.ar    1  UNL1        0.0434
      5 C          -1.2802    0.6256    0.3072 C.2     1  UNL1       -0.0254
      6 C          -2.3535   -0.1116    0.2920 C.2     1  UNL1        0.0479
      7 C          -2.4364   -1.5511    0.4733 C.2     1  UNL1        0.2490
      8 O          -1.5024   -2.3850    0.6593 O.2     1  UNL1       -0.2698
      9 N          -3.8341   -1.8615    0.3953 N.am    1  UNL1       -0.2809
     10 C          -4.5636   -0.6389    0.1729 C.ar    1  UNL1        0.0416
     11 C          -5.9221   -0.3844    0.0249 C.ar    1  UNL1       -0.0399
     12 C          -6.3819    0.8923   -0.1814 C.ar    1  UNL1       -0.0600
     13 C          -5.5294    1.9838   -0.2519 C.ar    1  UNL1       -0.0611
     14 C          -4.1880    1.7179   -0.1036 C.ar    1  UNL1       -0.0521
     15 C          -3.7118    0.4354    0.1045 C.ar    1  UNL1        0.0084
     16 C           1.0976    0.2586   -0.3576 C.ar    1  UNL1       -0.0223
     17 C           1.0162    1.0738   -1.6223 C.3     1  UNL1       -0.0375
     18 C           2.2011   -0.4153    0.1197 C.ar    1  UNL1       -0.0231
     19 C           3.5323   -0.4452   -0.5349 C.3     1  UNL1       -0.0157
     20 C           4.5024    0.5171    0.1580 C.3     1  UNL1        0.0488
     21 C           5.8127    0.4549   -0.5250 C.2     1  UNL1        0.3050
     22 O           5.9696   -0.3248   -1.4911 O.2     1  UNL1       -0.2510
     23 O           6.8929    1.2403   -0.1316 O.3     1  UNL1       -0.4806
     24 H           2.4983   -1.5551    3.2528 H       1  UNL1        0.0292
     25 H           3.6661   -1.8373    1.8890 H       1  UNL1        0.0292
     26 H           2.2495   -2.9087    2.1014 H       1  UNL1        0.0292
     27 H          -0.0653   -1.0377    2.3896 H       1  UNL1        0.1656
     28 H          -1.3950    1.7169    0.1449 H       1  UNL1        0.0646
     29 H          -4.2674   -2.8071    0.4821 H       1  UNL1        0.1552
     30 H          -6.5987   -1.2310    0.0791 H       1  UNL1        0.0636
     31 H          -7.4533    1.1109   -0.3017 H       1  UNL1        0.0618
     32 H          -5.9209    2.9815   -0.4155 H       1  UNL1        0.0618
     33 H          -3.4671    2.5370   -0.1489 H       1  UNL1        0.0624
     34 H           1.8310    0.8091   -2.3131 H       1  UNL1        0.0278
     35 H           0.9431    2.1355   -1.3727 H       1  UNL1        0.0278
     36 H           0.0593    0.7689   -2.1152 H       1  UNL1        0.0278
     37 H           3.9753   -1.4540   -0.3684 H       1  UNL1        0.0319
     38 H           3.4980   -0.2915   -1.6109 H       1  UNL1        0.0319
     39 H           4.0818    1.5421    0.1591 H       1  UNL1        0.0381
     40 H           4.6295    0.2410    1.2205 H       1  UNL1        0.0381
     41 H           7.4964    1.6880   -0.8411 H       1  UNL1        0.2951
@<TRIPOS>BOND
     1     1     2    1
     2     2     3   ar
     3     3     4   ar
     4     4     5    1
     5     5     6    2
     6     6     7    1
     7     7     8    2
     8     7     9   am
     9     9    10    1
    10    10    11   ar
    11    11    12   ar
    12    12    13   ar
    13    13    14   ar
    14    14    15   ar
    15     4    16   ar
    16    16    17    1
    17    16    18   ar
    18    18    19    1
    19    19    20    1
    20    20    21    1
    21    21    22    2
    22    21    23    1
    23    18     2   ar
    24    15     6    1
    25    15    10   ar
    26     1    24    1
    27     1    25    1
    28     1    26    1
    29     3    27    1
    30     5    28    1
    31     9    29    1
    32    11    30    1
    33    12    31    1
    34    13    32    1
    35    14    33    1
    36    17    34    1
    37    17    35    1
    38    17    36    1
    39    19    37    1
    40    19    38    1
    41    20    39    1
    42    20    40    1
    43    23    41    1
