@<TRIPOS>MOLECULE
*****
 60 63 0 0 0
SMALL
GASTEIGER

@<TRIPOS>ATOM
      1 C          -4.8999   -6.1530   -1.9547 C.3     1  UNL1       -0.0319
      2 C          -3.6918   -5.4159   -1.5681 C.ar    1  UNL1        0.0068
      3 C          -2.3580   -5.6576   -1.5869 C.ar    1  UNL1        0.0383
      4 N          -1.5467   -4.7425   -1.1495 N.ar    1  UNL1       -0.2471
      5 C          -1.9051   -3.6326   -0.7028 C.ar    1  UNL1        0.1086
      6 C          -1.2527   -2.4464   -0.1606 C.ar    1  UNL1        0.0113
      7 C          -1.9520   -1.3453    0.2612 C.ar    1  UNL1       -0.0102
      8 C          -1.3393   -0.2065    0.7800 C.ar    1  UNL1        0.1219
      9 O          -1.9606    0.8809    1.1978 O.3     1  UNL1       -0.4913
     10 C          -3.0475    1.6040    1.4182 C.3     1  UNL1        0.0971
     11 C          -3.8594    2.0149    0.2380 C.3     1  UNL1        0.0274
     12 C          -4.4232    0.9162   -0.5745 C.3     1  UNL1       -0.0543
     13 C          -4.9833    2.9510    0.6758 C.3     1  UNL1       -0.0188
     14 C          -4.3058    4.2930    0.6819 C.3     1  UNL1        0.0484
     15 O          -3.0300    4.1152    0.1728 O.3     1  UNL1       -0.3791
     16 C          -3.0378    2.9780   -0.6052 C.3     1  UNL1        0.0562
     17 C           0.0824   -0.2688    0.8427 C.ar    1  UNL1       -0.0078
     18 C           0.8019   -1.3376    0.4361 C.ar    1  UNL1        0.0408
     19 C           2.2564   -1.4212    0.4918 C.2     1  UNL1        0.2447
     20 O           2.8709   -2.4617    0.0905 O.2     1  UNL1       -0.2702
     21 N           3.0907   -0.3830    0.9829 N.am    1  UNL1       -0.3047
     22 C           4.5353   -0.4699    1.0366 C.3     1  UNL1        0.0487
     23 C           4.9447   -0.3907    2.5135 C.3     1  UNL1       -0.0423
     24 C           5.1991    0.6547    0.3581 C.ar    1  UNL1        0.0087
     25 C           6.2629    0.3969   -0.4779 C.ar    1  UNL1        0.0363
     26 N           6.9072    1.4030   -1.1260 N.ar    1  UNL1       -0.2321
     27 C           6.5291    2.6830   -0.9738 C.ar    1  UNL1        0.2339
     28 C           7.2365    3.7949   -1.6862 C.3     1  UNL1        0.4522
     29 F           8.1911    4.3783   -0.8721 F       1  UNL1       -0.1632
     30 F           6.3116    4.7738   -1.9804 F       1  UNL1       -0.1632
     31 F           7.8166    3.3702   -2.8561 F       1  UNL1       -0.1632
     32 N           5.4913    2.9462   -0.1596 N.ar    1  UNL1       -0.2321
     33 C           4.8207    1.9708    0.5062 C.ar    1  UNL1        0.0363
     34 C           0.1002   -2.4220   -0.0660 C.ar    1  UNL1       -0.0397
     35 S          -3.6694   -3.7159   -0.8481 S.2     1  UNL1       -0.0725
     36 H          -4.9075   -6.3191   -3.0719 H       1  UNL1        0.0283
     37 H          -5.8286   -5.6337   -1.7227 H       1  UNL1        0.0283
     38 H          -4.9392   -7.1776   -1.5185 H       1  UNL1        0.0283
     39 H          -1.9665   -6.6326   -1.9746 H       1  UNL1        0.0838
     40 H          -3.0317   -1.3862    0.1930 H       1  UNL1        0.0661
     41 H          -3.7858    1.1414    2.1641 H       1  UNL1        0.0703
     42 H          -2.7442    2.5971    1.9207 H       1  UNL1        0.0703
     43 H          -4.8295    0.1489    0.1186 H       1  UNL1        0.0237
     44 H          -3.6408    0.4592   -1.2048 H       1  UNL1        0.0237
     45 H          -5.2458    1.2588   -1.2586 H       1  UNL1        0.0237
     46 H          -5.8088    2.9644   -0.0590 H       1  UNL1        0.0294
     47 H          -5.3627    2.6584    1.6777 H       1  UNL1        0.0294
     48 H          -4.2389    4.6626    1.7217 H       1  UNL1        0.0560
     49 H          -4.8792    5.0233    0.0750 H       1  UNL1        0.0560
     50 H          -2.0119    2.5587   -0.6544 H       1  UNL1        0.0566
     51 H          -3.4755    3.0983   -1.5962 H       1  UNL1        0.0566
     52 H           0.5957    0.5992    1.2416 H       1  UNL1        0.0662
     53 H           2.6221    0.4843    1.3202 H       1  UNL1        0.1496
     54 H           4.9281   -1.4122    0.6628 H       1  UNL1        0.0546
     55 H           4.5308   -1.2413    3.0615 H       1  UNL1        0.0251
     56 H           4.5241    0.5674    2.8833 H       1  UNL1        0.0251
     57 H           6.0502   -0.3328    2.5434 H       1  UNL1        0.0251
     58 H           6.5960   -0.6312   -0.6241 H       1  UNL1        0.0834
     59 H           3.9904    2.1705    1.1589 H       1  UNL1        0.0834
     60 H           0.6731   -3.2803   -0.3931 H       1  UNL1        0.0632
@<TRIPOS>BOND
     1     1     2    1
     2     2     3   ar
     3     3     4   ar
     4     4     5   ar
     5     5     6    1
     6     6     7   ar
     7     7     8   ar
     8     8     9    1
     9     9    10    1
    10    11    10    1
    11    11    12    1
    12    11    13    1
    13    13    14    1
    14    14    15    1
    15    15    16    1
    16     8    17   ar
    17    17    18   ar
    18    18    19    1
    19    19    20    2
    20    19    21   am
    21    21    22    1
    22    22    23    1
    23    22    24    1
    24    24    25   ar
    25    25    26   ar
    26    26    27   ar
    27    27    28    1
    28    28    29    1
    29    28    30    1
    30    28    31    1
    31    27    32   ar
    32    32    33   ar
    33    18    34   ar
    34     5    35   ar
    35    35     2   ar
    36    34     6   ar
    37    16    11    1
    38    33    24   ar
    39     1    36    1
    40     1    37    1
    41     1    38    1
    42     3    39    1
    43     7    40    1
    44    10    41    1
    45    10    42    1
    46    12    43    1
    47    12    44    1
    48    12    45    1
    49    13    46    1
    50    13    47    1
    51    14    48    1
    52    14    49    1
    53    16    50    1
    54    16    51    1
    55    17    52    1
    56    21    53    1
    57    22    54    1
    58    23    55    1
    59    23    56    1
    60    23    57    1
    61    25    58    1
    62    33    59    1
    63    34    60    1
