
     RDKit          3D

 60 63  0  0  0  0  0  0  0  0999 V2000
   -4.8999   -6.1530   -1.9547 C   0  0  0  0  0  0  0  0  0  0  0  0
   -3.6918   -5.4159   -1.5681 C   0  0  0  0  0  0  0  0  0  0  0  0
   -2.3580   -5.6576   -1.5869 C   0  0  0  0  0  0  0  0  0  0  0  0
   -1.5467   -4.7425   -1.1495 N   0  0  0  0  0  0  0  0  0  0  0  0
   -1.9051   -3.6326   -0.7028 C   0  0  0  0  0  0  0  0  0  0  0  0
   -1.2527   -2.4464   -0.1606 C   0  0  0  0  0  0  0  0  0  0  0  0
   -1.9520   -1.3453    0.2612 C   0  0  0  0  0  0  0  0  0  0  0  0
   -1.3393   -0.2065    0.7800 C   0  0  0  0  0  0  0  0  0  0  0  0
   -1.9606    0.8809    1.1978 O   0  0  0  0  0  0  0  0  0  0  0  0
   -3.0475    1.6040    1.4182 C   0  0  0  0  0  0  0  0  0  0  0  0
   -3.8594    2.0149    0.2380 C   0  0  1  0  0  0  0  0  0  0  0  0
   -4.4232    0.9162   -0.5745 C   0  0  0  0  0  0  0  0  0  0  0  0
   -4.9833    2.9510    0.6758 C   0  0  0  0  0  0  0  0  0  0  0  0
   -4.3058    4.2930    0.6819 C   0  0  0  0  0  0  0  0  0  0  0  0
   -3.0300    4.1152    0.1728 O   0  0  0  0  0  0  0  0  0  0  0  0
   -3.0378    2.9780   -0.6052 C   0  0  0  0  0  0  0  0  0  0  0  0
    0.0824   -0.2688    0.8427 C   0  0  0  0  0  0  0  0  0  0  0  0
    0.8019   -1.3376    0.4361 C   0  0  0  0  0  0  0  0  0  0  0  0
    2.2564   -1.4212    0.4918 C   0  0  0  0  0  0  0  0  0  0  0  0
    2.8709   -2.4617    0.0905 O   0  0  0  0  0  0  0  0  0  0  0  0
    3.0907   -0.3830    0.9829 N   0  0  0  0  0  0  0  0  0  0  0  0
    4.5353   -0.4699    1.0366 C   0  0  2  0  0  0  0  0  0  0  0  0
    4.9447   -0.3907    2.5135 C   0  0  0  0  0  0  0  0  0  0  0  0
    5.1991    0.6547    0.3581 C   0  0  0  0  0  0  0  0  0  0  0  0
    6.2629    0.3969   -0.4779 C   0  0  0  0  0  0  0  0  0  0  0  0
    6.9072    1.4030   -1.1260 N   0  0  0  0  0  0  0  0  0  0  0  0
    6.5291    2.6830   -0.9738 C   0  0  0  0  0  0  0  0  0  0  0  0
    7.2365    3.7949   -1.6862 C   0  0  0  0  0  0  0  0  0  0  0  0
    8.1911    4.3783   -0.8721 F   0  0  0  0  0  0  0  0  0  0  0  0
    6.3116    4.7738   -1.9804 F   0  0  0  0  0  0  0  0  0  0  0  0
    7.8166    3.3702   -2.8561 F   0  0  0  0  0  0  0  0  0  0  0  0
    5.4913    2.9462   -0.1596 N   0  0  0  0  0  0  0  0  0  0  0  0
    4.8207    1.9708    0.5062 C   0  0  0  0  0  0  0  0  0  0  0  0
    0.1002   -2.4220   -0.0660 C   0  0  0  0  0  0  0  0  0  0  0  0
   -3.6694   -3.7159   -0.8481 S   0  0  0  0  0  0  0  0  0  0  0  0
   -4.9075   -6.3191   -3.0719 H   0  0  0  0  0  0  0  0  0  0  0  0
   -5.8286   -5.6337   -1.7227 H   0  0  0  0  0  0  0  0  0  0  0  0
   -4.9392   -7.1776   -1.5185 H   0  0  0  0  0  0  0  0  0  0  0  0
   -1.9665   -6.6326   -1.9746 H   0  0  0  0  0  0  0  0  0  0  0  0
   -3.0317   -1.3862    0.1930 H   0  0  0  0  0  0  0  0  0  0  0  0
   -3.7858    1.1414    2.1641 H   0  0  0  0  0  0  0  0  0  0  0  0
   -2.7442    2.5971    1.9207 H   0  0  0  0  0  0  0  0  0  0  0  0
   -4.8295    0.1489    0.1186 H   0  0  0  0  0  0  0  0  0  0  0  0
   -3.6408    0.4592   -1.2048 H   0  0  0  0  0  0  0  0  0  0  0  0
   -5.2458    1.2588   -1.2586 H   0  0  0  0  0  0  0  0  0  0  0  0
   -5.8088    2.9644   -0.0590 H   0  0  0  0  0  0  0  0  0  0  0  0
   -5.3627    2.6584    1.6777 H   0  0  0  0  0  0  0  0  0  0  0  0
   -4.2389    4.6626    1.7217 H   0  0  0  0  0  0  0  0  0  0  0  0
   -4.8792    5.0233    0.0750 H   0  0  0  0  0  0  0  0  0  0  0  0
   -2.0119    2.5587   -0.6544 H   0  0  0  0  0  0  0  0  0  0  0  0
   -3.4755    3.0983   -1.5962 H   0  0  0  0  0  0  0  0  0  0  0  0
    0.5957    0.5992    1.2416 H   0  0  0  0  0  0  0  0  0  0  0  0
    2.6221    0.4843    1.3202 H   0  0  0  0  0  0  0  0  0  0  0  0
    4.9281   -1.4122    0.6628 H   0  0  0  0  0  0  0  0  0  0  0  0
    4.5308   -1.2413    3.0615 H   0  0  0  0  0  0  0  0  0  0  0  0
    4.5241    0.5674    2.8833 H   0  0  0  0  0  0  0  0  0  0  0  0
    6.0502   -0.3328    2.5434 H   0  0  0  0  0  0  0  0  0  0  0  0
    6.5960   -0.6312   -0.6241 H   0  0  0  0  0  0  0  0  0  0  0  0
    3.9904    2.1705    1.1589 H   0  0  0  0  0  0  0  0  0  0  0  0
    0.6731   -3.2803   -0.3931 H   0  0  0  0  0  0  0  0  0  0  0  0
  1  2  1  0
  2  3  2  0
  3  4  1  0
  4  5  2  0
  5  6  1  0
  6  7  2  0
  7  8  1  0
  8  9  1  0
  9 10  1  0
 11 10  1  1
 11 12  1  0
 11 13  1  0
 13 14  1  0
 14 15  1  0
 15 16  1  0
  8 17  2  0
 17 18  1  0
 18 19  1  0
 19 20  2  0
 19 21  1  0
 21 22  1  0
 22 23  1  0
 22 24  1  0
 24 25  2  0
 25 26  1  0
 26 27  2  0
 27 28  1  0
 28 29  1  0
 28 30  1  0
 28 31  1  0
 27 32  1  0
 32 33  2  0
 18 34  2  0
  5 35  1  0
 35  2  1  0
 34  6  1  0
 16 11  1  0
 33 24  1  0
  1 36  1  0
  1 37  1  0
  1 38  1  0
  3 39  1  0
  7 40  1  0
 10 41  1  0
 10 42  1  0
 12 43  1  0
 12 44  1  0
 12 45  1  0
 13 46  1  0
 13 47  1  0
 14 48  1  0
 14 49  1  0
 16 50  1  0
 16 51  1  0
 17 52  1  0
 21 53  1  0
 22 54  1  6
 23 55  1  0
 23 56  1  0
 23 57  1  0
 25 58  1  0
 33 59  1  0
 34 60  1  0
M  END
$$$$
