@<TRIPOS>MOLECULE
*****
 48 51 0 0 0
SMALL
GASTEIGER

@<TRIPOS>ATOM
      1 C          -5.0604   -0.5198    1.2769 C.3     1  UNL1       -0.0631
      2 C          -4.2575   -0.0254    0.0618 C.3     1  UNL1       -0.0286
      3 C          -2.8362   -0.2197    0.3796 C.3     1  UNL1        0.1016
      4 C          -2.4875    0.5800    1.5825 C.2     1  UNL1        0.2402
      5 O          -3.2664    1.3298    2.2025 O.2     1  UNL1       -0.2732
      6 N          -1.1421    0.4560    2.0380 N.am    1  UNL1       -0.2688
      7 C          -0.7838    0.6618    3.4348 C.3     1  UNL1        0.0085
      8 C          -0.1148    0.1301    1.1192 C.ar    1  UNL1        0.0946
      9 C           1.2041   -0.0163    1.4954 C.ar    1  UNL1        0.0547
     10 N           2.0931   -0.3354    0.5432 N.ar    1  UNL1       -0.2336
     11 C           1.7895   -0.5220   -0.7470 C.ar    1  UNL1        0.1655
     12 C           2.8087   -0.8684   -1.7430 C.ar    1  UNL1        0.0662
     13 C           2.5886   -1.1241   -3.1013 C.ar    1  UNL1        0.0337
     14 N           3.7948   -1.3909   -3.6300 N.ar    1  UNL1       -0.2834
     15 N           4.6942   -1.3107   -2.6897 N.ar    1  UNL1       -0.1711
     16 C           4.1401   -0.9923   -1.5105 C.ar    1  UNL1        0.1280
     17 C           4.8358   -0.8044   -0.1957 C.ar    1  UNL1        0.1288
     18 N           4.6339   -0.5440    0.9255 N.ar    1  UNL1       -0.2457
     19 C           5.4624   -0.4365    1.9290 C.ar    1  UNL1        0.0355
     20 C           6.7823   -0.6665    1.6159 C.ar    1  UNL1       -0.0042
     21 S           6.6755   -1.0276   -0.1682 S.2     1  UNL1       -0.0741
     22 N           0.4981   -0.3716   -1.0803 N.ar    1  UNL1       -0.2106
     23 C          -0.4926   -0.0519   -0.2184 C.ar    1  UNL1        0.1476
     24 N          -1.8628    0.0925   -0.6245 N.pl3   1  UNL1       -0.2995
     25 C          -2.1368    0.5282   -1.9485 C.3     1  UNL1        0.0200
     26 C          -0.9015    0.7632   -2.8076 C.3     1  UNL1       -0.0467
     27 C          -2.8763    1.8578   -1.9411 C.3     1  UNL1       -0.0467
     28 H          -4.4073   -0.6956    2.1552 H       1  UNL1        0.0230
     29 H          -5.9275    0.1189    1.4823 H       1  UNL1        0.0230
     30 H          -5.4553   -1.5208    1.0080 H       1  UNL1        0.0230
     31 H          -4.6761   -0.5183   -0.8055 H       1  UNL1        0.0285
     32 H          -4.4646    1.0892    0.0704 H       1  UNL1        0.0285
     33 H          -2.7048   -1.3107    0.6605 H       1  UNL1        0.0596
     34 H          -0.5934   -0.3408    3.8725 H       1  UNL1        0.0433
     35 H           0.0942    1.3275    3.5503 H       1  UNL1        0.0433
     36 H          -1.6263    1.1694    3.9654 H       1  UNL1        0.0433
     37 H           1.4631    0.1309    2.5314 H       1  UNL1        0.0850
     38 H           1.6232   -1.1039   -3.5932 H       1  UNL1        0.0831
     39 H           3.9787   -1.6268   -4.6442 H       1  UNL1        0.1882
     40 H           5.1166   -0.1743    2.9735 H       1  UNL1        0.0835
     41 H           7.7205   -0.6585    2.2106 H       1  UNL1        0.0709
     42 H          -2.7565   -0.1798   -2.5386 H       1  UNL1        0.0495
     43 H          -0.4941   -0.1733   -3.1980 H       1  UNL1        0.0247
     44 H          -0.1991    1.4540   -2.3328 H       1  UNL1        0.0247
     45 H          -1.2351    1.3218   -3.7451 H       1  UNL1        0.0247
     46 H          -3.9406    1.6443   -2.1586 H       1  UNL1        0.0247
     47 H          -2.7760    2.3922   -0.9740 H       1  UNL1        0.0247
     48 H          -2.5220    2.4828   -2.7906 H       1  UNL1        0.0247
@<TRIPOS>BOND
     1     1     2    1
     2     2     3    1
     3     3     4    1
     4     4     5    2
     5     4     6   am
     6     6     7    1
     7     6     8    1
     8     8     9   ar
     9     9    10   ar
    10    10    11   ar
    11    11    12    1
    12    12    13   ar
    13    13    14   ar
    14    14    15   ar
    15    15    16   ar
    16    16    17    1
    17    17    18   ar
    18    18    19   ar
    19    19    20   ar
    20    20    21   ar
    21    11    22   ar
    22    22    23   ar
    23    23    24    1
    24    24    25    1
    25    25    26    1
    26    25    27    1
    27    24     3    1
    28    23     8   ar
    29    16    12   ar
    30    21    17   ar
    31     1    28    1
    32     1    29    1
    33     1    30    1
    34     2    31    1
    35     2    32    1
    36     3    33    1
    37     7    34    1
    38     7    35    1
    39     7    36    1
    40     9    37    1
    41    13    38    1
    42    14    39    1
    43    19    40    1
    44    20    41    1
    45    25    42    1
    46    26    43    1
    47    26    44    1
    48    26    45    1
    49    27    46    1
    50    27    47    1
    51    27    48    1
