
     RDKit          3D

 48 51  0  0  0  0  0  0  0  0999 V2000
   -5.0604   -0.5198    1.2769 C   0  0  0  0  0  0  0  0  0  0  0  0
   -4.2575   -0.0254    0.0618 C   0  0  0  0  0  0  0  0  0  0  0  0
   -2.8362   -0.2197    0.3796 C   0  0  2  0  0  0  0  0  0  0  0  0
   -2.4875    0.5800    1.5825 C   0  0  0  0  0  0  0  0  0  0  0  0
   -3.2664    1.3298    2.2025 O   0  0  0  0  0  0  0  0  0  0  0  0
   -1.1421    0.4560    2.0380 N   0  0  0  0  0  0  0  0  0  0  0  0
   -0.7838    0.6618    3.4348 C   0  0  0  0  0  0  0  0  0  0  0  0
   -0.1148    0.1301    1.1192 C   0  0  0  0  0  0  0  0  0  0  0  0
    1.2041   -0.0163    1.4954 C   0  0  0  0  0  0  0  0  0  0  0  0
    2.0931   -0.3354    0.5432 N   0  0  0  0  0  0  0  0  0  0  0  0
    1.7895   -0.5220   -0.7470 C   0  0  0  0  0  0  0  0  0  0  0  0
    2.8087   -0.8684   -1.7430 C   0  0  0  0  0  0  0  0  0  0  0  0
    2.5886   -1.1241   -3.1013 C   0  0  0  0  0  0  0  0  0  0  0  0
    3.7948   -1.3909   -3.6300 N   0  0  0  0  0  0  0  0  0  0  0  0
    4.6942   -1.3107   -2.6897 N   0  0  0  0  0  0  0  0  0  0  0  0
    4.1401   -0.9923   -1.5105 C   0  0  0  0  0  0  0  0  0  0  0  0
    4.8358   -0.8044   -0.1957 C   0  0  0  0  0  0  0  0  0  0  0  0
    4.6339   -0.5440    0.9255 N   0  0  0  0  0  0  0  0  0  0  0  0
    5.4624   -0.4365    1.9290 C   0  0  0  0  0  0  0  0  0  0  0  0
    6.7823   -0.6665    1.6159 C   0  0  0  0  0  0  0  0  0  0  0  0
    6.6755   -1.0276   -0.1682 S   0  0  0  0  0  0  0  0  0  0  0  0
    0.4981   -0.3716   -1.0803 N   0  0  0  0  0  0  0  0  0  0  0  0
   -0.4926   -0.0519   -0.2184 C   0  0  0  0  0  0  0  0  0  0  0  0
   -1.8628    0.0925   -0.6245 N   0  0  0  0  0  0  0  0  0  0  0  0
   -2.1368    0.5282   -1.9485 C   0  0  0  0  0  0  0  0  0  0  0  0
   -0.9015    0.7632   -2.8076 C   0  0  0  0  0  0  0  0  0  0  0  0
   -2.8763    1.8578   -1.9411 C   0  0  0  0  0  0  0  0  0  0  0  0
   -4.4073   -0.6956    2.1552 H   0  0  0  0  0  0  0  0  0  0  0  0
   -5.9275    0.1189    1.4823 H   0  0  0  0  0  0  0  0  0  0  0  0
   -5.4553   -1.5208    1.0080 H   0  0  0  0  0  0  0  0  0  0  0  0
   -4.6761   -0.5183   -0.8055 H   0  0  0  0  0  0  0  0  0  0  0  0
   -4.4646    1.0892    0.0704 H   0  0  0  0  0  0  0  0  0  0  0  0
   -2.7048   -1.3107    0.6605 H   0  0  0  0  0  0  0  0  0  0  0  0
   -0.5934   -0.3408    3.8725 H   0  0  0  0  0  0  0  0  0  0  0  0
    0.0942    1.3275    3.5503 H   0  0  0  0  0  0  0  0  0  0  0  0
   -1.6263    1.1694    3.9654 H   0  0  0  0  0  0  0  0  0  0  0  0
    1.4631    0.1309    2.5314 H   0  0  0  0  0  0  0  0  0  0  0  0
    1.6232   -1.1039   -3.5932 H   0  0  0  0  0  0  0  0  0  0  0  0
    3.9787   -1.6268   -4.6442 H   0  0  0  0  0  0  0  0  0  0  0  0
    5.1166   -0.1743    2.9735 H   0  0  0  0  0  0  0  0  0  0  0  0
    7.7205   -0.6585    2.2106 H   0  0  0  0  0  0  0  0  0  0  0  0
   -2.7565   -0.1798   -2.5386 H   0  0  0  0  0  0  0  0  0  0  0  0
   -0.4941   -0.1733   -3.1980 H   0  0  0  0  0  0  0  0  0  0  0  0
   -0.1991    1.4540   -2.3328 H   0  0  0  0  0  0  0  0  0  0  0  0
   -1.2351    1.3218   -3.7451 H   0  0  0  0  0  0  0  0  0  0  0  0
   -3.9406    1.6443   -2.1586 H   0  0  0  0  0  0  0  0  0  0  0  0
   -2.7760    2.3922   -0.9740 H   0  0  0  0  0  0  0  0  0  0  0  0
   -2.5220    2.4828   -2.7906 H   0  0  0  0  0  0  0  0  0  0  0  0
  1  2  1  0
  2  3  1  0
  3  4  1  0
  4  5  2  0
  4  6  1  0
  6  7  1  0
  6  8  1  0
  8  9  2  0
  9 10  1  0
 10 11  2  0
 11 12  1  0
 12 13  2  0
 13 14  1  0
 14 15  1  0
 15 16  2  0
 16 17  1  0
 17 18  2  0
 18 19  1  0
 19 20  2  0
 20 21  1  0
 11 22  1  0
 22 23  2  0
 23 24  1  0
 24 25  1  0
 25 26  1  0
 25 27  1  0
 24  3  1  0
 23  8  1  0
 16 12  1  0
 21 17  1  0
  1 28  1  0
  1 29  1  0
  1 30  1  0
  2 31  1  0
  2 32  1  0
  3 33  1  1
  7 34  1  0
  7 35  1  0
  7 36  1  0
  9 37  1  0
 13 38  1  0
 14 39  1  0
 19 40  1  0
 20 41  1  0
 25 42  1  0
 26 43  1  0
 26 44  1  0
 26 45  1  0
 27 46  1  0
 27 47  1  0
 27 48  1  0
M  END
$$$$
