@<TRIPOS>MOLECULE
*****
 49 49 0 0 0
SMALL
GASTEIGER

@<TRIPOS>ATOM
      1 C          -6.4899    2.3394   -0.4135 C.3     1  UNL1        0.0791
      2 O          -5.9094    1.1377   -0.8948 O.2     1  UNL1       -0.4883
      3 C          -4.6919    0.6857   -0.4256 C.2     1  UNL1        0.2128
      4 C          -4.4430    0.2274    0.7898 C.2     1  UNL1        0.2128
      5 O          -5.5496    0.2255    1.6262 O.2     1  UNL1       -0.4883
      6 C          -6.3136   -0.9807    1.6496 C.3     1  UNL1        0.0791
      7 C          -3.1092   -0.2154    1.1434 C.2     1  UNL1        0.2278
      8 O          -3.0841   -0.6191    2.3595 O.2     1  UNL1       -0.2836
      9 C          -1.9595   -0.1920    0.2089 C.2     1  UNL1        0.0135
     10 C          -0.7639   -0.7123    0.8800 C.3     1  UNL1       -0.0051
     11 C           0.4648   -0.8099    0.1219 C.2     1  UNL1       -0.0806
     12 C           1.5128   -0.0806    0.5691 C.2     1  UNL1       -0.0759
     13 C           1.3353    0.7446    1.7698 C.3     1  UNL1       -0.0438
     14 C           2.8365   -0.1260   -0.1683 C.3     1  UNL1       -0.0286
     15 C           3.8206   -0.6542    0.8796 C.3     1  UNL1       -0.0308
     16 C           5.1847   -0.7801    0.3624 C.2     1  UNL1       -0.0850
     17 C           5.9458   -0.6168   -0.7110 C.2     1  UNL1       -0.0796
     18 C           5.4754   -0.1269   -2.0338 C.3     1  UNL1       -0.0440
     19 C           7.4131   -0.9566   -0.5819 C.3     1  UNL1       -0.0440
     20 C          -2.2831    0.2668   -0.9521 C.2     1  UNL1        0.0072
     21 C          -1.1494    0.2944   -1.8862 C.3     1  UNL1       -0.0356
     22 C          -3.5947    0.7270   -1.3753 C.2     1  UNL1        0.2273
     23 O          -3.7006    1.1379   -2.5530 O.2     1  UNL1       -0.2836
     24 H          -7.4643    2.5673   -0.8861 H       1  UNL1        0.0660
     25 H          -5.8425    3.2264   -0.5772 H       1  UNL1        0.0660
     26 H          -6.6089    2.2137    0.6983 H       1  UNL1        0.0660
     27 H          -7.1426   -0.8147    2.3540 H       1  UNL1        0.0660
     28 H          -6.7073   -1.1904    0.6252 H       1  UNL1        0.0660
     29 H          -5.7110   -1.8558    1.9792 H       1  UNL1        0.0660
     30 H          -0.6565   -0.2663    1.8876 H       1  UNL1        0.0357
     31 H          -1.0325   -1.7930    1.1336 H       1  UNL1        0.0357
     32 H           0.6867   -1.3923   -0.7589 H       1  UNL1        0.0575
     33 H           1.4463    0.1044    2.6681 H       1  UNL1        0.0274
     34 H           0.4699    1.4198    1.7859 H       1  UNL1        0.0274
     35 H           2.2194    1.4498    1.8162 H       1  UNL1        0.0274
     36 H           2.7717   -0.7484   -1.0573 H       1  UNL1        0.0313
     37 H           3.1640    0.9002   -0.4068 H       1  UNL1        0.0313
     38 H           3.3685   -1.6018    1.2480 H       1  UNL1        0.0310
     39 H           3.7269    0.0925    1.7205 H       1  UNL1        0.0310
     40 H           5.6780   -1.1501    1.2662 H       1  UNL1        0.0572
     41 H           4.6940   -0.8195   -2.4581 H       1  UNL1        0.0274
     42 H           4.9949    0.8508   -1.9181 H       1  UNL1        0.0274
     43 H           6.3410   -0.0516   -2.7240 H       1  UNL1        0.0274
     44 H           7.6705   -1.2795    0.4330 H       1  UNL1        0.0274
     45 H           8.0042   -0.0558   -0.8311 H       1  UNL1        0.0274
     46 H           7.6335   -1.7807   -1.3149 H       1  UNL1        0.0274
     47 H          -0.9141   -0.6949   -2.3185 H       1  UNL1        0.0279
     48 H          -1.4109    0.9073   -2.8105 H       1  UNL1        0.0279
     49 H          -0.3258    0.8469   -1.4393 H       1  UNL1        0.0279
@<TRIPOS>BOND
     1     1     2    1
     2     2     3    1
     3     3     4    2
     4     4     5    1
     5     5     6    1
     6     4     7    1
     7     7     8    2
     8     7     9    1
     9     9    10    1
    10    10    11    1
    11    11    12    2
    12    12    13    1
    13    12    14    1
    14    14    15    1
    15    15    16    1
    16    16    17    2
    17    17    18    1
    18    17    19    1
    19     9    20    2
    20    20    21    1
    21    20    22    1
    22    22    23    2
    23    22     3    1
    24     1    24    1
    25     1    25    1
    26     1    26    1
    27     6    27    1
    28     6    28    1
    29     6    29    1
    30    10    30    1
    31    10    31    1
    32    11    32    1
    33    13    33    1
    34    13    34    1
    35    13    35    1
    36    14    36    1
    37    14    37    1
    38    15    38    1
    39    15    39    1
    40    16    40    1
    41    18    41    1
    42    18    42    1
    43    18    43    1
    44    19    44    1
    45    19    45    1
    46    19    46    1
    47    21    47    1
    48    21    48    1
    49    21    49    1
