@<TRIPOS>MOLECULE
*****
 52 54 0 0 0
SMALL
GASTEIGER

@<TRIPOS>ATOM
      1 C          -6.3915   -1.9848   -0.7777 C.3     1  UNL1        0.0788
      2 O          -5.2413   -1.1919   -0.6814 O.3     1  UNL1       -0.4951
      3 C          -4.0000   -1.7529   -0.3888 C.ar    1  UNL1        0.1207
      4 C          -3.9261   -3.1101   -0.1955 C.ar    1  UNL1       -0.0199
      5 C          -2.6755   -3.6287    0.0931 C.ar    1  UNL1       -0.0577
      6 C          -1.5791   -2.7970    0.1752 C.ar    1  UNL1       -0.0524
      7 C          -1.6781   -1.4092   -0.0265 C.ar    1  UNL1        0.0035
      8 C          -0.4906   -0.5874    0.0633 C.ar    1  UNL1        0.0697
      9 C           0.7311   -0.8722   -0.5466 C.ar    1  UNL1       -0.0108
     10 C           1.6373    0.1134   -0.2205 C.ar    1  UNL1        0.0892
     11 C           3.0759    0.2040   -0.6620 C.3     1  UNL1        0.0928
     12 O           3.8100   -0.4614    0.2762 O.3     1  UNL1       -0.3566
     13 C           5.1639   -0.5178    0.0923 C.3     1  UNL1        0.1602
     14 C           5.7044   -1.3085    1.3017 C.3     1  UNL1       -0.0256
     15 C           5.8319    0.8494    0.2137 C.3     1  UNL1       -0.0256
     16 C           5.6012   -1.2147   -1.1373 C.2     1  UNL1        0.3365
     17 O           4.7920   -1.7264   -1.9468 O.2     1  UNL1       -0.2478
     18 O           6.9522   -1.3182   -1.4261 O.3     1  UNL1       -0.4786
     19 N           0.9683    0.9638    0.5650 N.ar    1  UNL1       -0.1730
     20 N          -0.3010    0.5505    0.7370 N.ar    1  UNL1       -0.2590
     21 C          -1.2066    1.3249    1.5420 C.3     1  UNL1        0.0682
     22 C          -1.9105    2.3962    0.8045 C.ar    1  UNL1       -0.0121
     23 C          -1.6934    2.6825   -0.5363 C.ar    1  UNL1       -0.0558
     24 C          -2.3887    3.6990   -1.1439 C.ar    1  UNL1       -0.0614
     25 C          -3.3263    4.4757   -0.4574 C.ar    1  UNL1       -0.0607
     26 C          -3.5345    4.1820    0.8769 C.ar    1  UNL1       -0.0474
     27 C          -2.8362    3.1672    1.4716 C.ar    1  UNL1        0.0228
     28 BR         -3.1670    2.8054    3.3262 Br      1  UNL1       -0.0500
     29 C          -2.9185   -0.8928   -0.3132 C.ar    1  UNL1       -0.0108
     30 H          -7.3252   -1.3913   -0.7282 H       1  UNL1        0.0660
     31 H          -6.4197   -2.6321    0.1457 H       1  UNL1        0.0660
     32 H          -6.3600   -2.6834   -1.6283 H       1  UNL1        0.0660
     33 H          -4.7812   -3.7728   -0.2578 H       1  UNL1        0.0654
     34 H          -2.5715   -4.6889    0.2522 H       1  UNL1        0.0619
     35 H          -0.6309   -3.2624    0.4037 H       1  UNL1        0.0624
     36 H           0.9158   -1.7349   -1.1718 H       1  UNL1        0.0658
     37 H           3.3224    1.2976   -0.7196 H       1  UNL1        0.0626
     38 H           3.0988   -0.1702   -1.6813 H       1  UNL1        0.0626
     39 H           5.2987   -2.3378    1.1723 H       1  UNL1        0.0263
     40 H           5.3435   -0.8166    2.2275 H       1  UNL1        0.0263
     41 H           6.8020   -1.3730    1.2772 H       1  UNL1        0.0263
     42 H           6.8784    0.7278   -0.1387 H       1  UNL1        0.0263
     43 H           5.9035    1.1610    1.2926 H       1  UNL1        0.0263
     44 H           5.2895    1.6286   -0.3252 H       1  UNL1        0.0263
     45 H           7.3007   -1.3686   -2.3703 H       1  UNL1        0.2951
     46 H          -1.9707    0.6959    2.0446 H       1  UNL1        0.0559
     47 H          -0.6487    1.8336    2.3716 H       1  UNL1        0.0559
     48 H          -0.9794    2.0904   -1.0571 H       1  UNL1        0.0621
     49 H          -2.2419    3.9507   -2.1982 H       1  UNL1        0.0618
     50 H          -3.8765    5.2730   -0.9203 H       1  UNL1        0.0618
     51 H          -4.2571    4.7746    1.4203 H       1  UNL1        0.0629
     52 H          -3.0941    0.1588   -0.4896 H       1  UNL1        0.0661
@<TRIPOS>BOND
     1     1     2    1
     2     2     3    1
     3     3     4   ar
     4     4     5   ar
     5     5     6   ar
     6     6     7   ar
     7     7     8    1
     8     8     9   ar
     9     9    10   ar
    10    10    11    1
    11    11    12    1
    12    12    13    1
    13    13    14    1
    14    13    15    1
    15    13    16    1
    16    16    17    2
    17    16    18    1
    18    10    19   ar
    19    19    20   ar
    20    20    21    1
    21    21    22    1
    22    22    23   ar
    23    23    24   ar
    24    24    25   ar
    25    25    26   ar
    26    26    27   ar
    27    27    28    1
    28     7    29   ar
    29    29     3   ar
    30    20     8   ar
    31    27    22   ar
    32     1    30    1
    33     1    31    1
    34     1    32    1
    35     4    33    1
    36     5    34    1
    37     6    35    1
    38     9    36    1
    39    11    37    1
    40    11    38    1
    41    14    39    1
    42    14    40    1
    43    14    41    1
    44    15    42    1
    45    15    43    1
    46    15    44    1
    47    18    45    1
    48    21    46    1
    49    21    47    1
    50    23    48    1
    51    24    49    1
    52    25    50    1
    53    26    51    1
    54    29    52    1
