
     RDKit          3D

 52 54  0  0  0  0  0  0  0  0999 V2000
   -6.3915   -1.9848   -0.7777 C   0  0  0  0  0  0  0  0  0  0  0  0
   -5.2413   -1.1919   -0.6814 O   0  0  0  0  0  0  0  0  0  0  0  0
   -4.0000   -1.7529   -0.3888 C   0  0  0  0  0  0  0  0  0  0  0  0
   -3.9261   -3.1101   -0.1955 C   0  0  0  0  0  0  0  0  0  0  0  0
   -2.6755   -3.6287    0.0931 C   0  0  0  0  0  0  0  0  0  0  0  0
   -1.5791   -2.7970    0.1752 C   0  0  0  0  0  0  0  0  0  0  0  0
   -1.6781   -1.4092   -0.0265 C   0  0  0  0  0  0  0  0  0  0  0  0
   -0.4906   -0.5874    0.0633 C   0  0  0  0  0  0  0  0  0  0  0  0
    0.7311   -0.8722   -0.5466 C   0  0  0  0  0  0  0  0  0  0  0  0
    1.6373    0.1134   -0.2205 C   0  0  0  0  0  0  0  0  0  0  0  0
    3.0759    0.2040   -0.6620 C   0  0  0  0  0  0  0  0  0  0  0  0
    3.8100   -0.4614    0.2762 O   0  0  0  0  0  0  0  0  0  0  0  0
    5.1639   -0.5178    0.0923 C   0  0  0  0  0  0  0  0  0  0  0  0
    5.7044   -1.3085    1.3017 C   0  0  0  0  0  0  0  0  0  0  0  0
    5.8319    0.8494    0.2137 C   0  0  0  0  0  0  0  0  0  0  0  0
    5.6012   -1.2147   -1.1373 C   0  0  0  0  0  0  0  0  0  0  0  0
    4.7920   -1.7264   -1.9468 O   0  0  0  0  0  0  0  0  0  0  0  0
    6.9522   -1.3182   -1.4261 O   0  0  0  0  0  0  0  0  0  0  0  0
    0.9683    0.9638    0.5650 N   0  0  0  0  0  0  0  0  0  0  0  0
   -0.3010    0.5505    0.7370 N   0  0  0  0  0  0  0  0  0  0  0  0
   -1.2066    1.3249    1.5420 C   0  0  0  0  0  0  0  0  0  0  0  0
   -1.9105    2.3962    0.8045 C   0  0  0  0  0  0  0  0  0  0  0  0
   -1.6934    2.6825   -0.5363 C   0  0  0  0  0  0  0  0  0  0  0  0
   -2.3887    3.6990   -1.1439 C   0  0  0  0  0  0  0  0  0  0  0  0
   -3.3263    4.4757   -0.4574 C   0  0  0  0  0  0  0  0  0  0  0  0
   -3.5345    4.1820    0.8769 C   0  0  0  0  0  0  0  0  0  0  0  0
   -2.8362    3.1672    1.4716 C   0  0  0  0  0  0  0  0  0  0  0  0
   -3.1670    2.8054    3.3262 Br  0  0  0  0  0  0  0  0  0  0  0  0
   -2.9185   -0.8928   -0.3132 C   0  0  0  0  0  0  0  0  0  0  0  0
   -7.3252   -1.3913   -0.7282 H   0  0  0  0  0  0  0  0  0  0  0  0
   -6.4197   -2.6321    0.1457 H   0  0  0  0  0  0  0  0  0  0  0  0
   -6.3600   -2.6834   -1.6283 H   0  0  0  0  0  0  0  0  0  0  0  0
   -4.7812   -3.7728   -0.2578 H   0  0  0  0  0  0  0  0  0  0  0  0
   -2.5715   -4.6889    0.2522 H   0  0  0  0  0  0  0  0  0  0  0  0
   -0.6309   -3.2624    0.4037 H   0  0  0  0  0  0  0  0  0  0  0  0
    0.9158   -1.7349   -1.1718 H   0  0  0  0  0  0  0  0  0  0  0  0
    3.3224    1.2976   -0.7196 H   0  0  0  0  0  0  0  0  0  0  0  0
    3.0988   -0.1702   -1.6813 H   0  0  0  0  0  0  0  0  0  0  0  0
    5.2987   -2.3378    1.1723 H   0  0  0  0  0  0  0  0  0  0  0  0
    5.3435   -0.8166    2.2275 H   0  0  0  0  0  0  0  0  0  0  0  0
    6.8020   -1.3730    1.2772 H   0  0  0  0  0  0  0  0  0  0  0  0
    6.8784    0.7278   -0.1387 H   0  0  0  0  0  0  0  0  0  0  0  0
    5.9035    1.1610    1.2926 H   0  0  0  0  0  0  0  0  0  0  0  0
    5.2895    1.6286   -0.3252 H   0  0  0  0  0  0  0  0  0  0  0  0
    7.3007   -1.3686   -2.3703 H   0  0  0  0  0  0  0  0  0  0  0  0
   -1.9707    0.6959    2.0446 H   0  0  0  0  0  0  0  0  0  0  0  0
   -0.6487    1.8336    2.3716 H   0  0  0  0  0  0  0  0  0  0  0  0
   -0.9794    2.0904   -1.0571 H   0  0  0  0  0  0  0  0  0  0  0  0
   -2.2419    3.9507   -2.1982 H   0  0  0  0  0  0  0  0  0  0  0  0
   -3.8765    5.2730   -0.9203 H   0  0  0  0  0  0  0  0  0  0  0  0
   -4.2571    4.7746    1.4203 H   0  0  0  0  0  0  0  0  0  0  0  0
   -3.0941    0.1588   -0.4896 H   0  0  0  0  0  0  0  0  0  0  0  0
  1  2  1  0
  2  3  1  0
  3  4  2  0
  4  5  1  0
  5  6  2  0
  6  7  1  0
  7  8  1  0
  8  9  2  0
  9 10  1  0
 10 11  1  0
 11 12  1  0
 12 13  1  0
 13 14  1  0
 13 15  1  0
 13 16  1  0
 16 17  2  0
 16 18  1  0
 10 19  2  0
 19 20  1  0
 20 21  1  0
 21 22  1  0
 22 23  2  0
 23 24  1  0
 24 25  2  0
 25 26  1  0
 26 27  2  0
 27 28  1  0
  7 29  2  0
 29  3  1  0
 20  8  1  0
 27 22  1  0
  1 30  1  0
  1 31  1  0
  1 32  1  0
  4 33  1  0
  5 34  1  0
  6 35  1  0
  9 36  1  0
 11 37  1  0
 11 38  1  0
 14 39  1  0
 14 40  1  0
 14 41  1  0
 15 42  1  0
 15 43  1  0
 15 44  1  0
 18 45  1  0
 21 46  1  0
 21 47  1  0
 23 48  1  0
 24 49  1  0
 25 50  1  0
 26 51  1  0
 29 52  1  0
M  END
$$$$
