
     RDKit          3D

 47 50  0  0  0  0  0  0  0  0999 V2000
    8.4922    2.0474   -2.1169 N   0  0  0  0  0  0  0  0  0  0  0  0
    7.4577    1.7557   -1.6475 C   0  0  0  0  0  0  0  0  0  0  0  0
    6.2015    1.3797   -1.0634 C   0  0  0  0  0  0  0  0  0  0  0  0
    5.4344    0.3543   -1.6123 C   0  0  0  0  0  0  0  0  0  0  0  0
    4.2538   -0.0135   -1.0794 N   0  0  0  0  0  0  0  0  0  0  0  0
    3.7399    0.5805    0.0112 C   0  0  0  0  0  0  0  0  0  0  0  0
    2.4604    0.1446    0.5329 C   0  0  0  0  0  0  0  0  0  0  0  0
    1.8681    0.6312    1.5259 O   0  0  0  0  0  0  0  0  0  0  0  0
    1.7376   -0.9432   -0.0912 N   0  0  0  0  0  0  0  0  0  0  0  0
    0.4710   -1.3822    0.4173 C   0  0  0  0  0  0  0  0  0  0  0  0
    0.3770   -2.3736    1.3657 C   0  0  0  0  0  0  0  0  0  0  0  0
   -0.8181   -2.8151    1.8766 C   0  0  0  0  0  0  0  0  0  0  0  0
   -2.0131   -2.2422    1.4238 C   0  0  0  0  0  0  0  0  0  0  0  0
   -3.5429   -2.8404    2.0738 Cl  0  0  0  0  0  0  0  0  0  0  0  0
   -1.9425   -1.2487    0.4760 C   0  0  0  0  0  0  0  0  0  0  0  0
   -3.1912   -0.5976   -0.0140 C   0  0  1  0  0  0  0  0  0  0  0  0
   -3.7304    0.2210    1.1622 C   0  0  0  0  0  0  0  0  0  0  0  0
   -4.8864    0.8977    0.8321 F   0  0  0  0  0  0  0  0  0  0  0  0
   -2.8104    0.3788   -1.0113 N   0  0  0  0  0  0  0  0  0  0  0  0
   -3.6627    0.7378   -1.9056 C   0  0  0  0  0  0  0  0  0  0  0  0
   -3.3234    1.7041   -2.9112 N   0  0  0  0  0  0  0  0  0  0  0  0
   -4.9228    0.1497   -1.8542 O   0  0  0  0  0  0  0  0  0  0  0  0
   -5.1003   -1.2083   -1.4906 C   0  0  2  0  0  0  0  0  0  0  0  0
   -5.5821   -1.6431   -0.1802 C   0  0  0  0  0  0  0  0  0  0  0  0
   -4.1328   -1.6411   -0.4515 C   0  0  2  0  0  0  0  0  0  0  0  0
   -0.7111   -0.8324   -0.0138 C   0  0  0  0  0  0  0  0  0  0  0  0
    4.4634    1.5893    0.5774 C   0  0  0  0  0  0  0  0  0  0  0  0
    3.9883    2.2846    1.7767 C   0  0  0  0  0  0  0  0  0  0  0  0
    2.9360    3.1383    1.3693 O   0  0  0  0  0  0  0  0  0  0  0  0
    5.6929    2.0004    0.0537 C   0  0  0  0  0  0  0  0  0  0  0  0
    5.8269   -0.1398   -2.4910 H   0  0  0  0  0  0  0  0  0  0  0  0
    2.1857   -1.3827   -0.9203 H   0  0  0  0  0  0  0  0  0  0  0  0
    1.2858   -2.8230    1.7225 H   0  0  0  0  0  0  0  0  0  0  0  0
   -0.9083   -3.5937    2.6223 H   0  0  0  0  0  0  0  0  0  0  0  0
   -3.9607   -0.3995    2.0429 H   0  0  0  0  0  0  0  0  0  0  0  0
   -2.9899    1.0243    1.4186 H   0  0  0  0  0  0  0  0  0  0  0  0
   -3.7061    1.5984   -3.8575 H   0  0  0  0  0  0  0  0  0  0  0  0
   -2.6937    2.4855   -2.6402 H   0  0  0  0  0  0  0  0  0  0  0  0
   -5.2224   -1.8906   -2.3563 H   0  0  0  0  0  0  0  0  0  0  0  0
   -6.1363   -2.6415   -0.1660 H   0  0  0  0  0  0  0  0  0  0  0  0
   -6.0026   -0.9905    0.5992 H   0  0  0  0  0  0  0  0  0  0  0  0
   -3.6890   -2.6787   -0.5485 H   0  0  0  0  0  0  0  0  0  0  0  0
   -0.6684   -0.0435   -0.7667 H   0  0  0  0  0  0  0  0  0  0  0  0
    3.5969    1.6636    2.5784 H   0  0  0  0  0  0  0  0  0  0  0  0
    4.7744    2.9983    2.1347 H   0  0  0  0  0  0  0  0  0  0  0  0
    2.8285    3.7994    2.1021 H   0  0  0  0  0  0  0  0  0  0  0  0
    6.2755    2.8001    0.4943 H   0  0  0  0  0  0  0  0  0  0  0  0
  1  2  3  0
  2  3  1  0
  3  4  2  0
  4  5  1  0
  5  6  2  0
  6  7  1  0
  7  8  2  0
  7  9  1  0
  9 10  1  0
 10 11  2  0
 11 12  1  0
 12 13  2  0
 13 14  1  0
 13 15  1  0
 15 16  1  0
 16 17  1  1
 17 18  1  0
 16 19  1  0
 19 20  2  0
 20 21  1  0
 20 22  1  0
 22 23  1  0
 23 24  1  0
 24 25  1  0
 15 26  2  0
  6 27  1  0
 27 28  1  0
 28 29  1  0
 27 30  2  0
 30  3  1  0
 26 10  1  0
 25 16  1  0
 25 23  1  0
  4 31  1  0
  9 32  1  0
 11 33  1  0
 12 34  1  0
 17 35  1  0
 17 36  1  0
 21 37  1  0
 21 38  1  0
 23 39  1  6
 24 40  1  0
 24 41  1  0
 25 42  1  6
 26 43  1  0
 28 44  1  0
 28 45  1  0
 29 46  1  0
 30 47  1  0
M  END
$$$$
