@<TRIPOS>MOLECULE
*****
 47 50 0 0 0
SMALL
GASTEIGER

@<TRIPOS>ATOM
      1 N           8.4922    2.0474   -2.1169 N.1     1  UNL1       -0.1908
      2 C           7.4577    1.7557   -1.6475 C.1     1  UNL1        0.1007
      3 C           6.2015    1.3797   -1.0634 C.ar    1  UNL1        0.0702
      4 C           5.4344    0.3543   -1.6123 C.ar    1  UNL1        0.0458
      5 N           4.2538   -0.0135   -1.0794 N.ar    1  UNL1       -0.2487
      6 C           3.7399    0.5805    0.0112 C.ar    1  UNL1        0.1311
      7 C           2.4604    0.1446    0.5329 C.2     1  UNL1        0.2669
      8 O           1.8681    0.6312    1.5259 O.2     1  UNL1       -0.2682
      9 N           1.7376   -0.9432   -0.0912 N.am    1  UNL1       -0.2802
     10 C           0.4710   -1.3822    0.4173 C.ar    1  UNL1        0.0341
     11 C           0.3770   -2.3736    1.3657 C.ar    1  UNL1       -0.0391
     12 C          -0.8181   -2.8151    1.8766 C.ar    1  UNL1       -0.0413
     13 C          -2.0131   -2.2422    1.4238 C.ar    1  UNL1        0.0466
     14 CL         -3.5429   -2.8404    2.0738 Cl      1  UNL1       -0.0832
     15 C          -1.9425   -1.2487    0.4760 C.ar    1  UNL1        0.0030
     16 C          -3.1912   -0.5976   -0.0140 C.3     1  UNL1        0.1271
     17 C          -3.7304    0.2210    1.1622 C.3     1  UNL1        0.1199
     18 F          -4.8864    0.8977    0.8321 F       1  UNL1       -0.2462
     19 N          -2.8104    0.3788   -1.0113 N.2     1  UNL1       -0.2225
     20 C          -3.6627    0.7378   -1.9056 C.2     1  UNL1        0.2763
     21 N          -3.3234    1.7041   -2.9112 N.pl3   1  UNL1       -0.3134
     22 O          -4.9228    0.1497   -1.8542 O.2     1  UNL1       -0.4622
     23 C          -5.1003   -1.2083   -1.4906 C.3     1  UNL1        0.1090
     24 C          -5.5821   -1.6431   -0.1802 C.3     1  UNL1       -0.0065
     25 C          -4.1328   -1.6411   -0.4515 C.3     1  UNL1        0.0314
     26 C          -0.7111   -0.8324   -0.0138 C.ar    1  UNL1       -0.0335
     27 C           4.4634    1.5893    0.5774 C.ar    1  UNL1        0.0095
     28 C           3.9883    2.2846    1.7767 C.3     1  UNL1        0.0714
     29 O           2.9360    3.1383    1.3693 O.3     1  UNL1       -0.3903
     30 C           5.6929    2.0004    0.0537 C.ar    1  UNL1       -0.0353
     31 H           5.8269   -0.1398   -2.4910 H       1  UNL1        0.0843
     32 H           2.1857   -1.3827   -0.9203 H       1  UNL1        0.1552
     33 H           1.2858   -2.8230    1.7225 H       1  UNL1        0.0636
     34 H          -0.9083   -3.5937    2.6223 H       1  UNL1        0.0633
     35 H          -3.9607   -0.3995    2.0429 H       1  UNL1        0.0643
     36 H          -2.9899    1.0243    1.4186 H       1  UNL1        0.0643
     37 H          -3.7061    1.5984   -3.8575 H       1  UNL1        0.1466
     38 H          -2.6937    2.4855   -2.6402 H       1  UNL1        0.1466
     39 H          -5.2224   -1.8906   -2.3563 H       1  UNL1        0.0737
     40 H          -6.1363   -2.6415   -0.1660 H       1  UNL1        0.0306
     41 H          -6.0026   -0.9905    0.5992 H       1  UNL1        0.0306
     42 H          -3.6890   -2.6787   -0.5485 H       1  UNL1        0.0365
     43 H          -0.6684   -0.0435   -0.7667 H       1  UNL1        0.0640
     44 H           3.5969    1.6636    2.5784 H       1  UNL1        0.0608
     45 H           4.7744    2.9983    2.1347 H       1  UNL1        0.0608
     46 H           2.8285    3.7994    2.1021 H       1  UNL1        0.2098
     47 H           6.2755    2.8001    0.4943 H       1  UNL1        0.0635
@<TRIPOS>BOND
     1     1     2    3
     2     2     3    1
     3     3     4   ar
     4     4     5   ar
     5     5     6   ar
     6     6     7    1
     7     7     8    2
     8     7     9   am
     9     9    10    1
    10    10    11   ar
    11    11    12   ar
    12    12    13   ar
    13    13    14    1
    14    13    15   ar
    15    15    16    1
    16    16    17    1
    17    17    18    1
    18    16    19    1
    19    19    20    2
    20    20    21    1
    21    20    22    1
    22    22    23    1
    23    23    24    1
    24    24    25    1
    25    15    26   ar
    26     6    27   ar
    27    27    28    1
    28    28    29    1
    29    27    30   ar
    30    30     3   ar
    31    26    10   ar
    32    25    16    1
    33    25    23    1
    34     4    31    1
    35     9    32    1
    36    11    33    1
    37    12    34    1
    38    17    35    1
    39    17    36    1
    40    21    37    1
    41    21    38    1
    42    23    39    1
    43    24    40    1
    44    24    41    1
    45    25    42    1
    46    26    43    1
    47    28    44    1
    48    28    45    1
    49    29    46    1
    50    30    47    1
