@<TRIPOS>MOLECULE
*****
 37 39 0 0 0
SMALL
GASTEIGER

@<TRIPOS>ATOM
      1 O          -6.0405    2.1221    0.6023 O.2     1  UNL1       -0.2681
      2 C          -4.8233    1.8906    0.9075 C.2     1  UNL1        0.2665
      3 N          -4.2456    2.8260    1.8020 N.am    1  UNL1       -0.1935
      4 O          -4.9517    3.8833    2.2865 O.3     1  UNL1       -0.2949
      5 C          -4.1308    0.7455    0.3545 C.ar    1  UNL1        0.0393
      6 C          -4.8356   -0.0839   -0.5065 C.ar    1  UNL1       -0.0495
      7 C          -4.1920   -1.1731   -1.0392 C.ar    1  UNL1       -0.0604
      8 C          -2.8613   -1.4344   -0.7187 C.ar    1  UNL1       -0.0524
      9 C          -2.1792   -0.6027    0.1353 C.ar    1  UNL1        0.0044
     10 C          -0.7939   -0.8523    0.4845 C.ar    1  UNL1        0.1126
     11 C           0.0030   -1.9080    0.0338 C.ar    1  UNL1        0.0543
     12 N           1.2304   -1.7942    0.5823 N.ar    1  UNL1       -0.2409
     13 C           2.3059   -2.7511    0.3085 C.3     1  UNL1        0.0933
     14 S           3.2629   -2.2089   -1.1328 S.3     1  UNL1       -0.1017
     15 C           4.1239   -0.7065   -0.7810 C.ar    1  UNL1        0.0097
     16 C           5.3908   -0.7413   -0.2619 C.ar    1  UNL1       -0.0483
     17 C           6.0668    0.4546    0.0141 C.ar    1  UNL1       -0.0607
     18 C           5.4541    1.6829   -0.2381 C.ar    1  UNL1       -0.0617
     19 C           4.1898    1.7035   -0.7562 C.ar    1  UNL1       -0.0607
     20 C           3.5278    0.5040   -1.0264 C.ar    1  UNL1       -0.0483
     21 N           1.2264   -0.7330    1.3388 N.ar    1  UNL1       -0.0643
     22 N           0.0197   -0.1520    1.2945 N.ar    1  UNL1       -0.1295
     23 C          -2.8202    0.4955    0.6755 C.ar    1  UNL1       -0.0403
     24 H          -3.2633    2.7320    2.1154 H       1  UNL1        0.1825
     25 H          -5.9064    3.6707    2.1595 H       1  UNL1        0.2414
     26 H          -5.8702    0.1117   -0.7612 H       1  UNL1        0.0625
     27 H          -4.7260   -1.8462   -1.7236 H       1  UNL1        0.0618
     28 H          -2.4216   -2.3076   -1.1747 H       1  UNL1        0.0624
     29 H          -0.3726   -2.6640   -0.6492 H       1  UNL1        0.0849
     30 H           2.9063   -2.8502    1.2170 H       1  UNL1        0.0627
     31 H           1.8642   -3.7615    0.0800 H       1  UNL1        0.0627
     32 H           5.9311   -1.6494   -0.0396 H       1  UNL1        0.0629
     33 H           7.0597    0.4062    0.4208 H       1  UNL1        0.0618
     34 H           6.0013    2.6082   -0.0148 H       1  UNL1        0.0618
     35 H           3.6761    2.6300   -0.9674 H       1  UNL1        0.0618
     36 H           2.5194    0.5765   -1.4396 H       1  UNL1        0.0629
     37 H          -2.3250    1.1771    1.3510 H       1  UNL1        0.0632
@<TRIPOS>BOND
     1     1     2    2
     2     2     3   am
     3     3     4    1
     4     2     5    1
     5     5     6   ar
     6     6     7   ar
     7     7     8   ar
     8     8     9   ar
     9     9    10    1
    10    10    11   ar
    11    11    12   ar
    12    12    13    1
    13    13    14    1
    14    14    15    1
    15    15    16   ar
    16    16    17   ar
    17    17    18   ar
    18    18    19   ar
    19    19    20   ar
    20    12    21   ar
    21    21    22   ar
    22     9    23   ar
    23    23     5   ar
    24    22    10   ar
    25    20    15   ar
    26     3    24    1
    27     4    25    1
    28     6    26    1
    29     7    27    1
    30     8    28    1
    31    11    29    1
    32    13    30    1
    33    13    31    1
    34    16    32    1
    35    17    33    1
    36    18    34    1
    37    19    35    1
    38    20    36    1
    39    23    37    1
