@<TRIPOS>MOLECULE
*****
 47 50 0 0 0
SMALL
GASTEIGER

@<TRIPOS>ATOM
      1 C           5.9742    0.5685   -0.1220 C.3     1  UNL1       -0.0127
      2 N           4.5785    0.2305    0.0648 N.3     1  UNL1       -0.3029
      3 C           3.8861    0.5317   -1.1734 C.3     1  UNL1        0.0114
      4 C           2.3820    0.5359   -0.9756 C.3     1  UNL1        0.0122
      5 N           2.0970   -0.0214    0.2835 N.3     1  UNL1       -0.2916
      6 C           1.1243   -1.0164    0.4177 C.3     1  UNL1        0.0767
      7 C          -0.2725   -0.6767    0.2250 C.2     1  UNL1        0.2394
      8 O           0.4357    0.3730    0.0661 O.2     1  UNL1       -0.2734
      9 N          -1.6548   -0.4106    0.0491 N.am    1  UNL1       -0.2211
     10 C          -2.4643   -1.5912    0.2333 C.ar    1  UNL1        0.0549
     11 C          -1.8292   -2.7815   -0.0427 C.ar    1  UNL1       -0.0391
     12 C          -2.4449   -4.0088    0.0793 C.ar    1  UNL1       -0.0600
     13 C          -3.7650   -4.0117    0.5016 C.ar    1  UNL1       -0.0609
     14 C          -4.4521   -2.8526    0.7923 C.ar    1  UNL1       -0.0478
     15 C          -3.7975   -1.6470    0.6565 C.ar    1  UNL1        0.0588
     16 C          -4.6581   -0.5218    1.0014 C.2     1  UNL1        0.2501
     17 O          -5.7297   -0.7698    1.6096 O.2     1  UNL1       -0.2698
     18 N          -4.3989    0.8466    0.7126 N.am    1  UNL1       -0.2787
     19 C          -3.3343    1.4786    0.0163 C.ar    1  UNL1        0.0748
     20 C          -2.1168    0.8965   -0.2672 C.ar    1  UNL1        0.1534
     21 N          -1.1022    1.5216   -0.9359 N.ar    1  UNL1       -0.2377
     22 C          -1.2775    2.8033   -1.3619 C.ar    1  UNL1        0.0298
     23 C          -2.4949    3.3911   -1.0807 C.ar    1  UNL1       -0.0417
     24 C          -3.5298    2.7755   -0.4071 C.ar    1  UNL1       -0.0357
     25 C           2.5775    0.6583    1.4195 C.3     1  UNL1        0.0122
     26 C           4.0575    0.9550    1.2044 C.3     1  UNL1        0.0114
     27 H           6.5658   -0.3808   -0.1251 H       1  UNL1        0.0391
     28 H           6.3507    1.2344    0.6879 H       1  UNL1        0.0391
     29 H           6.1613    1.0561   -1.1005 H       1  UNL1        0.0391
     30 H           4.2447    1.5241   -1.5141 H       1  UNL1        0.0439
     31 H           4.1515   -0.2859   -1.8738 H       1  UNL1        0.0439
     32 H           1.9064   -0.0883   -1.7696 H       1  UNL1        0.0439
     33 H           2.0227    1.5655   -1.1659 H       1  UNL1        0.0439
     34 H           1.4142   -1.8585   -0.2871 H       1  UNL1        0.0522
     35 H           1.2692   -1.5021    1.4289 H       1  UNL1        0.0522
     36 H          -0.8056   -2.6702   -0.3641 H       1  UNL1        0.0636
     37 H          -1.9099   -4.9230   -0.1479 H       1  UNL1        0.0618
     38 H          -4.2470   -4.9738    0.5967 H       1  UNL1        0.0618
     39 H          -5.4955   -2.8631    1.1253 H       1  UNL1        0.0626
     40 H          -5.1011    1.5669    1.0601 H       1  UNL1        0.1552
     41 H          -0.5457    3.3923   -1.8974 H       1  UNL1        0.0830
     42 H          -2.7345    4.4169   -1.3801 H       1  UNL1        0.0633
     43 H          -4.4854    3.2165   -0.1786 H       1  UNL1        0.0638
     44 H           2.1025    1.6379    1.6196 H       1  UNL1        0.0439
     45 H           2.4582    0.0234    2.3181 H       1  UNL1        0.0439
     46 H           4.6294    0.6231    2.0828 H       1  UNL1        0.0439
     47 H           4.2574    2.0320    1.0354 H       1  UNL1        0.0439
@<TRIPOS>BOND
     1     1     2    1
     2     2     3    1
     3     3     4    1
     4     4     5    1
     5     5     6    1
     6     6     7    1
     7     7     8    2
     8     7     9   am
     9     9    10    1
    10    10    11   ar
    11    11    12   ar
    12    12    13   ar
    13    13    14   ar
    14    14    15   ar
    15    15    16    1
    16    16    17    2
    17    16    18   am
    18    18    19    1
    19    19    20   ar
    20    20    21   ar
    21    21    22   ar
    22    22    23   ar
    23    23    24   ar
    24     5    25    1
    25    25    26    1
    26    26     2    1
    27    20     9    1
    28    15    10   ar
    29    24    19   ar
    30     1    27    1
    31     1    28    1
    32     1    29    1
    33     3    30    1
    34     3    31    1
    35     4    32    1
    36     4    33    1
    37     6    34    1
    38     6    35    1
    39    11    36    1
    40    12    37    1
    41    13    38    1
    42    14    39    1
    43    18    40    1
    44    22    41    1
    45    23    42    1
    46    24    43    1
    47    25    44    1
    48    25    45    1
    49    26    46    1
    50    26    47    1
