
     RDKit          3D

 47 50  0  0  0  0  0  0  0  0999 V2000
    5.9742    0.5685   -0.1220 C   0  0  0  0  0  0  0  0  0  0  0  0
    4.5785    0.2305    0.0648 N   0  0  0  0  0  0  0  0  0  0  0  0
    3.8861    0.5317   -1.1734 C   0  0  0  0  0  0  0  0  0  0  0  0
    2.3820    0.5359   -0.9756 C   0  0  0  0  0  0  0  0  0  0  0  0
    2.0970   -0.0214    0.2835 N   0  0  0  0  0  0  0  0  0  0  0  0
    1.1243   -1.0164    0.4177 C   0  0  0  0  0  0  0  0  0  0  0  0
   -0.2725   -0.6767    0.2250 C   0  0  0  0  0  0  0  0  0  0  0  0
    0.4357    0.3730    0.0661 O   0  0  0  0  0  0  0  0  0  0  0  0
   -1.6548   -0.4106    0.0491 N   0  0  0  0  0  0  0  0  0  0  0  0
   -2.4643   -1.5912    0.2333 C   0  0  0  0  0  0  0  0  0  0  0  0
   -1.8292   -2.7815   -0.0427 C   0  0  0  0  0  0  0  0  0  0  0  0
   -2.4449   -4.0088    0.0793 C   0  0  0  0  0  0  0  0  0  0  0  0
   -3.7650   -4.0117    0.5016 C   0  0  0  0  0  0  0  0  0  0  0  0
   -4.4521   -2.8526    0.7923 C   0  0  0  0  0  0  0  0  0  0  0  0
   -3.7975   -1.6470    0.6565 C   0  0  0  0  0  0  0  0  0  0  0  0
   -4.6581   -0.5218    1.0014 C   0  0  0  0  0  0  0  0  0  0  0  0
   -5.7297   -0.7698    1.6096 O   0  0  0  0  0  0  0  0  0  0  0  0
   -4.3989    0.8466    0.7126 N   0  0  0  0  0  0  0  0  0  0  0  0
   -3.3343    1.4786    0.0163 C   0  0  0  0  0  0  0  0  0  0  0  0
   -2.1168    0.8965   -0.2672 C   0  0  0  0  0  0  0  0  0  0  0  0
   -1.1022    1.5216   -0.9359 N   0  0  0  0  0  0  0  0  0  0  0  0
   -1.2775    2.8033   -1.3619 C   0  0  0  0  0  0  0  0  0  0  0  0
   -2.4949    3.3911   -1.0807 C   0  0  0  0  0  0  0  0  0  0  0  0
   -3.5298    2.7755   -0.4071 C   0  0  0  0  0  0  0  0  0  0  0  0
    2.5775    0.6583    1.4195 C   0  0  0  0  0  0  0  0  0  0  0  0
    4.0575    0.9550    1.2044 C   0  0  0  0  0  0  0  0  0  0  0  0
    6.5658   -0.3808   -0.1251 H   0  0  0  0  0  0  0  0  0  0  0  0
    6.3507    1.2344    0.6879 H   0  0  0  0  0  0  0  0  0  0  0  0
    6.1613    1.0561   -1.1005 H   0  0  0  0  0  0  0  0  0  0  0  0
    4.2447    1.5241   -1.5141 H   0  0  0  0  0  0  0  0  0  0  0  0
    4.1515   -0.2859   -1.8738 H   0  0  0  0  0  0  0  0  0  0  0  0
    1.9064   -0.0883   -1.7696 H   0  0  0  0  0  0  0  0  0  0  0  0
    2.0227    1.5655   -1.1659 H   0  0  0  0  0  0  0  0  0  0  0  0
    1.4142   -1.8585   -0.2871 H   0  0  0  0  0  0  0  0  0  0  0  0
    1.2692   -1.5021    1.4289 H   0  0  0  0  0  0  0  0  0  0  0  0
   -0.8056   -2.6702   -0.3641 H   0  0  0  0  0  0  0  0  0  0  0  0
   -1.9099   -4.9230   -0.1479 H   0  0  0  0  0  0  0  0  0  0  0  0
   -4.2470   -4.9738    0.5967 H   0  0  0  0  0  0  0  0  0  0  0  0
   -5.4955   -2.8631    1.1253 H   0  0  0  0  0  0  0  0  0  0  0  0
   -5.1011    1.5669    1.0601 H   0  0  0  0  0  0  0  0  0  0  0  0
   -0.5457    3.3923   -1.8974 H   0  0  0  0  0  0  0  0  0  0  0  0
   -2.7345    4.4169   -1.3801 H   0  0  0  0  0  0  0  0  0  0  0  0
   -4.4854    3.2165   -0.1786 H   0  0  0  0  0  0  0  0  0  0  0  0
    2.1025    1.6379    1.6196 H   0  0  0  0  0  0  0  0  0  0  0  0
    2.4582    0.0234    2.3181 H   0  0  0  0  0  0  0  0  0  0  0  0
    4.6294    0.6231    2.0828 H   0  0  0  0  0  0  0  0  0  0  0  0
    4.2574    2.0320    1.0354 H   0  0  0  0  0  0  0  0  0  0  0  0
  1  2  1  0
  2  3  1  0
  3  4  1  0
  4  5  1  0
  5  6  1  0
  6  7  1  0
  7  8  2  0
  7  9  1  0
  9 10  1  0
 10 11  2  0
 11 12  1  0
 12 13  2  0
 13 14  1  0
 14 15  2  0
 15 16  1  0
 16 17  2  0
 16 18  1  0
 18 19  1  0
 19 20  2  0
 20 21  1  0
 21 22  2  0
 22 23  1  0
 23 24  2  0
  5 25  1  0
 25 26  1  0
 26  2  1  0
 20  9  1  0
 15 10  1  0
 24 19  1  0
  1 27  1  0
  1 28  1  0
  1 29  1  0
  3 30  1  0
  3 31  1  0
  4 32  1  0
  4 33  1  0
  6 34  1  0
  6 35  1  0
 11 36  1  0
 12 37  1  0
 13 38  1  0
 14 39  1  0
 18 40  1  0
 22 41  1  0
 23 42  1  0
 24 43  1  0
 25 44  1  0
 25 45  1  0
 26 46  1  0
 26 47  1  0
M  END
$$$$
