@<TRIPOS>MOLECULE
*****
 59 63 0 0 0
SMALL
GASTEIGER

@<TRIPOS>ATOM
      1 C          -2.9175   -4.0399    0.6407 C.3     1  UNL1        0.0788
      2 O          -3.8067   -3.3301   -0.2000 O.3     1  UNL1       -0.4948
      3 C          -3.6615   -1.9552   -0.3299 C.ar    1  UNL1        0.1238
      4 C          -2.6963   -1.2224    0.3133 C.ar    1  UNL1       -0.0055
      5 C          -2.5615    0.1392    0.1775 C.ar    1  UNL1        0.0674
      6 C          -1.5040    0.8473    0.9099 C.2     1  UNL1        0.2492
      7 O          -1.8156    1.2511    2.0757 O.2     1  UNL1       -0.2699
      8 N          -0.2232    1.0995    0.4283 N.am    1  UNL1       -0.2897
      9 C           0.7169    1.8272    1.2948 C.3     1  UNL1        0.0388
     10 C           0.8880    3.1806    0.6168 C.3     1  UNL1        0.0635
     11 O           0.9062    3.0255   -0.7460 O.3     1  UNL1       -0.3764
     12 C           1.3521    1.7884   -1.1862 C.3     1  UNL1        0.0666
     13 C           0.3137    0.7327   -0.8617 C.3     1  UNL1        0.0537
     14 C           0.8207   -0.6600   -0.9487 C.3     1  UNL1       -0.0068
     15 C           1.9038   -1.0194   -0.0325 C.ar    1  UNL1       -0.0435
     16 C           1.6523   -1.5379    1.2319 C.ar    1  UNL1       -0.0584
     17 C           2.6516   -1.8884    2.1153 C.ar    1  UNL1       -0.0594
     18 C           3.9571   -1.7087    1.7073 C.ar    1  UNL1       -0.0345
     19 C           4.2798   -1.1989    0.4661 C.ar    1  UNL1        0.0864
     20 N           5.6436   -1.0159    0.0514 N.ar    1  UNL1       -0.1503
     21 N           6.3415   -1.7367   -0.8028 N.ar    1  UNL1       -0.1556
     22 C           7.5662   -1.1776   -0.8641 C.ar    1  UNL1        0.0697
     23 C           7.6165   -0.0808   -0.0202 C.ar    1  UNL1        0.0697
     24 N           6.3759   -0.0215    0.5350 N.ar    1  UNL1       -0.1556
     25 C           3.2335   -0.8681   -0.3706 C.ar    1  UNL1       -0.0313
     26 C          -3.4370    0.8264   -0.6481 C.ar    1  UNL1        0.0987
     27 N          -3.3356    2.2346   -0.8191 N.ar    1  UNL1       -0.1496
     28 N          -2.7514    2.8938   -1.7935 N.ar    1  UNL1       -0.1556
     29 C          -2.8748    4.2133   -1.5898 C.ar    1  UNL1        0.0697
     30 C          -3.5792    4.3539   -0.4166 C.ar    1  UNL1        0.0697
     31 N          -3.8363    3.1136    0.0137 N.ar    1  UNL1       -0.1556
     32 C          -4.4195    0.1062   -1.3075 C.ar    1  UNL1       -0.0274
     33 C          -4.5381   -1.2673   -1.1565 C.ar    1  UNL1       -0.0067
     34 C          -5.5924   -2.0447   -1.8632 C.3     1  UNL1       -0.0362
     35 H          -2.7668   -3.5187    1.6256 H       1  UNL1        0.0660
     36 H          -1.9051   -4.1449    0.1936 H       1  UNL1        0.0660
     37 H          -3.3394   -5.0413    0.9231 H       1  UNL1        0.0660
     38 H          -2.0053   -1.7465    0.9617 H       1  UNL1        0.0662
     39 H           0.3525    1.9083    2.3222 H       1  UNL1        0.0487
     40 H           1.7137    1.3427    1.3295 H       1  UNL1        0.0487
     41 H          -0.0059    3.7804    0.8891 H       1  UNL1        0.0575
     42 H           1.7683    3.7235    1.0184 H       1  UNL1        0.0575
     43 H           1.5042    1.8739   -2.2817 H       1  UNL1        0.0578
     44 H           2.3168    1.4955   -0.7440 H       1  UNL1        0.0578
     45 H          -0.5231    0.8172   -1.6072 H       1  UNL1        0.0526
     46 H           1.1468   -0.9357   -1.9895 H       1  UNL1        0.0332
     47 H          -0.0323   -1.3465   -0.7515 H       1  UNL1        0.0332
     48 H           0.6347   -1.6860    1.5694 H       1  UNL1        0.0620
     49 H           2.4438   -2.2942    3.1045 H       1  UNL1        0.0618
     50 H           4.7999   -1.9652    2.3568 H       1  UNL1        0.0639
     51 H           8.4122   -1.5008   -1.4656 H       1  UNL1        0.0864
     52 H           8.4136    0.5948    0.1856 H       1  UNL1        0.0864
     53 H           3.5362   -0.4689   -1.3467 H       1  UNL1        0.0642
     54 H          -2.5217    5.0445   -2.1795 H       1  UNL1        0.0864
     55 H          -3.8804    5.2781    0.0839 H       1  UNL1        0.0864
     56 H          -5.1025    0.6429   -1.9517 H       1  UNL1        0.0643
     57 H          -6.5177   -2.0581   -1.2499 H       1  UNL1        0.0279
     58 H          -5.8716   -1.5644   -2.8288 H       1  UNL1        0.0279
     59 H          -5.2396   -3.0903   -2.0132 H       1  UNL1        0.0279
@<TRIPOS>BOND
     1     1     2    1
     2     2     3    1
     3     3     4   ar
     4     4     5   ar
     5     5     6    1
     6     6     7    2
     7     6     8   am
     8     8     9    1
     9     9    10    1
    10    10    11    1
    11    11    12    1
    12    12    13    1
    13    13    14    1
    14    14    15    1
    15    15    16   ar
    16    16    17   ar
    17    17    18   ar
    18    18    19   ar
    19    19    20    1
    20    20    21   ar
    21    21    22   ar
    22    22    23   ar
    23    23    24   ar
    24    19    25   ar
    25     5    26   ar
    26    26    27    1
    27    27    28   ar
    28    28    29   ar
    29    29    30   ar
    30    30    31   ar
    31    26    32   ar
    32    32    33   ar
    33    33    34    1
    34    33     3   ar
    35    13     8    1
    36    25    15   ar
    37    31    27   ar
    38    24    20   ar
    39     1    35    1
    40     1    36    1
    41     1    37    1
    42     4    38    1
    43     9    39    1
    44     9    40    1
    45    10    41    1
    46    10    42    1
    47    12    43    1
    48    12    44    1
    49    13    45    1
    50    14    46    1
    51    14    47    1
    52    16    48    1
    53    17    49    1
    54    18    50    1
    55    22    51    1
    56    23    52    1
    57    25    53    1
    58    29    54    1
    59    30    55    1
    60    32    56    1
    61    34    57    1
    62    34    58    1
    63    34    59    1
