
     RDKit          3D

 59 63  0  0  0  0  0  0  0  0999 V2000
   -2.9175   -4.0399    0.6407 C   0  0  0  0  0  0  0  0  0  0  0  0
   -3.8067   -3.3301   -0.2000 O   0  0  0  0  0  0  0  0  0  0  0  0
   -3.6615   -1.9552   -0.3299 C   0  0  0  0  0  0  0  0  0  0  0  0
   -2.6963   -1.2224    0.3133 C   0  0  0  0  0  0  0  0  0  0  0  0
   -2.5615    0.1392    0.1775 C   0  0  0  0  0  0  0  0  0  0  0  0
   -1.5040    0.8473    0.9099 C   0  0  0  0  0  0  0  0  0  0  0  0
   -1.8156    1.2511    2.0757 O   0  0  0  0  0  0  0  0  0  0  0  0
   -0.2232    1.0995    0.4283 N   0  0  0  0  0  0  0  0  0  0  0  0
    0.7169    1.8272    1.2948 C   0  0  0  0  0  0  0  0  0  0  0  0
    0.8880    3.1806    0.6168 C   0  0  0  0  0  0  0  0  0  0  0  0
    0.9062    3.0255   -0.7460 O   0  0  0  0  0  0  0  0  0  0  0  0
    1.3521    1.7884   -1.1862 C   0  0  0  0  0  0  0  0  0  0  0  0
    0.3137    0.7327   -0.8617 C   0  0  1  0  0  0  0  0  0  0  0  0
    0.8207   -0.6600   -0.9487 C   0  0  0  0  0  0  0  0  0  0  0  0
    1.9038   -1.0194   -0.0325 C   0  0  0  0  0  0  0  0  0  0  0  0
    1.6523   -1.5379    1.2319 C   0  0  0  0  0  0  0  0  0  0  0  0
    2.6516   -1.8884    2.1153 C   0  0  0  0  0  0  0  0  0  0  0  0
    3.9571   -1.7087    1.7073 C   0  0  0  0  0  0  0  0  0  0  0  0
    4.2798   -1.1989    0.4661 C   0  0  0  0  0  0  0  0  0  0  0  0
    5.6436   -1.0159    0.0514 N   0  0  0  0  0  0  0  0  0  0  0  0
    6.3415   -1.7367   -0.8028 N   0  0  0  0  0  0  0  0  0  0  0  0
    7.5662   -1.1776   -0.8641 C   0  0  0  0  0  0  0  0  0  0  0  0
    7.6165   -0.0808   -0.0202 C   0  0  0  0  0  0  0  0  0  0  0  0
    6.3759   -0.0215    0.5350 N   0  0  0  0  0  0  0  0  0  0  0  0
    3.2335   -0.8681   -0.3706 C   0  0  0  0  0  0  0  0  0  0  0  0
   -3.4370    0.8264   -0.6481 C   0  0  0  0  0  0  0  0  0  0  0  0
   -3.3356    2.2346   -0.8191 N   0  0  0  0  0  0  0  0  0  0  0  0
   -2.7514    2.8938   -1.7935 N   0  0  0  0  0  0  0  0  0  0  0  0
   -2.8748    4.2133   -1.5898 C   0  0  0  0  0  0  0  0  0  0  0  0
   -3.5792    4.3539   -0.4166 C   0  0  0  0  0  0  0  0  0  0  0  0
   -3.8363    3.1136    0.0137 N   0  0  0  0  0  0  0  0  0  0  0  0
   -4.4195    0.1062   -1.3075 C   0  0  0  0  0  0  0  0  0  0  0  0
   -4.5381   -1.2673   -1.1565 C   0  0  0  0  0  0  0  0  0  0  0  0
   -5.5924   -2.0447   -1.8632 C   0  0  0  0  0  0  0  0  0  0  0  0
   -2.7668   -3.5187    1.6256 H   0  0  0  0  0  0  0  0  0  0  0  0
   -1.9051   -4.1449    0.1936 H   0  0  0  0  0  0  0  0  0  0  0  0
   -3.3394   -5.0413    0.9231 H   0  0  0  0  0  0  0  0  0  0  0  0
   -2.0053   -1.7465    0.9617 H   0  0  0  0  0  0  0  0  0  0  0  0
    0.3525    1.9083    2.3222 H   0  0  0  0  0  0  0  0  0  0  0  0
    1.7137    1.3427    1.3295 H   0  0  0  0  0  0  0  0  0  0  0  0
   -0.0059    3.7804    0.8891 H   0  0  0  0  0  0  0  0  0  0  0  0
    1.7683    3.7235    1.0184 H   0  0  0  0  0  0  0  0  0  0  0  0
    1.5042    1.8739   -2.2817 H   0  0  0  0  0  0  0  0  0  0  0  0
    2.3168    1.4955   -0.7440 H   0  0  0  0  0  0  0  0  0  0  0  0
   -0.5231    0.8172   -1.6072 H   0  0  0  0  0  0  0  0  0  0  0  0
    1.1468   -0.9357   -1.9895 H   0  0  0  0  0  0  0  0  0  0  0  0
   -0.0323   -1.3465   -0.7515 H   0  0  0  0  0  0  0  0  0  0  0  0
    0.6347   -1.6860    1.5694 H   0  0  0  0  0  0  0  0  0  0  0  0
    2.4438   -2.2942    3.1045 H   0  0  0  0  0  0  0  0  0  0  0  0
    4.7999   -1.9652    2.3568 H   0  0  0  0  0  0  0  0  0  0  0  0
    8.4122   -1.5008   -1.4656 H   0  0  0  0  0  0  0  0  0  0  0  0
    8.4136    0.5948    0.1856 H   0  0  0  0  0  0  0  0  0  0  0  0
    3.5362   -0.4689   -1.3467 H   0  0  0  0  0  0  0  0  0  0  0  0
   -2.5217    5.0445   -2.1795 H   0  0  0  0  0  0  0  0  0  0  0  0
   -3.8804    5.2781    0.0839 H   0  0  0  0  0  0  0  0  0  0  0  0
   -5.1025    0.6429   -1.9517 H   0  0  0  0  0  0  0  0  0  0  0  0
   -6.5177   -2.0581   -1.2499 H   0  0  0  0  0  0  0  0  0  0  0  0
   -5.8716   -1.5644   -2.8288 H   0  0  0  0  0  0  0  0  0  0  0  0
   -5.2396   -3.0903   -2.0132 H   0  0  0  0  0  0  0  0  0  0  0  0
  1  2  1  0
  2  3  1  0
  3  4  2  0
  4  5  1  0
  5  6  1  0
  6  7  2  0
  6  8  1  0
  8  9  1  0
  9 10  1  0
 10 11  1  0
 11 12  1  0
 12 13  1  0
 13 14  1  0
 14 15  1  0
 15 16  2  0
 16 17  1  0
 17 18  2  0
 18 19  1  0
 19 20  1  0
 20 21  1  0
 21 22  2  0
 22 23  1  0
 23 24  2  0
 19 25  2  0
  5 26  2  0
 26 27  1  0
 27 28  1  0
 28 29  2  0
 29 30  1  0
 30 31  2  0
 26 32  1  0
 32 33  2  0
 33 34  1  0
 33  3  1  0
 13  8  1  0
 25 15  1  0
 31 27  1  0
 24 20  1  0
  1 35  1  0
  1 36  1  0
  1 37  1  0
  4 38  1  0
  9 39  1  0
  9 40  1  0
 10 41  1  0
 10 42  1  0
 12 43  1  0
 12 44  1  0
 13 45  1  6
 14 46  1  0
 14 47  1  0
 16 48  1  0
 17 49  1  0
 18 50  1  0
 22 51  1  0
 23 52  1  0
 25 53  1  0
 29 54  1  0
 30 55  1  0
 32 56  1  0
 34 57  1  0
 34 58  1  0
 34 59  1  0
M  END
$$$$
