@<TRIPOS>MOLECULE
*****
 45 48 0 0 0
SMALL
GASTEIGER

@<TRIPOS>ATOM
      1 N          -3.7203   -1.5714   -1.2974 N.1     1  UNL1       -0.1946
      2 C          -3.8224   -0.5658   -0.7913 C.1     1  UNL1        0.0851
      3 C          -3.9389    0.7120   -0.1722 C.3     1  UNL1        0.1132
      4 C          -3.6142    1.9125   -1.0235 C.3     1  UNL1       -0.0196
      5 C          -3.6968    3.0083    0.0573 C.3     1  UNL1       -0.0345
      6 C          -3.4910    2.2724    1.3924 C.3     1  UNL1        0.0163
      7 N          -3.0392    0.9420    0.9395 N.am    1  UNL1       -0.2817
      8 C          -2.0172    0.2158    1.5342 C.2     1  UNL1        0.2483
      9 O          -1.4262    0.6805    2.5658 O.2     1  UNL1       -0.2699
     10 C          -1.5153   -1.0733    1.0932 C.ar    1  UNL1        0.0493
     11 C          -2.0792   -2.2311    1.5232 C.ar    1  UNL1       -0.0489
     12 C          -1.5770   -3.4314    1.0779 C.ar    1  UNL1       -0.0607
     13 C          -0.5204   -3.4464    0.2107 C.ar    1  UNL1       -0.0563
     14 C           0.0836   -2.2821   -0.2516 C.ar    1  UNL1       -0.0173
     15 C          -0.4378   -1.1051    0.2098 C.ar    1  UNL1        0.0537
     16 C           0.3722   -0.0276   -0.3575 C.2     1  UNL1        0.2482
     17 O           0.1781    1.1993   -0.1536 O.2     1  UNL1       -0.2699
     18 N           1.3909   -0.6061   -1.1617 N.am    1  UNL1       -0.2888
     19 C           2.4443    0.1803   -1.8094 C.3     1  UNL1        0.0404
     20 C           3.6220    0.2906   -0.9126 C.ar    1  UNL1       -0.0301
     21 C           4.6889   -0.5596   -0.9285 C.ar    1  UNL1       -0.0571
     22 C           5.7419   -0.4210   -0.0636 C.ar    1  UNL1       -0.0615
     23 C           5.7275    0.6219    0.8652 C.ar    1  UNL1       -0.0617
     24 C           4.6571    1.4932    0.8969 C.ar    1  UNL1       -0.0615
     25 C           3.6156    1.3282    0.0159 C.ar    1  UNL1       -0.0571
     26 C           1.1908   -2.0149   -1.1867 C.3     1  UNL1        0.0411
     27 H          -4.9655    0.9153    0.2347 H       1  UNL1        0.0659
     28 H          -2.5878    1.9303   -1.4076 H       1  UNL1        0.0294
     29 H          -4.3890    2.0831   -1.7953 H       1  UNL1        0.0294
     30 H          -2.9463    3.7879   -0.0852 H       1  UNL1        0.0281
     31 H          -4.7425    3.3877    0.0055 H       1  UNL1        0.0281
     32 H          -4.4642    2.1065    1.8754 H       1  UNL1        0.0465
     33 H          -2.7412    2.7605    2.0180 H       1  UNL1        0.0465
     34 H          -2.9419   -2.2272    2.2285 H       1  UNL1        0.0625
     35 H          -2.0093   -4.3709    1.4093 H       1  UNL1        0.0618
     36 H          -0.0884   -4.3791   -0.1735 H       1  UNL1        0.0621
     37 H           2.7898   -0.2752   -2.7552 H       1  UNL1        0.0514
     38 H           2.0576    1.1827   -2.0329 H       1  UNL1        0.0514
     39 H           4.6476   -1.3599   -1.6787 H       1  UNL1        0.0621
     40 H           6.5490   -1.1297   -0.1383 H       1  UNL1        0.0618
     41 H           6.5514    0.7364    1.5492 H       1  UNL1        0.0618
     42 H           4.6152    2.3076    1.6056 H       1  UNL1        0.0618
     43 H           2.7948    2.0102    0.0502 H       1  UNL1        0.0621
     44 H           0.9761   -2.4107   -2.2070 H       1  UNL1        0.0514
     45 H           2.0773   -2.5767   -0.7615 H       1  UNL1        0.0514
@<TRIPOS>BOND
     1     1     2    3
     2     2     3    1
     3     3     4    1
     4     4     5    1
     5     5     6    1
     6     6     7    1
     7     7     8   am
     8     8     9    2
     9     8    10    1
    10    10    11   ar
    11    11    12   ar
    12    12    13   ar
    13    13    14   ar
    14    14    15   ar
    15    15    16    1
    16    16    17    2
    17    16    18   am
    18    18    19    1
    19    19    20    1
    20    20    21   ar
    21    21    22   ar
    22    22    23   ar
    23    23    24   ar
    24    24    25   ar
    25    18    26    1
    26     7     3    1
    27    15    10   ar
    28    25    20   ar
    29    26    14    1
    30     3    27    1
    31     4    28    1
    32     4    29    1
    33     5    30    1
    34     5    31    1
    35     6    32    1
    36     6    33    1
    37    11    34    1
    38    12    35    1
    39    13    36    1
    40    19    37    1
    41    19    38    1
    42    21    39    1
    43    22    40    1
    44    23    41    1
    45    24    42    1
    46    25    43    1
    47    26    44    1
    48    26    45    1
