
     RDKit          3D

 49 52  0  0  0  0  0  0  0  0999 V2000
   -2.0758   -3.3254    1.2131 F   0  0  0  0  0  0  0  0  0  0  0  0
   -1.1248   -2.3681    1.1055 C   0  0  0  0  0  0  0  0  0  0  0  0
   -0.1419   -2.3797    2.0715 C   0  0  0  0  0  0  0  0  0  0  0  0
    0.8484   -1.4094    1.9880 C   0  0  0  0  0  0  0  0  0  0  0  0
    0.8694   -0.4504    0.9762 C   0  0  0  0  0  0  0  0  0  0  0  0
    1.9867    0.5278    1.0075 C   0  0  0  0  0  0  0  0  0  0  0  0
    3.1128   -0.0472    0.2066 C   0  0  0  0  0  0  0  0  0  0  0  0
    3.0310   -1.2429   -0.3949 N   0  0  0  0  0  0  0  0  0  0  0  0
    4.0392   -1.7221   -1.0930 N   0  0  0  0  0  0  0  0  0  0  0  0
    5.2221   -1.1080   -1.2849 C   0  0  0  0  0  0  0  0  0  0  0  0
    6.1173   -1.6638   -1.9742 O   0  0  0  0  0  0  0  0  0  0  0  0
    5.3514    0.1253   -0.6843 C   0  0  0  0  0  0  0  0  0  0  0  0
    6.5425    0.7992   -0.8479 C   0  0  0  0  0  0  0  0  0  0  0  0
    6.6863    2.0311   -0.2544 C   0  0  0  0  0  0  0  0  0  0  0  0
    5.6668    2.6013    0.4972 C   0  0  0  0  0  0  0  0  0  0  0  0
    4.4956    1.8710    0.6220 C   0  0  0  0  0  0  0  0  0  0  0  0
    4.2964    0.6335    0.0498 C   0  0  0  0  0  0  0  0  0  0  0  0
   -0.1155   -0.4529    0.0235 C   0  0  0  0  0  0  0  0  0  0  0  0
   -1.1005   -1.4110    0.0989 C   0  0  0  0  0  0  0  0  0  0  0  0
   -2.1791   -1.4730   -0.8807 C   0  0  0  0  0  0  0  0  0  0  0  0
   -2.0113   -2.1760   -1.9125 O   0  0  0  0  0  0  0  0  0  0  0  0
   -3.3412   -0.7109   -0.5585 N   0  0  0  0  0  0  0  0  0  0  0  0
   -3.4115    0.0715    0.6845 C   0  0  0  0  0  0  0  0  0  0  0  0
   -3.7070    1.4994    0.2960 C   0  0  0  0  0  0  0  0  0  0  0  0
   -5.1732    1.7578    0.0941 C   0  0  0  0  0  0  0  0  0  0  0  0
   -5.7037    1.1261   -1.0825 N   0  0  0  0  0  0  0  0  0  0  0  0
   -5.7234   -0.3014   -1.0198 C   0  0  0  0  0  0  0  0  0  0  0  0
   -4.3851   -0.8037   -1.5611 C   0  0  0  0  0  0  0  0  0  0  0  0
   -0.1244   -3.1082    2.8726 H   0  0  0  0  0  0  0  0  0  0  0  0
    1.6280   -1.4271    2.7634 H   0  0  0  0  0  0  0  0  0  0  0  0
    2.3440    0.7380    2.0202 H   0  0  0  0  0  0  0  0  0  0  0  0
    1.6199    1.4614    0.5089 H   0  0  0  0  0  0  0  0  0  0  0  0
    3.8952   -2.6568   -1.5281 H   0  0  0  0  0  0  0  0  0  0  0  0
    7.3420    0.3629   -1.4315 H   0  0  0  0  0  0  0  0  0  0  0  0
    7.6328    2.5316   -0.4031 H   0  0  0  0  0  0  0  0  0  0  0  0
    5.8219    3.5709    0.9459 H   0  0  0  0  0  0  0  0  0  0  0  0
    3.7128    2.3222    1.2062 H   0  0  0  0  0  0  0  0  0  0  0  0
   -0.0999    0.2902   -0.7611 H   0  0  0  0  0  0  0  0  0  0  0  0
   -2.4722    0.0337    1.2344 H   0  0  0  0  0  0  0  0  0  0  0  0
   -4.1893   -0.3717    1.3258 H   0  0  0  0  0  0  0  0  0  0  0  0
   -3.3660    2.1503    1.1217 H   0  0  0  0  0  0  0  0  0  0  0  0
   -3.1203    1.7498   -0.5984 H   0  0  0  0  0  0  0  0  0  0  0  0
   -5.2934    2.8546   -0.0491 H   0  0  0  0  0  0  0  0  0  0  0  0
   -5.7270    1.5070    1.0155 H   0  0  0  0  0  0  0  0  0  0  0  0
   -6.6884    1.4467   -1.1985 H   0  0  0  0  0  0  0  0  0  0  0  0
   -6.4993   -0.7605   -1.6478 H   0  0  0  0  0  0  0  0  0  0  0  0
   -5.8469   -0.6437    0.0457 H   0  0  0  0  0  0  0  0  0  0  0  0
   -4.1747   -0.1863   -2.4659 H   0  0  0  0  0  0  0  0  0  0  0  0
   -4.4669   -1.8628   -1.8826 H   0  0  0  0  0  0  0  0  0  0  0  0
  1  2  1  0
  2  3  2  0
  3  4  1  0
  4  5  2  0
  5  6  1  0
  6  7  1  0
  7  8  2  0
  8  9  1  0
  9 10  1  0
 10 11  2  0
 10 12  1  0
 12 13  2  0
 13 14  1  0
 14 15  2  0
 15 16  1  0
 16 17  2  0
  5 18  1  0
 18 19  2  0
 19 20  1  0
 20 21  2  0
 20 22  1  0
 22 23  1  0
 23 24  1  0
 24 25  1  0
 25 26  1  0
 26 27  1  0
 27 28  1  0
 19  2  1  0
 28 22  1  0
 17  7  1  0
 17 12  1  0
  3 29  1  0
  4 30  1  0
  6 31  1  0
  6 32  1  0
  9 33  1  0
 13 34  1  0
 14 35  1  0
 15 36  1  0
 16 37  1  0
 18 38  1  0
 23 39  1  0
 23 40  1  0
 24 41  1  0
 24 42  1  0
 25 43  1  0
 25 44  1  0
 26 45  1  0
 27 46  1  0
 27 47  1  0
 28 48  1  0
 28 49  1  0
M  END
$$$$
