@<TRIPOS>MOLECULE
*****
 49 52 0 0 0
SMALL
GASTEIGER

@<TRIPOS>ATOM
      1 F          -2.0758   -3.3254    1.2131 F       1  UNL1       -0.2047
      2 C          -1.1248   -2.3681    1.1055 C.ar    1  UNL1        0.1355
      3 C          -0.1419   -2.3797    2.0715 C.ar    1  UNL1       -0.0254
      4 C           0.8484   -1.4094    1.9880 C.ar    1  UNL1       -0.0555
      5 C           0.8694   -0.4504    0.9762 C.ar    1  UNL1       -0.0406
      6 C           1.9867    0.5278    1.0075 C.3     1  UNL1        0.0171
      7 C           3.1128   -0.0472    0.2066 C.ar    1  UNL1        0.0736
      8 N           3.0310   -1.2429   -0.3949 N.ar    1  UNL1       -0.1750
      9 N           4.0392   -1.7221   -1.0930 N.ar    1  UNL1       -0.2425
     10 C           5.2221   -1.1080   -1.2849 C.ar    1  UNL1        0.2725
     11 O           6.1173   -1.6638   -1.9742 O.2     1  UNL1       -0.2658
     12 C           5.3514    0.1253   -0.6843 C.ar    1  UNL1        0.0496
     13 C           6.5425    0.7992   -0.8479 C.ar    1  UNL1       -0.0487
     14 C           6.6863    2.0311   -0.2544 C.ar    1  UNL1       -0.0610
     15 C           5.6668    2.6013    0.4972 C.ar    1  UNL1       -0.0611
     16 C           4.4956    1.8710    0.6220 C.ar    1  UNL1       -0.0521
     17 C           4.2964    0.6335    0.0498 C.ar    1  UNL1        0.0106
     18 C          -0.1155   -0.4529    0.0235 C.ar    1  UNL1       -0.0433
     19 C          -1.1005   -1.4110    0.0989 C.ar    1  UNL1        0.0723
     20 C          -2.1791   -1.4730   -0.8807 C.2     1  UNL1        0.2494
     21 O          -2.0113   -2.1760   -1.9125 O.2     1  UNL1       -0.2699
     22 N          -3.3412   -0.7109   -0.5585 N.am    1  UNL1       -0.2962
     23 C          -3.4115    0.0715    0.6845 C.3     1  UNL1        0.0162
     24 C          -3.7070    1.4994    0.2960 C.3     1  UNL1       -0.0245
     25 C          -5.1732    1.7578    0.0941 C.3     1  UNL1       -0.0026
     26 N          -5.7037    1.1261   -1.0825 N.3     1  UNL1       -0.3144
     27 C          -5.7234   -0.3014   -1.0198 C.3     1  UNL1        0.0117
     28 C          -4.3851   -0.8037   -1.5611 C.3     1  UNL1        0.0275
     29 H          -0.1244   -3.1082    2.8726 H       1  UNL1        0.0646
     30 H           1.6280   -1.4271    2.7634 H       1  UNL1        0.0621
     31 H           2.3440    0.7380    2.0202 H       1  UNL1        0.0377
     32 H           1.6199    1.4614    0.5089 H       1  UNL1        0.0377
     33 H           3.8952   -2.6568   -1.5281 H       1  UNL1        0.1921
     34 H           7.3420    0.3629   -1.4315 H       1  UNL1        0.0625
     35 H           7.6328    2.5316   -0.4031 H       1  UNL1        0.0618
     36 H           5.8219    3.5709    0.9459 H       1  UNL1        0.0618
     37 H           3.7128    2.3222    1.2062 H       1  UNL1        0.0624
     38 H          -0.0999    0.2902   -0.7611 H       1  UNL1        0.0629
     39 H          -2.4722    0.0337    1.2344 H       1  UNL1        0.0465
     40 H          -4.1893   -0.3717    1.3258 H       1  UNL1        0.0465
     41 H          -3.3660    2.1503    1.1217 H       1  UNL1        0.0293
     42 H          -3.1203    1.7498   -0.5984 H       1  UNL1        0.0293
     43 H          -5.2934    2.8546   -0.0491 H       1  UNL1        0.0424
     44 H          -5.7270    1.5070    1.0155 H       1  UNL1        0.0424
     45 H          -6.6884    1.4467   -1.1985 H       1  UNL1        0.1220
     46 H          -6.4993   -0.7605   -1.6478 H       1  UNL1        0.0439
     47 H          -5.8469   -0.6437    0.0457 H       1  UNL1        0.0439
     48 H          -4.1747   -0.1863   -2.4659 H       1  UNL1        0.0477
     49 H          -4.4669   -1.8628   -1.8826 H       1  UNL1        0.0477
@<TRIPOS>BOND
     1     1     2    1
     2     2     3   ar
     3     3     4   ar
     4     4     5   ar
     5     5     6    1
     6     6     7    1
     7     7     8   ar
     8     8     9   ar
     9     9    10   ar
    10    10    11    2
    11    10    12   ar
    12    12    13   ar
    13    13    14   ar
    14    14    15   ar
    15    15    16   ar
    16    16    17   ar
    17     5    18   ar
    18    18    19   ar
    19    19    20    1
    20    20    21    2
    21    20    22   am
    22    22    23    1
    23    23    24    1
    24    24    25    1
    25    25    26    1
    26    26    27    1
    27    27    28    1
    28    19     2   ar
    29    28    22    1
    30    17     7   ar
    31    17    12   ar
    32     3    29    1
    33     4    30    1
    34     6    31    1
    35     6    32    1
    36     9    33    1
    37    13    34    1
    38    14    35    1
    39    15    36    1
    40    16    37    1
    41    18    38    1
    42    23    39    1
    43    23    40    1
    44    24    41    1
    45    24    42    1
    46    25    43    1
    47    25    44    1
    48    26    45    1
    49    27    46    1
    50    27    47    1
    51    28    48    1
    52    28    49    1
