@<TRIPOS>MOLECULE
*****
 44 46 0 0 0
SMALL
GASTEIGER

@<TRIPOS>ATOM
      1 C           8.1539    0.4723    1.7317 C.3     1  UNL1        0.0125
      2 C           6.7016    0.0648    1.5717 C.2     1  UNL1        0.2141
      3 O           6.2107   -0.8213    2.2961 O.2     1  UNL1       -0.2758
      4 N           5.9506    0.7302    0.5774 N.am    1  UNL1       -0.2857
      5 C           4.5943    0.4682    0.3064 C.ar    1  UNL1        0.0334
      6 C           3.7729   -0.4155    0.9324 C.ar    1  UNL1       -0.0398
      7 C           2.4434   -0.6046    0.5849 C.ar    1  UNL1       -0.0479
      8 C           1.8874    0.1123   -0.4330 C.ar    1  UNL1        0.0371
      9 C           0.4931   -0.0723   -0.8097 C.2     1  UNL1        0.2483
     10 O           0.0372    0.6244   -1.7808 O.2     1  UNL1       -0.2699
     11 N          -0.3718   -0.9860   -0.1478 N.am    1  UNL1       -0.2799
     12 C          -1.7211   -1.0880   -0.5976 C.ar    1  UNL1        0.0551
     13 C          -2.6527   -0.2560   -0.0148 C.ar    1  UNL1       -0.0310
     14 C          -3.9728   -0.3028   -0.4030 C.ar    1  UNL1       -0.0159
     15 C          -4.9875    0.5721    0.1996 C.ar    1  UNL1       -0.0150
     16 C          -4.8805    0.9691    1.5159 C.ar    1  UNL1       -0.0359
     17 C          -5.8042    1.7874    2.1227 C.ar    1  UNL1        0.0281
     18 N          -6.8595    2.2190    1.3973 N.ar    1  UNL1       -0.2632
     19 C          -6.9970    1.8524    0.1106 C.ar    1  UNL1        0.0281
     20 C          -6.0777    1.0241   -0.5327 C.ar    1  UNL1       -0.0359
     21 C          -4.3039   -1.2102   -1.3873 C.ar    1  UNL1       -0.0522
     22 C          -3.3610   -2.0503   -1.9750 C.ar    1  UNL1       -0.0387
     23 C          -2.0469   -1.9914   -1.5765 C.ar    1  UNL1        0.0461
     24 N          -1.0664   -2.8403   -2.1633 N.pl3   1  UNL1       -0.3565
     25 C           2.6778    1.0241   -1.1029 C.ar    1  UNL1       -0.0479
     26 C           3.9922    1.1918   -0.7380 C.ar    1  UNL1       -0.0398
     27 H           8.5896   -0.0748    2.5836 H       1  UNL1        0.0323
     28 H           8.1841    1.5785    1.8833 H       1  UNL1        0.0323
     29 H           8.6874    0.2559    0.7821 H       1  UNL1        0.0323
     30 H           6.4617    1.4892   -0.0061 H       1  UNL1        0.1548
     31 H           4.1481   -1.0003    1.7320 H       1  UNL1        0.0636
     32 H           1.8799   -1.3340    1.1495 H       1  UNL1        0.0626
     33 H          -0.0467   -1.5648    0.6366 H       1  UNL1        0.1552
     34 H          -2.3796    0.4568    0.7619 H       1  UNL1        0.0643
     35 H          -4.0364    0.6208    2.0874 H       1  UNL1        0.0639
     36 H          -5.7044    2.0925    3.1654 H       1  UNL1        0.0830
     37 H          -7.8393    2.2020   -0.4536 H       1  UNL1        0.0830
     38 H          -6.1847    0.7277   -1.5654 H       1  UNL1        0.0639
     39 H          -5.3502   -1.2535   -1.7010 H       1  UNL1        0.0624
     40 H          -3.6518   -2.7559   -2.7490 H       1  UNL1        0.0637
     41 H          -0.3191   -3.3001   -1.5923 H       1  UNL1        0.1424
     42 H          -1.0406   -3.0482   -3.1880 H       1  UNL1        0.1424
     43 H           2.2317    1.5881   -1.9083 H       1  UNL1        0.0626
     44 H           4.5583    1.9226   -1.3023 H       1  UNL1        0.0636
@<TRIPOS>BOND
     1     1     2    1
     2     2     3    2
     3     2     4   am
     4     4     5    1
     5     5     6   ar
     6     6     7   ar
     7     7     8   ar
     8     8     9    1
     9     9    10    2
    10     9    11   am
    11    11    12    1
    12    12    13   ar
    13    13    14   ar
    14    14    15    1
    15    15    16   ar
    16    16    17   ar
    17    17    18   ar
    18    18    19   ar
    19    19    20   ar
    20    14    21   ar
    21    21    22   ar
    22    22    23   ar
    23    23    24    1
    24     8    25   ar
    25    25    26   ar
    26    26     5   ar
    27    23    12   ar
    28    20    15   ar
    29     1    27    1
    30     1    28    1
    31     1    29    1
    32     4    30    1
    33     6    31    1
    34     7    32    1
    35    11    33    1
    36    13    34    1
    37    16    35    1
    38    17    36    1
    39    19    37    1
    40    20    38    1
    41    21    39    1
    42    22    40    1
    43    24    41    1
    44    24    42    1
    45    25    43    1
    46    26    44    1
