
     RDKit          3D

 44 46  0  0  0  0  0  0  0  0999 V2000
    8.1539    0.4723    1.7317 C   0  0  0  0  0  0  0  0  0  0  0  0
    6.7016    0.0648    1.5717 C   0  0  0  0  0  0  0  0  0  0  0  0
    6.2107   -0.8213    2.2961 O   0  0  0  0  0  0  0  0  0  0  0  0
    5.9506    0.7302    0.5774 N   0  0  0  0  0  0  0  0  0  0  0  0
    4.5943    0.4682    0.3064 C   0  0  0  0  0  0  0  0  0  0  0  0
    3.7729   -0.4155    0.9324 C   0  0  0  0  0  0  0  0  0  0  0  0
    2.4434   -0.6046    0.5849 C   0  0  0  0  0  0  0  0  0  0  0  0
    1.8874    0.1123   -0.4330 C   0  0  0  0  0  0  0  0  0  0  0  0
    0.4931   -0.0723   -0.8097 C   0  0  0  0  0  0  0  0  0  0  0  0
    0.0372    0.6244   -1.7808 O   0  0  0  0  0  0  0  0  0  0  0  0
   -0.3718   -0.9860   -0.1478 N   0  0  0  0  0  0  0  0  0  0  0  0
   -1.7211   -1.0880   -0.5976 C   0  0  0  0  0  0  0  0  0  0  0  0
   -2.6527   -0.2560   -0.0148 C   0  0  0  0  0  0  0  0  0  0  0  0
   -3.9728   -0.3028   -0.4030 C   0  0  0  0  0  0  0  0  0  0  0  0
   -4.9875    0.5721    0.1996 C   0  0  0  0  0  0  0  0  0  0  0  0
   -4.8805    0.9691    1.5159 C   0  0  0  0  0  0  0  0  0  0  0  0
   -5.8042    1.7874    2.1227 C   0  0  0  0  0  0  0  0  0  0  0  0
   -6.8595    2.2190    1.3973 N   0  0  0  0  0  0  0  0  0  0  0  0
   -6.9970    1.8524    0.1106 C   0  0  0  0  0  0  0  0  0  0  0  0
   -6.0777    1.0241   -0.5327 C   0  0  0  0  0  0  0  0  0  0  0  0
   -4.3039   -1.2102   -1.3873 C   0  0  0  0  0  0  0  0  0  0  0  0
   -3.3610   -2.0503   -1.9750 C   0  0  0  0  0  0  0  0  0  0  0  0
   -2.0469   -1.9914   -1.5765 C   0  0  0  0  0  0  0  0  0  0  0  0
   -1.0664   -2.8403   -2.1633 N   0  0  0  0  0  0  0  0  0  0  0  0
    2.6778    1.0241   -1.1029 C   0  0  0  0  0  0  0  0  0  0  0  0
    3.9922    1.1918   -0.7380 C   0  0  0  0  0  0  0  0  0  0  0  0
    8.5896   -0.0748    2.5836 H   0  0  0  0  0  0  0  0  0  0  0  0
    8.1841    1.5785    1.8833 H   0  0  0  0  0  0  0  0  0  0  0  0
    8.6874    0.2559    0.7821 H   0  0  0  0  0  0  0  0  0  0  0  0
    6.4617    1.4892   -0.0061 H   0  0  0  0  0  0  0  0  0  0  0  0
    4.1481   -1.0003    1.7320 H   0  0  0  0  0  0  0  0  0  0  0  0
    1.8799   -1.3340    1.1495 H   0  0  0  0  0  0  0  0  0  0  0  0
   -0.0467   -1.5648    0.6366 H   0  0  0  0  0  0  0  0  0  0  0  0
   -2.3796    0.4568    0.7619 H   0  0  0  0  0  0  0  0  0  0  0  0
   -4.0364    0.6208    2.0874 H   0  0  0  0  0  0  0  0  0  0  0  0
   -5.7044    2.0925    3.1654 H   0  0  0  0  0  0  0  0  0  0  0  0
   -7.8393    2.2020   -0.4536 H   0  0  0  0  0  0  0  0  0  0  0  0
   -6.1847    0.7277   -1.5654 H   0  0  0  0  0  0  0  0  0  0  0  0
   -5.3502   -1.2535   -1.7010 H   0  0  0  0  0  0  0  0  0  0  0  0
   -3.6518   -2.7559   -2.7490 H   0  0  0  0  0  0  0  0  0  0  0  0
   -0.3191   -3.3001   -1.5923 H   0  0  0  0  0  0  0  0  0  0  0  0
   -1.0406   -3.0482   -3.1880 H   0  0  0  0  0  0  0  0  0  0  0  0
    2.2317    1.5881   -1.9083 H   0  0  0  0  0  0  0  0  0  0  0  0
    4.5583    1.9226   -1.3023 H   0  0  0  0  0  0  0  0  0  0  0  0
  1  2  1  0
  2  3  2  0
  2  4  1  0
  4  5  1  0
  5  6  2  0
  6  7  1  0
  7  8  2  0
  8  9  1  0
  9 10  2  0
  9 11  1  0
 11 12  1  0
 12 13  2  0
 13 14  1  0
 14 15  1  0
 15 16  2  0
 16 17  1  0
 17 18  2  0
 18 19  1  0
 19 20  2  0
 14 21  2  0
 21 22  1  0
 22 23  2  0
 23 24  1  0
  8 25  1  0
 25 26  2  0
 26  5  1  0
 23 12  1  0
 20 15  1  0
  1 27  1  0
  1 28  1  0
  1 29  1  0
  4 30  1  0
  6 31  1  0
  7 32  1  0
 11 33  1  0
 13 34  1  0
 16 35  1  0
 17 36  1  0
 19 37  1  0
 20 38  1  0
 21 39  1  0
 22 40  1  0
 24 41  1  0
 24 42  1  0
 25 43  1  0
 26 44  1  0
M  END
$$$$
