@<TRIPOS>MOLECULE
*****
 41 44 0 0 0
SMALL
GASTEIGER

@<TRIPOS>ATOM
      1 C           4.6050    0.0152    1.2385 C.3     1  UNL1       -0.0321
      2 C           3.9070   -0.4722   -0.0315 C.3     1  UNL1        0.0868
      3 C           4.9246   -0.3518   -1.1505 C.3     1  UNL1       -0.0321
      4 O           3.5127   -1.7946    0.1668 O.3     1  UNL1       -0.3845
      5 C           2.7287    0.3919   -0.2678 C.ar    1  UNL1        0.0021
      6 C           2.8995    1.5229   -1.0372 C.ar    1  UNL1        0.0335
      7 N           1.8313    2.3056   -1.2510 N.ar    1  UNL1       -0.2622
      8 C           0.6046    2.0537   -0.7606 C.ar    1  UNL1        0.0382
      9 C           0.3923    0.9350    0.0121 C.ar    1  UNL1        0.0359
     10 C          -0.9458    0.6909    0.5275 C.ar    1  UNL1        0.1436
     11 N          -1.3685    1.1555    1.7168 N.ar    1  UNL1       -0.2275
     12 C          -2.6554    0.7451    1.8796 C.ar    1  UNL1        0.0898
     13 C          -3.5781    0.9296    2.9035 C.ar    1  UNL1       -0.0315
     14 C          -4.8278    0.3657    2.7484 C.ar    1  UNL1       -0.0243
     15 C          -5.1914   -0.3595    1.6401 C.ar    1  UNL1        0.1255
     16 F          -6.4254   -0.9047    1.5088 F       1  UNL1       -0.2054
     17 C          -4.2716   -0.5381    0.6293 C.ar    1  UNL1       -0.0008
     18 C          -3.0202    0.0189    0.7703 C.ar    1  UNL1        0.0721
     19 N          -1.9653   -0.0030   -0.0423 N.ar    1  UNL1       -0.3204
     20 C          -1.9071   -0.6520   -1.3145 C.3     1  UNL1        0.0366
     21 C          -2.9520   -0.5395   -2.3335 C.3     1  UNL1       -0.0302
     22 C          -1.6784    0.2897   -2.5054 C.3     1  UNL1       -0.0302
     23 C           1.4761    0.1167    0.2445 C.ar    1  UNL1       -0.0423
     24 H           3.8962    0.4610    1.9546 H       1  UNL1        0.0260
     25 H           5.1112   -0.8868    1.6755 H       1  UNL1        0.0260
     26 H           5.4223    0.7401    0.9939 H       1  UNL1        0.0260
     27 H           5.6876    0.4390   -0.9216 H       1  UNL1        0.0260
     28 H           5.4569   -1.3222   -1.2119 H       1  UNL1        0.0260
     29 H           4.4691   -0.0782   -2.1092 H       1  UNL1        0.0260
     30 H           3.1402   -1.8262    1.0992 H       1  UNL1        0.2106
     31 H           3.8881    1.7704   -1.4609 H       1  UNL1        0.0833
     32 H          -0.2276    2.7360   -0.9736 H       1  UNL1        0.0837
     33 H          -3.2950    1.5046    3.7862 H       1  UNL1        0.0640
     34 H          -5.5490    0.5134    3.5554 H       1  UNL1        0.0647
     35 H          -4.5266   -1.1139   -0.2753 H       1  UNL1        0.0667
     36 H          -1.2788   -1.5684   -1.3307 H       1  UNL1        0.0528
     37 H          -3.8506    0.0712   -2.2497 H       1  UNL1        0.0286
     38 H          -3.0582   -1.3963   -3.0592 H       1  UNL1        0.0286
     39 H          -1.7344    1.3744   -2.3345 H       1  UNL1        0.0286
     40 H          -0.9725   -0.0542   -3.2908 H       1  UNL1        0.0286
     41 H           1.3263   -0.7841    0.8609 H       1  UNL1        0.0629
@<TRIPOS>BOND
     1     1     2    1
     2     2     3    1
     3     2     4    1
     4     2     5    1
     5     5     6   ar
     6     6     7   ar
     7     7     8   ar
     8     8     9   ar
     9     9    10    1
    10    10    11   ar
    11    11    12   ar
    12    12    13   ar
    13    13    14   ar
    14    14    15   ar
    15    15    16    1
    16    15    17   ar
    17    17    18   ar
    18    18    19   ar
    19    19    20    1
    20    20    21    1
    21    21    22    1
    22     9    23   ar
    23    23     5   ar
    24    19    10   ar
    25    22    20    1
    26    18    12   ar
    27     1    24    1
    28     1    25    1
    29     1    26    1
    30     3    27    1
    31     3    28    1
    32     3    29    1
    33     4    30    1
    34     6    31    1
    35     8    32    1
    36    13    33    1
    37    14    34    1
    38    17    35    1
    39    20    36    1
    40    21    37    1
    41    21    38    1
    42    22    39    1
    43    22    40    1
    44    23    41    1
