
     RDKit          3D

 41 44  0  0  0  0  0  0  0  0999 V2000
    4.6050    0.0152    1.2385 C   0  0  0  0  0  0  0  0  0  0  0  0
    3.9070   -0.4722   -0.0315 C   0  0  0  0  0  0  0  0  0  0  0  0
    4.9246   -0.3518   -1.1505 C   0  0  0  0  0  0  0  0  0  0  0  0
    3.5127   -1.7946    0.1668 O   0  0  0  0  0  0  0  0  0  0  0  0
    2.7287    0.3919   -0.2678 C   0  0  0  0  0  0  0  0  0  0  0  0
    2.8995    1.5229   -1.0372 C   0  0  0  0  0  0  0  0  0  0  0  0
    1.8313    2.3056   -1.2510 N   0  0  0  0  0  0  0  0  0  0  0  0
    0.6046    2.0537   -0.7606 C   0  0  0  0  0  0  0  0  0  0  0  0
    0.3923    0.9350    0.0121 C   0  0  0  0  0  0  0  0  0  0  0  0
   -0.9458    0.6909    0.5275 C   0  0  0  0  0  0  0  0  0  0  0  0
   -1.3685    1.1555    1.7168 N   0  0  0  0  0  0  0  0  0  0  0  0
   -2.6554    0.7451    1.8796 C   0  0  0  0  0  0  0  0  0  0  0  0
   -3.5781    0.9296    2.9035 C   0  0  0  0  0  0  0  0  0  0  0  0
   -4.8278    0.3657    2.7484 C   0  0  0  0  0  0  0  0  0  0  0  0
   -5.1914   -0.3595    1.6401 C   0  0  0  0  0  0  0  0  0  0  0  0
   -6.4254   -0.9047    1.5088 F   0  0  0  0  0  0  0  0  0  0  0  0
   -4.2716   -0.5381    0.6293 C   0  0  0  0  0  0  0  0  0  0  0  0
   -3.0202    0.0189    0.7703 C   0  0  0  0  0  0  0  0  0  0  0  0
   -1.9653   -0.0030   -0.0423 N   0  0  0  0  0  0  0  0  0  0  0  0
   -1.9071   -0.6520   -1.3145 C   0  0  0  0  0  0  0  0  0  0  0  0
   -2.9520   -0.5395   -2.3335 C   0  0  0  0  0  0  0  0  0  0  0  0
   -1.6784    0.2897   -2.5054 C   0  0  0  0  0  0  0  0  0  0  0  0
    1.4761    0.1167    0.2445 C   0  0  0  0  0  0  0  0  0  0  0  0
    3.8962    0.4610    1.9546 H   0  0  0  0  0  0  0  0  0  0  0  0
    5.1112   -0.8868    1.6755 H   0  0  0  0  0  0  0  0  0  0  0  0
    5.4223    0.7401    0.9939 H   0  0  0  0  0  0  0  0  0  0  0  0
    5.6876    0.4390   -0.9216 H   0  0  0  0  0  0  0  0  0  0  0  0
    5.4569   -1.3222   -1.2119 H   0  0  0  0  0  0  0  0  0  0  0  0
    4.4691   -0.0782   -2.1092 H   0  0  0  0  0  0  0  0  0  0  0  0
    3.1402   -1.8262    1.0992 H   0  0  0  0  0  0  0  0  0  0  0  0
    3.8881    1.7704   -1.4609 H   0  0  0  0  0  0  0  0  0  0  0  0
   -0.2276    2.7360   -0.9736 H   0  0  0  0  0  0  0  0  0  0  0  0
   -3.2950    1.5046    3.7862 H   0  0  0  0  0  0  0  0  0  0  0  0
   -5.5490    0.5134    3.5554 H   0  0  0  0  0  0  0  0  0  0  0  0
   -4.5266   -1.1139   -0.2753 H   0  0  0  0  0  0  0  0  0  0  0  0
   -1.2788   -1.5684   -1.3307 H   0  0  0  0  0  0  0  0  0  0  0  0
   -3.8506    0.0712   -2.2497 H   0  0  0  0  0  0  0  0  0  0  0  0
   -3.0582   -1.3963   -3.0592 H   0  0  0  0  0  0  0  0  0  0  0  0
   -1.7344    1.3744   -2.3345 H   0  0  0  0  0  0  0  0  0  0  0  0
   -0.9725   -0.0542   -3.2908 H   0  0  0  0  0  0  0  0  0  0  0  0
    1.3263   -0.7841    0.8609 H   0  0  0  0  0  0  0  0  0  0  0  0
  1  2  1  0
  2  3  1  0
  2  4  1  0
  2  5  1  0
  5  6  2  0
  6  7  1  0
  7  8  2  0
  8  9  1  0
  9 10  1  0
 10 11  2  0
 11 12  1  0
 12 13  2  0
 13 14  1  0
 14 15  2  0
 15 16  1  0
 15 17  1  0
 17 18  2  0
 18 19  1  0
 19 20  1  0
 20 21  1  0
 21 22  1  0
  9 23  2  0
 23  5  1  0
 19 10  1  0
 22 20  1  0
 18 12  1  0
  1 24  1  0
  1 25  1  0
  1 26  1  0
  3 27  1  0
  3 28  1  0
  3 29  1  0
  4 30  1  0
  6 31  1  0
  8 32  1  0
 13 33  1  0
 14 34  1  0
 17 35  1  0
 20 36  1  0
 21 37  1  0
 21 38  1  0
 22 39  1  0
 22 40  1  0
 23 41  1  0
M  END
$$$$
