@<TRIPOS>MOLECULE
*****
 36 35 0 0 0
SMALL
GASTEIGER

@<TRIPOS>ATOM
      1 C1          5.5711   -0.8157    0.5538 C.3     1  <1>        -0.0624
      2 C2          4.3547   -0.4856   -0.2873 C.3     1  <1>        -0.0251
      3 C3          3.8057    0.8316    0.1375 C.3     1  <1>         0.0643
      4 N1          2.6469    1.1670   -0.6310 N.pl3   1  <1>        -0.2786
      5 C4          1.4085    0.4576   -0.5116 C.cat   1  <1>         0.3433
      6 N2          1.4337   -0.5234    0.3413 N.pl3   1  <1>        -0.2917
      7 N3          0.2055    0.7194   -1.2124 N.pl3   1  <1>        -0.2786
      8 C5         -1.0258    0.0428   -0.8505 C.3     1  <1>         0.0646
      9 C6         -1.4968    0.4999    0.4997 C.3     1  <1>        -0.0203
     10 C7         -2.7645   -0.1895    0.9075 C.3     1  <1>        -0.0245
     11 C8         -3.8915    0.0727   -0.0345 C.3     1  <1>         0.1033
     12 N4         -4.1274    1.5088   -0.0611 N.3     1  <1>        -0.3184
     13 C9         -5.0930   -0.6510    0.4689 C.2     1  <1>         0.3217
     14 O1         -5.0910   -2.0313    0.5337 O.3     1  <1>        -0.4795
     15 O2         -6.1662   -0.1379    0.8628 O.2     1  <1>        -0.2493
     16 H1          6.3384   -0.0455    0.4552 H       1  <1>         0.0231
     17 H2          5.9635   -1.8166    0.2964 H       1  <1>         0.0231
     18 H3          5.2728   -0.8458    1.6317 H       1  <1>         0.0231
     19 H4          4.6944   -0.4068   -1.3537 H       1  <1>         0.0293
     20 H5          3.5963   -1.2756   -0.2044 H       1  <1>         0.0293
     21 H6          4.5701    1.6182   -0.0403 H       1  <1>         0.0655
     22 H7          3.5675    0.8376    1.2208 H       1  <1>         0.0655
     23 H8          2.6168    1.9505   -1.3331 H       1  <1>         0.2578
     24 H9          0.9462   -1.3082    0.8221 H       1  <1>         0.2546
     25 H10         1.5281   -1.2939    1.0419 H       1  <1>         0.2546
     26 H11         0.3253    1.4201   -1.9723 H       1  <1>         0.2578
     27 H12        -0.9078   -1.0607   -0.7904 H       1  <1>         0.0655
     28 H13        -1.8141    0.2576   -1.6034 H       1  <1>         0.0655
     29 H14        -1.7155    1.6041    0.3869 H       1  <1>         0.0296
     30 H15        -0.7152    0.3493    1.2660 H       1  <1>         0.0296
     31 H16        -3.0963    0.0922    1.9274 H       1  <1>         0.0286
     32 H17        -2.5916   -1.3044    0.9161 H       1  <1>         0.0286
     33 H18        -3.6668   -0.2642   -1.0593 H       1  <1>         0.0574
     34 H19        -5.0638    1.7319   -0.4613 H       1  <1>         0.1190
     35 H20        -4.0369    1.8655    0.9197 H       1  <1>         0.1190
     36 H21        -5.5812   -2.5706    1.2174 H       1  <1>         0.2951
@<TRIPOS>UNITY_ATOM_ATTR
6 1
charge 1
@<TRIPOS>BOND
     1     1     2    1
     2     2     3    1
     3     3     4    1
     4     4     5    1
     5     5     6    2
     6     5     7    1
     7     7     8    1
     8     8     9    1
     9     9    10    1
    10    10    11    1
    11    11    12    1
    12    11    13    1
    13    13    14    1
    14    13    15    2
    15     1    16    1
    16     1    17    1
    17     1    18    1
    18     2    19    1
    19     2    20    1
    20     3    21    1
    21     3    22    1
    22     4    23    1
    23     6    24    1
    24     6    25    1
    25     7    26    1
    26     8    27    1
    27     8    28    1
    28     9    29    1
    29     9    30    1
    30    10    31    1
    31    10    32    1
    32    11    33    1
    33    12    34    1
    34    12    35    1
    35    14    36    1
