
     RDKit          3D

 36 35  0  0  0  0  0  0  0  0999 V2000
    5.5711   -0.8157    0.5538 C   0  0  0  0  0  0  0  0  0  0  0  0
    4.3547   -0.4856   -0.2873 C   0  0  0  0  0  0  0  0  0  0  0  0
    3.8057    0.8316    0.1375 C   0  0  0  0  0  0  0  0  0  0  0  0
    2.6469    1.1670   -0.6310 N   0  0  0  0  0  0  0  0  0  0  0  0
    1.4085    0.4576   -0.5116 C   0  0  0  0  0  0  0  0  0  0  0  0
    1.4337   -0.5234    0.3413 N   0  0  0  0  0  4  0  0  0  0  0  0
    0.2055    0.7194   -1.2124 N   0  0  0  0  0  0  0  0  0  0  0  0
   -1.0258    0.0428   -0.8505 C   0  0  0  0  0  0  0  0  0  0  0  0
   -1.4968    0.4999    0.4997 C   0  0  0  0  0  0  0  0  0  0  0  0
   -2.7645   -0.1895    0.9075 C   0  0  0  0  0  0  0  0  0  0  0  0
   -3.8915    0.0727   -0.0345 C   0  0  2  0  0  0  0  0  0  0  0  0
   -4.1274    1.5088   -0.0611 N   0  0  0  0  0  0  0  0  0  0  0  0
   -5.0930   -0.6510    0.4689 C   0  0  0  0  0  0  0  0  0  0  0  0
   -5.0910   -2.0313    0.5337 O   0  0  0  0  0  0  0  0  0  0  0  0
   -6.1662   -0.1379    0.8628 O   0  0  0  0  0  0  0  0  0  0  0  0
    6.3384   -0.0455    0.4552 H   0  0  0  0  0  0  0  0  0  0  0  0
    5.9635   -1.8166    0.2964 H   0  0  0  0  0  0  0  0  0  0  0  0
    5.2728   -0.8458    1.6317 H   0  0  0  0  0  0  0  0  0  0  0  0
    4.6944   -0.4068   -1.3537 H   0  0  0  0  0  0  0  0  0  0  0  0
    3.5963   -1.2756   -0.2044 H   0  0  0  0  0  0  0  0  0  0  0  0
    4.5701    1.6182   -0.0403 H   0  0  0  0  0  0  0  0  0  0  0  0
    3.5675    0.8376    1.2208 H   0  0  0  0  0  0  0  0  0  0  0  0
    2.6168    1.9505   -1.3331 H   0  0  0  0  0  0  0  0  0  0  0  0
    0.9462   -1.3082    0.8221 H   0  0  0  0  0  0  0  0  0  0  0  0
    1.5281   -1.2939    1.0419 H   0  0  0  0  0  0  0  0  0  0  0  0
    0.3253    1.4201   -1.9723 H   0  0  0  0  0  0  0  0  0  0  0  0
   -0.9078   -1.0607   -0.7904 H   0  0  0  0  0  0  0  0  0  0  0  0
   -1.8141    0.2576   -1.6034 H   0  0  0  0  0  0  0  0  0  0  0  0
   -1.7155    1.6041    0.3869 H   0  0  0  0  0  0  0  0  0  0  0  0
   -0.7152    0.3493    1.2660 H   0  0  0  0  0  0  0  0  0  0  0  0
   -3.0963    0.0922    1.9274 H   0  0  0  0  0  0  0  0  0  0  0  0
   -2.5916   -1.3044    0.9161 H   0  0  0  0  0  0  0  0  0  0  0  0
   -3.6668   -0.2642   -1.0593 H   0  0  0  0  0  0  0  0  0  0  0  0
   -5.0638    1.7319   -0.4613 H   0  0  0  0  0  0  0  0  0  0  0  0
   -4.0369    1.8655    0.9197 H   0  0  0  0  0  0  0  0  0  0  0  0
   -5.5812   -2.5706    1.2174 H   0  0  0  0  0  0  0  0  0  0  0  0
  1  2  1  0
  2  3  1  0
  3  4  1  0
  4  5  1  0
  5  6  2  0
  5  7  1  0
  7  8  1  0
  8  9  1  0
  9 10  1  0
 10 11  1  0
 11 12  1  0
 11 13  1  0
 13 14  1  0
 13 15  2  0
  1 16  1  0
  1 17  1  0
  1 18  1  0
  2 19  1  0
  2 20  1  0
  3 21  1  0
  3 22  1  0
  4 23  1  0
  6 24  1  0
  6 25  1  0
  7 26  1  0
  8 27  1  0
  8 28  1  0
  9 29  1  0
  9 30  1  0
 10 31  1  0
 10 32  1  0
 11 33  1  6
 12 34  1  0
 12 35  1  0
 14 36  1  0
M  CHG  1   6   1
M  END
$$$$
