
     RDKit          3D

 40 43  0  0  0  0  0  0  0  0999 V2000
   -1.1690   -4.0979   -2.0257 Cl  0  0  0  0  0  0  0  0  0  0  0  0
   -0.4028   -2.7025   -1.3037 C   0  0  0  0  0  0  0  0  0  0  0  0
   -1.2209   -1.6110   -1.1032 C   0  0  0  0  0  0  0  0  0  0  0  0
   -0.6385   -0.4927   -0.5274 C   0  0  0  0  0  0  0  0  0  0  0  0
    0.6909   -0.5323   -0.2060 C   0  0  0  0  0  0  0  0  0  0  0  0
    1.5009   -1.6038   -0.4003 C   0  0  0  0  0  0  0  0  0  0  0  0
    0.9573   -2.7292   -0.9626 C   0  0  0  0  0  0  0  0  0  0  0  0
    1.5051    0.5175    0.2880 N   0  0  0  0  0  0  0  0  0  0  0  0
    2.7740    0.4521    0.9196 C   0  0  0  0  0  0  0  0  0  0  0  0
    3.9874    0.6062    0.0491 C   0  0  0  0  0  0  0  0  0  0  0  0
    5.3496    0.6117    0.6573 C   0  0  0  0  0  0  0  0  0  0  0  0
    4.9264   -0.5832   -0.0483 C   0  0  0  0  0  0  0  0  0  0  0  0
    1.0820    1.9239    0.2194 C   0  0  0  0  0  0  0  0  0  0  0  0
    1.7263    2.7687    0.9394 O   0  0  0  0  0  0  0  0  0  0  0  0
   -0.0381    2.4730   -0.6170 C   0  0  0  0  0  0  0  0  0  0  0  0
   -1.2775    1.8163   -0.3531 N   0  0  0  0  0  0  0  0  0  0  0  0
   -1.6091    0.5609   -0.2941 C   0  0  0  0  0  0  0  0  0  0  0  0
   -2.9746    0.2063    0.0281 C   0  0  0  0  0  0  0  0  0  0  0  0
   -3.7201   -0.8939    0.3380 C   0  0  0  0  0  0  0  0  0  0  0  0
   -5.0704   -0.9996    0.5181 C   0  0  0  0  0  0  0  0  0  0  0  0
   -5.8412    0.1307    0.3835 C   0  0  0  0  0  0  0  0  0  0  0  0
   -5.2098    1.3049    0.0753 C   0  0  0  0  0  0  0  0  0  0  0  0
   -3.8429    1.3160   -0.0892 C   0  0  0  0  0  0  0  0  0  0  0  0
   -2.2353   -1.5338   -1.3957 H   0  0  0  0  0  0  0  0  0  0  0  0
    2.5128   -1.5643   -0.1135 H   0  0  0  0  0  0  0  0  0  0  0  0
    1.5669   -3.5875   -1.1268 H   0  0  0  0  0  0  0  0  0  0  0  0
    2.8934   -0.5502    1.4426 H   0  0  0  0  0  0  0  0  0  0  0  0
    2.8927    1.2544    1.6976 H   0  0  0  0  0  0  0  0  0  0  0  0
    3.8226    1.2164   -0.8646 H   0  0  0  0  0  0  0  0  0  0  0  0
    6.0839    1.2739    0.1529 H   0  0  0  0  0  0  0  0  0  0  0  0
    5.4454    0.6793    1.7596 H   0  0  0  0  0  0  0  0  0  0  0  0
    4.7736   -1.4889    0.5524 H   0  0  0  0  0  0  0  0  0  0  0  0
    5.3489   -0.8276   -1.0540 H   0  0  0  0  0  0  0  0  0  0  0  0
   -0.1315    3.5365   -0.3690 H   0  0  0  0  0  0  0  0  0  0  0  0
    0.2517    2.3613   -1.6632 H   0  0  0  0  0  0  0  0  0  0  0  0
   -3.0561   -1.7415    0.5001 H   0  0  0  0  0  0  0  0  0  0  0  0
   -5.4131   -1.9896    0.7556 H   0  0  0  0  0  0  0  0  0  0  0  0
   -6.8848    0.0263    0.5271 H   0  0  0  0  0  0  0  0  0  0  0  0
   -5.8537    2.1658   -0.0193 H   0  0  0  0  0  0  0  0  0  0  0  0
   -3.5025    2.3273   -0.3304 H   0  0  0  0  0  0  0  0  0  0  0  0
  1  2  1  0
  2  3  2  0
  3  4  1  0
  4  5  2  0
  5  6  1  0
  6  7  2  0
  5  8  1  0
  8  9  1  0
  9 10  1  0
 10 11  1  0
 11 12  1  0
  8 13  1  0
 13 14  2  0
 13 15  1  0
 15 16  1  0
 16 17  2  0
 17 18  1  0
 18 19  2  0
 19 20  1  0
 20 21  2  0
 21 22  1  0
 22 23  2  0
  7  2  1  0
 12 10  1  0
 23 18  1  0
 17  4  1  0
  3 24  1  0
  6 25  1  0
  7 26  1  0
  9 27  1  0
  9 28  1  0
 10 29  1  0
 11 30  1  0
 11 31  1  0
 12 32  1  0
 12 33  1  0
 15 34  1  0
 15 35  1  0
 19 36  1  0
 20 37  1  0
 21 38  1  0
 22 39  1  0
 23 40  1  0
M  END
$$$$
