@<TRIPOS>MOLECULE
*****
 40 43 0 0 0
SMALL
GASTEIGER

@<TRIPOS>ATOM
      1 CL         -1.1690   -4.0979   -2.0257 Cl      1  UNL1       -0.0835
      2 C          -0.4028   -2.7025   -1.3037 C.ar    1  UNL1        0.0417
      3 C          -1.2209   -1.6110   -1.1032 C.ar    1  UNL1       -0.0324
      4 C          -0.6385   -0.4927   -0.5274 C.ar    1  UNL1        0.0233
      5 C           0.6909   -0.5323   -0.2060 C.ar    1  UNL1        0.0456
      6 C           1.5009   -1.6038   -0.4003 C.ar    1  UNL1       -0.0383
      7 C           0.9573   -2.7292   -0.9626 C.ar    1  UNL1       -0.0416
      8 N           1.5051    0.5175    0.2880 N.am    1  UNL1       -0.2690
      9 C           2.7740    0.4521    0.9196 C.3     1  UNL1        0.0227
     10 C           3.9874    0.6062    0.0491 C.3     1  UNL1       -0.0248
     11 C           5.3496    0.6117    0.6573 C.3     1  UNL1       -0.0485
     12 C           4.9264   -0.5832   -0.0483 C.3     1  UNL1       -0.0485
     13 C           1.0820    1.9239    0.2194 C.2     1  UNL1        0.2412
     14 O           1.7263    2.7687    0.9394 O.2     1  UNL1       -0.2732
     15 C          -0.0381    2.4730   -0.6170 C.3     1  UNL1        0.1170
     16 N          -1.2775    1.8163   -0.3531 N.2     1  UNL1       -0.2734
     17 C          -1.6091    0.5609   -0.2941 C.2     1  UNL1        0.0750
     18 C          -2.9746    0.2063    0.0281 C.ar    1  UNL1        0.0006
     19 C          -3.7201   -0.8939    0.3380 C.ar    1  UNL1       -0.0526
     20 C          -5.0704   -0.9996    0.5181 C.ar    1  UNL1       -0.0611
     21 C          -5.8412    0.1307    0.3835 C.ar    1  UNL1       -0.0617
     22 C          -5.2098    1.3049    0.0753 C.ar    1  UNL1       -0.0611
     23 C          -3.8429    1.3160   -0.0892 C.ar    1  UNL1       -0.0526
     24 H          -2.2353   -1.5338   -1.3957 H       1  UNL1        0.0639
     25 H           2.5128   -1.5643   -0.1135 H       1  UNL1        0.0637
     26 H           1.5669   -3.5875   -1.1268 H       1  UNL1        0.0633
     27 H           2.8934   -0.5502    1.4426 H       1  UNL1        0.0471
     28 H           2.8927    1.2544    1.6976 H       1  UNL1        0.0471
     29 H           3.8226    1.2164   -0.8646 H       1  UNL1        0.0316
     30 H           6.0839    1.2739    0.1529 H       1  UNL1        0.0269
     31 H           5.4454    0.6793    1.7596 H       1  UNL1        0.0269
     32 H           4.7736   -1.4889    0.5524 H       1  UNL1        0.0269
     33 H           5.3489   -0.8276   -1.0540 H       1  UNL1        0.0269
     34 H          -0.1315    3.5365   -0.3690 H       1  UNL1        0.0605
     35 H           0.2517    2.3613   -1.6632 H       1  UNL1        0.0605
     36 H          -3.0561   -1.7415    0.5001 H       1  UNL1        0.0624
     37 H          -5.4131   -1.9896    0.7556 H       1  UNL1        0.0618
     38 H          -6.8848    0.0263    0.5271 H       1  UNL1        0.0618
     39 H          -5.8537    2.1658   -0.0193 H       1  UNL1        0.0618
     40 H          -3.5025    2.3273   -0.3304 H       1  UNL1        0.0624
@<TRIPOS>BOND
     1     1     2    1
     2     2     3   ar
     3     3     4   ar
     4     4     5   ar
     5     5     6   ar
     6     6     7   ar
     7     5     8    1
     8     8     9    1
     9     9    10    1
    10    10    11    1
    11    11    12    1
    12     8    13   am
    13    13    14    2
    14    13    15    1
    15    15    16    1
    16    16    17    2
    17    17    18    1
    18    18    19   ar
    19    19    20   ar
    20    20    21   ar
    21    21    22   ar
    22    22    23   ar
    23     7     2   ar
    24    12    10    1
    25    23    18   ar
    26    17     4    1
    27     3    24    1
    28     6    25    1
    29     7    26    1
    30     9    27    1
    31     9    28    1
    32    10    29    1
    33    11    30    1
    34    11    31    1
    35    12    32    1
    36    12    33    1
    37    15    34    1
    38    15    35    1
    39    19    36    1
    40    20    37    1
    41    21    38    1
    42    22    39    1
    43    23    40    1
