@<TRIPOS>MOLECULE
*****
 41 42 0 0 0
SMALL
GASTEIGER

@<TRIPOS>ATOM
      1 C          -5.4303   -0.9484   -0.4239 C.3     1  UNL1       -0.0612
      2 C          -4.0390   -0.3769   -0.2404 C.3     1  UNL1       -0.0312
      3 C          -4.1873    0.9959    0.3732 C.3     1  UNL1       -0.0612
      4 C          -3.3466   -0.2890   -1.5822 C.3     1  UNL1        0.0128
      5 N          -2.0206    0.2477   -1.4668 N.pl3   1  UNL1       -0.3272
      6 C          -0.9956   -0.3699   -0.7081 C.ar    1  UNL1        0.1460
      7 N          -1.2100   -1.5200   -0.0419 N.ar    1  UNL1       -0.2017
      8 C          -0.2457   -2.1179    0.6796 C.ar    1  UNL1        0.2354
      9 C          -0.5416   -3.3541    1.3746 C.1     1  UNL1        0.1400
     10 N          -0.7819   -4.3626    1.9181 N.1     1  UNL1       -0.1876
     11 N           0.9439   -1.5392    0.7219 N.ar    1  UNL1       -0.2015
     12 C           1.2716   -0.3747    0.0861 C.ar    1  UNL1        0.1486
     13 N           2.5753    0.1668    0.2041 N.pl3   1  UNL1       -0.3111
     14 C           3.5818   -0.6048    0.8988 C.3     1  UNL1        0.0261
     15 C           4.9441   -0.4904    0.2744 C.3     1  UNL1        0.0117
     16 N           5.2231    0.8407   -0.2108 N.3     1  UNL1       -0.3130
     17 C           4.2825    1.8111    0.3105 C.3     1  UNL1        0.0117
     18 C           2.9277    1.4486   -0.3308 C.3     1  UNL1        0.0261
     19 C           0.2612    0.2053   -0.6404 C.ar    1  UNL1        0.1054
     20 N           0.4336    1.4114   -1.3695 N.pl3   1  UNL1       -0.3526
     21 H          -5.4309   -2.0389   -0.5016 H       1  UNL1        0.0233
     22 H          -5.9386   -0.4744   -1.2949 H       1  UNL1        0.0233
     23 H          -6.0423   -0.6691    0.4694 H       1  UNL1        0.0233
     24 H          -3.4651   -1.0076    0.4539 H       1  UNL1        0.0310
     25 H          -3.8256    0.9918    1.4037 H       1  UNL1        0.0233
     26 H          -5.2537    1.3595    0.3221 H       1  UNL1        0.0233
     27 H          -3.6180    1.7360   -0.2437 H       1  UNL1        0.0233
     28 H          -3.9556    0.3701   -2.2175 H       1  UNL1        0.0464
     29 H          -3.3650   -1.2904   -2.0625 H       1  UNL1        0.0464
     30 H          -1.8004    1.1355   -1.9656 H       1  UNL1        0.1475
     31 H           3.2382   -1.6546    0.9326 H       1  UNL1        0.0477
     32 H           3.6705   -0.2608    1.9479 H       1  UNL1        0.0477
     33 H           4.9769   -1.1661   -0.5989 H       1  UNL1        0.0439
     34 H           5.7665   -0.7848    0.9478 H       1  UNL1        0.0439
     35 H           6.1831    1.1672   -0.0324 H       1  UNL1        0.1220
     36 H           4.6238    2.8036   -0.0024 H       1  UNL1        0.0439
     37 H           4.2085    1.6757    1.4025 H       1  UNL1        0.0439
     38 H           2.1986    2.2589   -0.1169 H       1  UNL1        0.0477
     39 H           3.1747    1.3598   -1.4176 H       1  UNL1        0.0477
     40 H           0.0360    2.3252   -1.0530 H       1  UNL1        0.1425
     41 H           0.9721    1.3840   -2.2601 H       1  UNL1        0.1425
@<TRIPOS>BOND
     1     1     2    1
     2     2     3    1
     3     2     4    1
     4     4     5    1
     5     5     6    1
     6     6     7   ar
     7     7     8   ar
     8     8     9    1
     9     9    10    3
    10     8    11   ar
    11    11    12   ar
    12    12    13    1
    13    13    14    1
    14    14    15    1
    15    15    16    1
    16    16    17    1
    17    17    18    1
    18    12    19   ar
    19    19    20    1
    20    19     6   ar
    21    18    13    1
    22     1    21    1
    23     1    22    1
    24     1    23    1
    25     2    24    1
    26     3    25    1
    27     3    26    1
    28     3    27    1
    29     4    28    1
    30     4    29    1
    31     5    30    1
    32    14    31    1
    33    14    32    1
    34    15    33    1
    35    15    34    1
    36    16    35    1
    37    17    36    1
    38    17    37    1
    39    18    38    1
    40    18    39    1
    41    20    40    1
    42    20    41    1
