
     RDKit          3D

 41 42  0  0  0  0  0  0  0  0999 V2000
   -5.4303   -0.9484   -0.4239 C   0  0  0  0  0  0  0  0  0  0  0  0
   -4.0390   -0.3769   -0.2404 C   0  0  0  0  0  0  0  0  0  0  0  0
   -4.1873    0.9959    0.3732 C   0  0  0  0  0  0  0  0  0  0  0  0
   -3.3466   -0.2890   -1.5822 C   0  0  0  0  0  0  0  0  0  0  0  0
   -2.0206    0.2477   -1.4668 N   0  0  0  0  0  0  0  0  0  0  0  0
   -0.9956   -0.3699   -0.7081 C   0  0  0  0  0  0  0  0  0  0  0  0
   -1.2100   -1.5200   -0.0419 N   0  0  0  0  0  0  0  0  0  0  0  0
   -0.2457   -2.1179    0.6796 C   0  0  0  0  0  0  0  0  0  0  0  0
   -0.5416   -3.3541    1.3746 C   0  0  0  0  0  0  0  0  0  0  0  0
   -0.7819   -4.3626    1.9181 N   0  0  0  0  0  0  0  0  0  0  0  0
    0.9439   -1.5392    0.7219 N   0  0  0  0  0  0  0  0  0  0  0  0
    1.2716   -0.3747    0.0861 C   0  0  0  0  0  0  0  0  0  0  0  0
    2.5753    0.1668    0.2041 N   0  0  0  0  0  0  0  0  0  0  0  0
    3.5818   -0.6048    0.8988 C   0  0  0  0  0  0  0  0  0  0  0  0
    4.9441   -0.4904    0.2744 C   0  0  0  0  0  0  0  0  0  0  0  0
    5.2231    0.8407   -0.2108 N   0  0  0  0  0  0  0  0  0  0  0  0
    4.2825    1.8111    0.3105 C   0  0  0  0  0  0  0  0  0  0  0  0
    2.9277    1.4486   -0.3308 C   0  0  0  0  0  0  0  0  0  0  0  0
    0.2612    0.2053   -0.6404 C   0  0  0  0  0  0  0  0  0  0  0  0
    0.4336    1.4114   -1.3695 N   0  0  0  0  0  0  0  0  0  0  0  0
   -5.4309   -2.0389   -0.5016 H   0  0  0  0  0  0  0  0  0  0  0  0
   -5.9386   -0.4744   -1.2949 H   0  0  0  0  0  0  0  0  0  0  0  0
   -6.0423   -0.6691    0.4694 H   0  0  0  0  0  0  0  0  0  0  0  0
   -3.4651   -1.0076    0.4539 H   0  0  0  0  0  0  0  0  0  0  0  0
   -3.8256    0.9918    1.4037 H   0  0  0  0  0  0  0  0  0  0  0  0
   -5.2537    1.3595    0.3221 H   0  0  0  0  0  0  0  0  0  0  0  0
   -3.6180    1.7360   -0.2437 H   0  0  0  0  0  0  0  0  0  0  0  0
   -3.9556    0.3701   -2.2175 H   0  0  0  0  0  0  0  0  0  0  0  0
   -3.3650   -1.2904   -2.0625 H   0  0  0  0  0  0  0  0  0  0  0  0
   -1.8004    1.1355   -1.9656 H   0  0  0  0  0  0  0  0  0  0  0  0
    3.2382   -1.6546    0.9326 H   0  0  0  0  0  0  0  0  0  0  0  0
    3.6705   -0.2608    1.9479 H   0  0  0  0  0  0  0  0  0  0  0  0
    4.9769   -1.1661   -0.5989 H   0  0  0  0  0  0  0  0  0  0  0  0
    5.7665   -0.7848    0.9478 H   0  0  0  0  0  0  0  0  0  0  0  0
    6.1831    1.1672   -0.0324 H   0  0  0  0  0  0  0  0  0  0  0  0
    4.6238    2.8036   -0.0024 H   0  0  0  0  0  0  0  0  0  0  0  0
    4.2085    1.6757    1.4025 H   0  0  0  0  0  0  0  0  0  0  0  0
    2.1986    2.2589   -0.1169 H   0  0  0  0  0  0  0  0  0  0  0  0
    3.1747    1.3598   -1.4176 H   0  0  0  0  0  0  0  0  0  0  0  0
    0.0360    2.3252   -1.0530 H   0  0  0  0  0  0  0  0  0  0  0  0
    0.9721    1.3840   -2.2601 H   0  0  0  0  0  0  0  0  0  0  0  0
  1  2  1  0
  2  3  1  0
  2  4  1  0
  4  5  1  0
  5  6  1  0
  6  7  2  0
  7  8  1  0
  8  9  1  0
  9 10  3  0
  8 11  2  0
 11 12  1  0
 12 13  1  0
 13 14  1  0
 14 15  1  0
 15 16  1  0
 16 17  1  0
 17 18  1  0
 12 19  2  0
 19 20  1  0
 19  6  1  0
 18 13  1  0
  1 21  1  0
  1 22  1  0
  1 23  1  0
  2 24  1  0
  3 25  1  0
  3 26  1  0
  3 27  1  0
  4 28  1  0
  4 29  1  0
  5 30  1  0
 14 31  1  0
 14 32  1  0
 15 33  1  0
 15 34  1  0
 16 35  1  0
 17 36  1  0
 17 37  1  0
 18 38  1  0
 18 39  1  0
 20 40  1  0
 20 41  1  0
M  END
$$$$
