@<TRIPOS>MOLECULE
*****
 32 32 0 0 0
SMALL
GASTEIGER

@<TRIPOS>ATOM
      1 C          -4.2019    1.3989    1.6980 C.1     1  UNL1       -0.1179
      2 C          -3.0984    1.2789    1.0400 C.1     1  UNL1       -0.0900
      3 C          -1.8242    1.1213    0.2961 C.3     1  UNL1        0.0604
      4 N          -2.1649    0.8780   -1.0400 N.3     1  UNL1       -0.2945
      5 C          -2.7836    1.9365   -1.7773 C.3     1  UNL1       -0.0119
      6 C          -1.5374   -0.1087   -1.8077 C.3     1  UNL1        0.0026
      7 C          -0.1197    0.0755   -2.1957 C.3     1  UNL1       -0.0058
      8 C           0.8772    0.1129   -1.0802 C.3     1  UNL1        0.0908
      9 O           0.8998   -1.0803   -0.3407 O.3     1  UNL1       -0.4905
     10 C           1.7919   -1.2251    0.7125 C.ar    1  UNL1        0.1388
     11 C           2.6692   -0.2182    1.0662 C.ar    1  UNL1       -0.0171
     12 C           3.5769   -0.3471    2.1222 C.ar    1  UNL1       -0.0398
     13 C           3.5974   -1.5152    2.8310 C.ar    1  UNL1        0.0426
     14 CL          4.7293   -1.7163    4.1831 Cl      1  UNL1       -0.0835
     15 C           2.7395   -2.5457    2.5146 C.ar    1  UNL1       -0.0215
     16 C           1.8427   -2.3981    1.4610 C.ar    1  UNL1        0.0839
     17 CL          0.7340   -3.6850    1.0395 Cl      1  UNL1       -0.0797
     18 H          -5.0450    1.4793    2.1852 H       1  UNL1        0.1228
     19 H          -1.2124    2.0286    0.4843 H       1  UNL1        0.0563
     20 H          -1.2893    0.2509    0.7112 H       1  UNL1        0.0563
     21 H          -3.0642    1.5959   -2.7936 H       1  UNL1        0.0391
     22 H          -2.1586    2.8292   -1.8084 H       1  UNL1        0.0391
     23 H          -3.7158    2.1980   -1.2050 H       1  UNL1        0.0391
     24 H          -1.5886   -1.0757   -1.2145 H       1  UNL1        0.0428
     25 H          -2.1694   -0.3421   -2.7148 H       1  UNL1        0.0428
     26 H           0.1872   -0.7907   -2.8479 H       1  UNL1        0.0310
     27 H          -0.0017    0.9649   -2.8772 H       1  UNL1        0.0310
     28 H           1.9007    0.2560   -1.5481 H       1  UNL1        0.0697
     29 H           0.7337    0.9588   -0.3928 H       1  UNL1        0.0697
     30 H           2.6658    0.7001    0.5236 H       1  UNL1        0.0655
     31 H           4.2570    0.4465    2.3878 H       1  UNL1        0.0633
     32 H           2.7728   -3.4620    3.0868 H       1  UNL1        0.0648
@<TRIPOS>BOND
     1     1     2    3
     2     2     3    1
     3     3     4    1
     4     4     5    1
     5     4     6    1
     6     6     7    1
     7     7     8    1
     8     8     9    1
     9     9    10    1
    10    10    11   ar
    11    11    12   ar
    12    12    13   ar
    13    13    14    1
    14    13    15   ar
    15    15    16   ar
    16    16    17    1
    17    16    10   ar
    18     1    18    1
    19     3    19    1
    20     3    20    1
    21     5    21    1
    22     5    22    1
    23     5    23    1
    24     6    24    1
    25     6    25    1
    26     7    26    1
    27     7    27    1
    28     8    28    1
    29     8    29    1
    30    11    30    1
    31    12    31    1
    32    15    32    1
