@<TRIPOS>MOLECULE
*****
 41 43 0 0 0
SMALL
GASTEIGER

@<TRIPOS>ATOM
      1 C          -5.5938   -2.2238   -0.9882 C.3     1  UNL1        0.0788
      2 O          -4.8766   -1.0026   -1.0817 O.3     1  UNL1       -0.4951
      3 C          -3.5425   -0.9626   -0.7053 C.ar    1  UNL1        0.1208
      4 C          -2.8639   -2.0709   -0.2348 C.ar    1  UNL1       -0.0180
      5 C          -1.5142   -2.0040    0.1394 C.ar    1  UNL1       -0.0337
      6 C          -0.8579   -0.7978    0.0313 C.ar    1  UNL1        0.0574
      7 C          -1.5309    0.3134   -0.4384 C.ar    1  UNL1        0.0077
      8 C          -2.8582    0.2279   -0.8016 C.ar    1  UNL1       -0.0105
      9 C          -0.6734    1.3853   -0.4574 C.ar    1  UNL1       -0.0080
     10 C          -0.9963    2.7513   -0.8864 C.3     1  UNL1        0.0721
     11 C          -1.7682    3.5088    0.1026 C.2     1  UNL1        0.3091
     12 O          -2.0938    2.9886    1.1869 O.2     1  UNL1       -0.2507
     13 O          -2.1378    4.8064   -0.1664 O.3     1  UNL1       -0.4804
     14 C           0.5368    0.9058    0.0111 C.ar    1  UNL1        0.0284
     15 C           1.7069    1.7794    0.2143 C.3     1  UNL1       -0.0235
     16 N           0.4281   -0.3923    0.2989 N.ar    1  UNL1       -0.2801
     17 C           1.4023   -1.3263    0.7118 C.2     1  UNL1        0.2631
     18 O           1.0213   -2.4574    1.1459 O.2     1  UNL1       -0.2667
     19 C           2.8344   -1.0919    0.6761 C.ar    1  UNL1        0.0399
     20 C           3.6190   -1.5367    1.7490 C.ar    1  UNL1       -0.0480
     21 C           4.9882   -1.4234    1.7365 C.ar    1  UNL1       -0.0427
     22 C           5.6579   -0.8709    0.6770 C.ar    1  UNL1        0.0410
     23 CL          7.4019   -0.7320    0.6770 Cl      1  UNL1       -0.0835
     24 C           4.8892   -0.4331   -0.3805 C.ar    1  UNL1       -0.0427
     25 C           3.5128   -0.5406   -0.3826 C.ar    1  UNL1       -0.0480
     26 H          -5.1061   -2.9458   -1.6914 H       1  UNL1        0.0660
     27 H          -5.5741   -2.6356    0.0352 H       1  UNL1        0.0660
     28 H          -6.6558   -2.0540   -1.2632 H       1  UNL1        0.0660
     29 H          -3.3552   -3.0211   -0.1418 H       1  UNL1        0.0655
     30 H          -1.0339   -2.8922    0.4964 H       1  UNL1        0.0640
     31 H          -3.3644    1.1076   -1.1658 H       1  UNL1        0.0661
     32 H          -1.5167    2.7738   -1.8682 H       1  UNL1        0.0427
     33 H          -0.0193    3.3027   -1.0205 H       1  UNL1        0.0427
     34 H          -2.9869    5.2145    0.2041 H       1  UNL1        0.2951
     35 H           1.2826    2.8082    0.4967 H       1  UNL1        0.0292
     36 H           2.3278    1.4977    1.0932 H       1  UNL1        0.0292
     37 H           2.2900    1.9951   -0.6943 H       1  UNL1        0.0292
     38 H           3.0771   -1.9768    2.5915 H       1  UNL1        0.0626
     39 H           5.5744   -1.7778    2.5860 H       1  UNL1        0.0632
     40 H           5.4126    0.0043   -1.2212 H       1  UNL1        0.0632
     41 H           2.9567   -0.2011   -1.2713 H       1  UNL1        0.0626
@<TRIPOS>BOND
     1     1     2    1
     2     2     3    1
     3     3     4   ar
     4     4     5   ar
     5     5     6   ar
     6     6     7   ar
     7     7     8   ar
     8     7     9   ar
     9     9    10    1
    10    10    11    1
    11    11    12    2
    12    11    13    1
    13     9    14   ar
    14    14    15    1
    15    14    16   ar
    16    16    17   am
    17    17    18    2
    18    17    19    1
    19    19    20   ar
    20    20    21   ar
    21    21    22   ar
    22    22    23    1
    23    22    24   ar
    24    24    25   ar
    25     8     3   ar
    26    25    19   ar
    27    16     6   ar
    28     1    26    1
    29     1    27    1
    30     1    28    1
    31     4    29    1
    32     5    30    1
    33     8    31    1
    34    10    32    1
    35    10    33    1
    36    13    34    1
    37    15    35    1
    38    15    36    1
    39    15    37    1
    40    20    38    1
    41    21    39    1
    42    24    40    1
    43    25    41    1
