@<TRIPOS>MOLECULE
*****
 57 61 0 0 0
SMALL
GASTEIGER

@<TRIPOS>ATOM
      1 C           1.5596    3.0992    1.8539 C.3     1  UNL1        0.0790
      2 O           0.5666    2.0913    1.8119 O.3     1  UNL1       -0.4914
      3 C           0.8941    0.8801    1.2207 C.ar    1  UNL1        0.1623
      4 C           2.1335    0.6234    0.6794 C.ar    1  UNL1       -0.0038
      5 C           2.4626   -0.5717    0.0939 C.ar    1  UNL1        0.0441
      6 C           3.7213   -0.8502   -0.4607 C.ar    1  UNL1        0.1340
      7 N           4.7149    0.1484   -0.4376 N.pl3   1  UNL1       -0.2966
      8 C           6.0382   -0.0014   -0.8964 C.ar    1  UNL1        0.0696
      9 C           6.5943   -1.1392   -1.4324 C.ar    1  UNL1       -0.0362
     10 C           7.9175   -1.2165   -1.8703 C.ar    1  UNL1       -0.0400
     11 C           8.7241   -0.1182   -1.7724 C.ar    1  UNL1        0.0622
     12 CL         10.3735   -0.2208   -2.3203 Cl      1  UNL1       -0.0819
     13 C           8.2037    1.0503   -1.2377 C.ar    1  UNL1        0.0962
     14 CL          9.2553    2.4516   -1.1200 Cl      1  UNL1       -0.0790
     15 C           6.8994    1.1068   -0.8123 C.ar    1  UNL1        0.1641
     16 F           6.4177    2.2695   -0.2915 F       1  UNL1       -0.2020
     17 N           3.9180   -2.0630   -1.0032 N.ar    1  UNL1       -0.2200
     18 C           3.0079   -3.0352   -1.0601 C.ar    1  UNL1        0.1187
     19 N           1.8102   -2.7709   -0.5330 N.ar    1  UNL1       -0.2352
     20 C           1.5276   -1.5796    0.0318 C.ar    1  UNL1        0.0797
     21 C           0.2672   -1.3258    0.5799 C.ar    1  UNL1        0.0098
     22 C          -0.0819   -0.1355    1.1697 C.ar    1  UNL1        0.1641
     23 O          -1.3178    0.0728    1.6870 O.3     1  UNL1       -0.4856
     24 C          -2.4711   -0.6635    1.7680 C.3     1  UNL1        0.1170
     25 C          -3.1501   -1.0163    0.4684 C.3     1  UNL1        0.1053
     26 C          -3.4222    0.2200   -0.3612 C.3     1  UNL1        0.0289
     27 N          -4.8323    0.4996   -0.4959 N.3     1  UNL1       -0.2903
     28 C          -5.4442   -0.2858   -1.5442 C.3     1  UNL1        0.0229
     29 C          -6.9460   -0.2947   -1.4070 C.3     1  UNL1        0.0605
     30 O          -7.3205    0.8306   -0.6738 O.3     1  UNL1       -0.3769
     31 C          -6.9539    0.6943    0.6706 C.3     1  UNL1        0.0654
     32 C          -5.4896    0.3375    0.7759 C.3     1  UNL1        0.0573
     33 C          -5.3075   -1.0425    1.3091 C.3     1  UNL1        0.0659
     34 O          -4.3103   -1.7610    0.6792 O.3     1  UNL1       -0.3703
     35 H           2.5162    2.7123    2.2739 H       1  UNL1        0.0660
     36 H           1.2649    3.9457    2.5110 H       1  UNL1        0.0660
     37 H           1.8063    3.4633    0.8288 H       1  UNL1        0.0660
     38 H           2.8743    1.4219    0.7320 H       1  UNL1        0.0663
     39 H           4.4758    1.0946   -0.0553 H       1  UNL1        0.1537
     40 H           5.9919   -2.0309   -1.5254 H       1  UNL1        0.0637
     41 H           8.3070   -2.1262   -2.2817 H       1  UNL1        0.0633
     42 H           3.2750   -3.9778   -1.5221 H       1  UNL1        0.1048
     43 H          -0.4061   -2.1850    0.5071 H       1  UNL1        0.0677
     44 H          -3.2250   -0.2029    2.4846 H       1  UNL1        0.0723
     45 H          -2.1994   -1.6189    2.3319 H       1  UNL1        0.0723
     46 H          -2.4962   -1.6599   -0.1250 H       1  UNL1        0.0643
     47 H          -2.9681    0.1642   -1.3526 H       1  UNL1        0.0453
     48 H          -2.9732    1.0806    0.1738 H       1  UNL1        0.0453
     49 H          -5.0768   -1.3172   -1.5946 H       1  UNL1        0.0449
     50 H          -5.1988    0.2023   -2.5112 H       1  UNL1        0.0449
     51 H          -7.3294   -1.2273   -0.9344 H       1  UNL1        0.0572
     52 H          -7.4623   -0.2042   -2.4066 H       1  UNL1        0.0572
     53 H          -7.6108   -0.0252    1.2061 H       1  UNL1        0.0576
     54 H          -7.1419    1.7060    1.1352 H       1  UNL1        0.0576
     55 H          -5.0095    1.0539    1.4802 H       1  UNL1        0.0508
     56 H          -6.2536   -1.6249    1.1750 H       1  UNL1        0.0576
     57 H          -5.1202   -1.0212    2.3997 H       1  UNL1        0.0576
@<TRIPOS>BOND
     1     1     2    1
     2     2     3    1
     3     3     4   ar
     4     4     5   ar
     5     5     6   ar
     6     6     7    1
     7     7     8    1
     8     8     9   ar
     9     9    10   ar
    10    10    11   ar
    11    11    12    1
    12    11    13   ar
    13    13    14    1
    14    13    15   ar
    15    15    16    1
    16     6    17   ar
    17    17    18   ar
    18    18    19   ar
    19    19    20   ar
    20    20    21   ar
    21    21    22   ar
    22    22    23    1
    23    23    24    1
    24    24    25    1
    25    25    26    1
    26    26    27    1
    27    27    28    1
    28    28    29    1
    29    29    30    1
    30    30    31    1
    31    31    32    1
    32    32    33    1
    33    33    34    1
    34    22     3   ar
    35    34    25    1
    36    20     5   ar
    37    32    27    1
    38    15     8   ar
    39     1    35    1
    40     1    36    1
    41     1    37    1
    42     4    38    1
    43     7    39    1
    44     9    40    1
    45    10    41    1
    46    18    42    1
    47    21    43    1
    48    24    44    1
    49    24    45    1
    50    25    46    1
    51    26    47    1
    52    26    48    1
    53    28    49    1
    54    28    50    1
    55    29    51    1
    56    29    52    1
    57    31    53    1
    58    31    54    1
    59    32    55    1
    60    33    56    1
    61    33    57    1
