
     RDKit          3D

 57 61  0  0  0  0  0  0  0  0999 V2000
    1.5596    3.0992    1.8539 C   0  0  0  0  0  0  0  0  0  0  0  0
    0.5666    2.0913    1.8119 O   0  0  0  0  0  0  0  0  0  0  0  0
    0.8941    0.8801    1.2207 C   0  0  0  0  0  0  0  0  0  0  0  0
    2.1335    0.6234    0.6794 C   0  0  0  0  0  0  0  0  0  0  0  0
    2.4626   -0.5717    0.0939 C   0  0  0  0  0  0  0  0  0  0  0  0
    3.7213   -0.8502   -0.4607 C   0  0  0  0  0  0  0  0  0  0  0  0
    4.7149    0.1484   -0.4376 N   0  0  0  0  0  0  0  0  0  0  0  0
    6.0382   -0.0014   -0.8964 C   0  0  0  0  0  0  0  0  0  0  0  0
    6.5943   -1.1392   -1.4324 C   0  0  0  0  0  0  0  0  0  0  0  0
    7.9175   -1.2165   -1.8703 C   0  0  0  0  0  0  0  0  0  0  0  0
    8.7241   -0.1182   -1.7724 C   0  0  0  0  0  0  0  0  0  0  0  0
   10.3735   -0.2208   -2.3203 Cl  0  0  0  0  0  0  0  0  0  0  0  0
    8.2037    1.0503   -1.2377 C   0  0  0  0  0  0  0  0  0  0  0  0
    9.2553    2.4516   -1.1200 Cl  0  0  0  0  0  0  0  0  0  0  0  0
    6.8994    1.1068   -0.8123 C   0  0  0  0  0  0  0  0  0  0  0  0
    6.4177    2.2695   -0.2915 F   0  0  0  0  0  0  0  0  0  0  0  0
    3.9180   -2.0630   -1.0032 N   0  0  0  0  0  0  0  0  0  0  0  0
    3.0079   -3.0352   -1.0601 C   0  0  0  0  0  0  0  0  0  0  0  0
    1.8102   -2.7709   -0.5330 N   0  0  0  0  0  0  0  0  0  0  0  0
    1.5276   -1.5796    0.0318 C   0  0  0  0  0  0  0  0  0  0  0  0
    0.2672   -1.3258    0.5799 C   0  0  0  0  0  0  0  0  0  0  0  0
   -0.0819   -0.1355    1.1697 C   0  0  0  0  0  0  0  0  0  0  0  0
   -1.3178    0.0728    1.6870 O   0  0  0  0  0  0  0  0  0  0  0  0
   -2.4711   -0.6635    1.7680 C   0  0  0  0  0  0  0  0  0  0  0  0
   -3.1501   -1.0163    0.4684 C   0  0  2  0  0  0  0  0  0  0  0  0
   -3.4222    0.2200   -0.3612 C   0  0  0  0  0  0  0  0  0  0  0  0
   -4.8323    0.4996   -0.4959 N   0  0  0  0  0  0  0  0  0  0  0  0
   -5.4442   -0.2858   -1.5442 C   0  0  0  0  0  0  0  0  0  0  0  0
   -6.9460   -0.2947   -1.4070 C   0  0  0  0  0  0  0  0  0  0  0  0
   -7.3205    0.8306   -0.6738 O   0  0  0  0  0  0  0  0  0  0  0  0
   -6.9539    0.6943    0.6706 C   0  0  0  0  0  0  0  0  0  0  0  0
   -5.4896    0.3375    0.7759 C   0  0  0  0  0  0  0  0  0  0  0  0
   -5.3075   -1.0425    1.3091 C   0  0  0  0  0  0  0  0  0  0  0  0
   -4.3103   -1.7610    0.6792 O   0  0  0  0  0  0  0  0  0  0  0  0
    2.5162    2.7123    2.2739 H   0  0  0  0  0  0  0  0  0  0  0  0
    1.2649    3.9457    2.5110 H   0  0  0  0  0  0  0  0  0  0  0  0
    1.8063    3.4633    0.8288 H   0  0  0  0  0  0  0  0  0  0  0  0
    2.8743    1.4219    0.7320 H   0  0  0  0  0  0  0  0  0  0  0  0
    4.4758    1.0946   -0.0553 H   0  0  0  0  0  0  0  0  0  0  0  0
    5.9919   -2.0309   -1.5254 H   0  0  0  0  0  0  0  0  0  0  0  0
    8.3070   -2.1262   -2.2817 H   0  0  0  0  0  0  0  0  0  0  0  0
    3.2750   -3.9778   -1.5221 H   0  0  0  0  0  0  0  0  0  0  0  0
   -0.4061   -2.1850    0.5071 H   0  0  0  0  0  0  0  0  0  0  0  0
   -3.2250   -0.2029    2.4846 H   0  0  0  0  0  0  0  0  0  0  0  0
   -2.1994   -1.6189    2.3319 H   0  0  0  0  0  0  0  0  0  0  0  0
   -2.4962   -1.6599   -0.1250 H   0  0  0  0  0  0  0  0  0  0  0  0
   -2.9681    0.1642   -1.3526 H   0  0  0  0  0  0  0  0  0  0  0  0
   -2.9732    1.0806    0.1738 H   0  0  0  0  0  0  0  0  0  0  0  0
   -5.0768   -1.3172   -1.5946 H   0  0  0  0  0  0  0  0  0  0  0  0
   -5.1988    0.2023   -2.5112 H   0  0  0  0  0  0  0  0  0  0  0  0
   -7.3294   -1.2273   -0.9344 H   0  0  0  0  0  0  0  0  0  0  0  0
   -7.4623   -0.2042   -2.4066 H   0  0  0  0  0  0  0  0  0  0  0  0
   -7.6108   -0.0252    1.2061 H   0  0  0  0  0  0  0  0  0  0  0  0
   -7.1419    1.7060    1.1352 H   0  0  0  0  0  0  0  0  0  0  0  0
   -5.0095    1.0539    1.4802 H   0  0  0  0  0  0  0  0  0  0  0  0
   -6.2536   -1.6249    1.1750 H   0  0  0  0  0  0  0  0  0  0  0  0
   -5.1202   -1.0212    2.3997 H   0  0  0  0  0  0  0  0  0  0  0  0
  1  2  1  0
  2  3  1  0
  3  4  2  0
  4  5  1  0
  5  6  2  0
  6  7  1  0
  7  8  1  0
  8  9  2  0
  9 10  1  0
 10 11  2  0
 11 12  1  0
 11 13  1  0
 13 14  1  0
 13 15  2  0
 15 16  1  0
  6 17  1  0
 17 18  2  0
 18 19  1  0
 19 20  2  0
 20 21  1  0
 21 22  2  0
 22 23  1  0
 23 24  1  0
 24 25  1  0
 25 26  1  0
 26 27  1  0
 27 28  1  0
 28 29  1  0
 29 30  1  0
 30 31  1  0
 31 32  1  0
 32 33  1  0
 33 34  1  0
 22  3  1  0
 34 25  1  0
 20  5  1  0
 32 27  1  0
 15  8  1  0
  1 35  1  0
  1 36  1  0
  1 37  1  0
  4 38  1  0
  7 39  1  0
  9 40  1  0
 10 41  1  0
 18 42  1  0
 21 43  1  0
 24 44  1  0
 24 45  1  0
 25 46  1  6
 26 47  1  0
 26 48  1  0
 28 49  1  0
 28 50  1  0
 29 51  1  0
 29 52  1  0
 31 53  1  0
 31 54  1  0
 32 55  1  0
 33 56  1  0
 33 57  1  0
M  END
$$$$
