@<TRIPOS>MOLECULE
*****
 77 81 0 0 0
SMALL
GASTEIGER

@<TRIPOS>ATOM
      1 C          -1.3704   -2.3925    0.2430 C.3     1  UNL1       -0.0636
      2 C          -1.4775   -1.2310   -0.6905 C.3     1  UNL1       -0.0293
      3 C          -0.8167    0.0272   -0.1761 C.3     1  UNL1        0.1479
      4 C          -1.0346    1.0515   -1.2409 C.2     1  UNL1        0.2398
      5 O          -1.0795    0.7707   -2.4673 O.2     1  UNL1       -0.2739
      6 N          -1.2083    2.4300   -0.9406 N.am    1  UNL1       -0.2387
      7 C          -1.4481    2.8112    0.4270 C.2     1  UNL1        0.3122
      8 O          -1.6109    4.0337    0.7515 O.2     1  UNL1       -0.2520
      9 N          -1.5122    1.8452    1.4607 N.am    1  UNL1       -0.2387
     10 C          -1.3319    0.4629    1.1189 C.2     1  UNL1        0.2398
     11 O          -1.6517   -0.3601    2.0217 O.2     1  UNL1       -0.2739
     12 C           0.6586   -0.1569   -0.1167 C.ar    1  UNL1       -0.0237
     13 C           1.2837   -0.1983    1.1327 C.ar    1  UNL1       -0.0571
     14 C           2.6551   -0.3693    1.1937 C.ar    1  UNL1       -0.0615
     15 C           3.4482   -0.5027    0.0788 C.ar    1  UNL1       -0.0617
     16 C           2.8255   -0.4615   -1.1664 C.ar    1  UNL1       -0.0615
     17 C           1.4553   -0.2909   -1.2348 C.ar    1  UNL1       -0.0571
     18 C          -4.8441   -2.7079   -0.9389 C.3     2  UNL2        0.0788
     19 O          -5.4069   -1.4769   -0.6026 O.3     2  UNL2       -0.4951
     20 C          -4.6857   -0.3400   -0.2738 C.ar    2  UNL2        0.1208
     21 C          -3.3266   -0.2480   -0.2281 C.ar    2  UNL2       -0.0104
     22 C          -2.6393    0.8980    0.1030 C.ar    2  UNL2        0.0095
     23 C          -1.2411    0.9294    0.1277 C.ar    2  UNL2       -0.0070
     24 C          -0.7617    2.1739    0.4774 C.ar    2  UNL2       -0.0373
     25 C          -1.5126    3.2902    0.7780 C.ar    2  UNL2        0.0286
     26 N          -2.8584    3.1752    0.7313 N.ar    2  UNL2       -0.2550
     27 C          -3.4140    1.9997    0.3997 C.ar    2  UNL2        0.0715
     28 C          -4.7915    1.9529    0.3663 C.ar    2  UNL2       -0.0323
     29 C          -5.4457    0.7856    0.0301 C.ar    2  UNL2       -0.0179
     30 C          -0.4443   -0.2600   -0.1733 C.3     2  UNL2        0.0963
     31 O          -0.8768   -1.2418    0.7621 O.3     2  UNL2       -0.3856
     32 C           1.0382   -0.0860    0.1676 C.3     2  UNL2        0.0408
     33 C           1.7598   -1.4139    0.1195 C.3     2  UNL2       -0.0312
     34 C           3.0894   -1.2456   -0.6041 C.3     2  UNL2       -0.0310
     35 C           2.7992   -0.8651   -2.0237 C.3     2  UNL2       -0.0367
     36 C           1.9976    0.4317   -1.9985 C.3     2  UNL2       -0.0004
     37 N           1.7197    0.8549   -0.6528 N.3     2  UNL2       -0.2960
     38 C           3.0017    1.1215   -0.0275 C.3     2  UNL2        0.0058
     39 C           3.8391   -0.1417    0.0728 C.3     2  UNL2       -0.0075
     40 C           4.1684   -0.4409    1.4814 C.2     2  UNL2       -0.0865
     41 C           5.4388   -0.4853    1.9322 C.2     2  UNL2       -0.1023
     42 H          -0.3844   -2.5207    0.7037 H       1  UNL1        0.0230
     43 H          -2.1980   -2.3978    1.0085 H       1  UNL1        0.0230
     44 H          -1.5668   -3.3161   -0.3533 H       1  UNL1        0.0230
     45 H          -2.5487   -1.0721   -0.9272 H       1  UNL1        0.0280
     46 H          -1.0120   -1.5517   -1.6450 H       1  UNL1        0.0280
     47 H          -1.1818    3.2250   -1.6156 H       1  UNL1        0.1591
     48 H          -1.6868    2.1295    2.4523 H       1  UNL1        0.1591
     49 H           0.6713   -0.0946    2.0181 H       1  UNL1        0.0621
     50 H           3.1582   -0.4044    2.1399 H       1  UNL1        0.0618
     51 H           4.5235   -0.6375    0.1011 H       1  UNL1        0.0618
     52 H           3.4391   -0.5657   -2.0640 H       1  UNL1        0.0618
     53 H           1.0015   -0.2630   -2.2134 H       1  UNL1        0.0621
     54 H          -5.4809   -3.5683   -0.6551 H       2  UNL2        0.0660
     55 H          -3.8832   -2.8554   -0.4055 H       2  UNL2        0.0660
     56 H          -4.7039   -2.7413   -2.0322 H       2  UNL2        0.0660
     57 H          -2.7949   -1.1304   -0.4735 H       2  UNL2        0.0661
     58 H           0.3081    2.3164    0.5309 H       2  UNL2        0.0636
     59 H          -1.0542    4.2290    1.0427 H       2  UNL2        0.0830
     60 H          -5.3749    2.8302    0.6032 H       2  UNL2        0.0640
     61 H          -6.5288    0.7615    0.0075 H       2  UNL2        0.0655
     62 H          -0.4727   -0.6206   -1.2045 H       2  UNL2        0.0659
     63 H          -1.2773   -0.8452    1.5482 H       2  UNL2        0.2103
     64 H           1.1527    0.2861    1.2274 H       2  UNL2        0.0491
     65 H           1.1553   -2.1877   -0.4122 H       2  UNL2        0.0284
     66 H           2.0224   -1.8046    1.1299 H       2  UNL2        0.0284
     67 H           3.5896   -2.2305   -0.5168 H       2  UNL2        0.0308
     68 H           3.7645   -0.7603   -2.5620 H       2  UNL2        0.0280
     69 H           2.2391   -1.6543   -2.5694 H       2  UNL2        0.0280
     70 H           1.1104    0.3825   -2.6434 H       2  UNL2        0.0427
     71 H           2.6662    1.2185   -2.4262 H       2  UNL2        0.0427
     72 H           3.5880    1.8422   -0.6400 H       2  UNL2        0.0432
     73 H           2.8868    1.5367    0.9889 H       2  UNL2        0.0432
     74 H           4.8126   -0.0427   -0.4739 H       2  UNL2        0.0358
     75 H           3.4417   -0.6458    2.2574 H       2  UNL2        0.0570
     76 H           5.9254   -0.6756    2.8831 H       2  UNL2        0.0532
     77 H           6.3050   -0.3006    1.2743 H       2  UNL2        0.0532
@<TRIPOS>BOND
     1     1     2    1
     2     2     3    1
     3     3     4    1
     4     4     5    2
     5     4     6   am
     6     6     7   am
     7     7     8    2
     8     7     9   am
     9     9    10   am
    10    10    11    2
    11     3    12    1
    12    12    13   ar
    13    13    14   ar
    14    14    15   ar
    15    15    16   ar
    16    16    17   ar
    17    18    19    1
    18    19    20    1
    19    20    21   ar
    20    21    22   ar
    21    22    23   ar
    22    23    24   ar
    23    24    25   ar
    24    25    26   ar
    25    26    27   ar
    26    27    28   ar
    27    28    29   ar
    28    23    30    1
    29    30    31    1
    30    30    32    1
    31    32    33    1
    32    33    34    1
    33    34    35    1
    34    35    36    1
    35    36    37    1
    36    37    38    1
    37    38    39    1
    38    39    40    1
    39    40    41    2
    40    10     3    1
    41    17    12   ar
    42    29    20   ar
    43    37    32    1
    44    27    22   ar
    45    39    34    1
    46     1    42    1
    47     1    43    1
    48     1    44    1
    49     2    45    1
    50     2    46    1
    51     6    47    1
    52     9    48    1
    53    13    49    1
    54    14    50    1
    55    15    51    1
    56    16    52    1
    57    17    53    1
    58    18    54    1
    59    18    55    1
    60    18    56    1
    61    21    57    1
    62    24    58    1
    63    25    59    1
    64    28    60    1
    65    29    61    1
    66    30    62    1
    67    31    63    1
    68    32    64    1
    69    33    65    1
    70    33    66    1
    71    34    67    1
    72    35    68    1
    73    35    69    1
    74    36    70    1
    75    36    71    1
    76    38    72    1
    77    38    73    1
    78    39    74    1
    79    40    75    1
    80    41    76    1
    81    41    77    1
