@<TRIPOS>MOLECULE
*****
 35 36 0 0 0
SMALL
GASTEIGER

@<TRIPOS>ATOM
      1 C           2.4643    3.8148   -0.1437 C.3     1  UNL1        0.0788
      2 O           3.0322    2.6465    0.3863 O.3     1  UNL1       -0.4950
      3 C           2.4804    1.3891    0.2510 C.ar    1  UNL1        0.1238
      4 C           1.3046    1.1316   -0.4217 C.ar    1  UNL1       -0.0162
      5 C           0.7783   -0.1373   -0.5397 C.ar    1  UNL1       -0.0360
      6 C          -0.4808   -0.3257   -1.2739 C.3     1  UNL1        0.0025
      7 C          -1.6760   -0.2193   -0.4246 C.ar    1  UNL1        0.0146
      8 C          -1.6064    0.0335    0.9280 C.ar    1  UNL1        0.0379
      9 N          -2.7454    0.1230    1.6727 N.ar    1  UNL1       -0.2227
     10 C          -3.9614   -0.0305    1.1200 C.ar    1  UNL1        0.2142
     11 N          -5.1437    0.0684    1.9257 N.pl3   1  UNL1       -0.3274
     12 N          -4.0202   -0.2767   -0.1992 N.ar    1  UNL1       -0.1999
     13 C          -2.9243   -0.3759   -0.9870 C.ar    1  UNL1        0.1247
     14 N          -3.0328   -0.6392   -2.3873 N.pl3   1  UNL1       -0.3428
     15 C           1.4974   -1.1592    0.0587 C.ar    1  UNL1       -0.0162
     16 C           2.6661   -0.9628    0.7368 C.ar    1  UNL1        0.1238
     17 O           3.3879   -1.9865    1.3372 O.3     1  UNL1       -0.4950
     18 C           2.8540   -3.2925    1.2204 C.3     1  UNL1        0.0788
     19 C           3.1586    0.3247    0.8314 C.ar    1  UNL1        0.0218
     20 H           2.6138    3.9025   -1.2474 H       1  UNL1        0.0660
     21 H           2.9482    4.7025    0.3029 H       1  UNL1        0.0660
     22 H           1.3721    3.8779    0.1058 H       1  UNL1        0.0660
     23 H           0.7790    1.9659   -0.8730 H       1  UNL1        0.0657
     24 H          -0.5928    0.3711   -2.1307 H       1  UNL1        0.0363
     25 H          -0.5091   -1.3544   -1.7369 H       1  UNL1        0.0363
     26 H          -0.6264    0.1538    1.3549 H       1  UNL1        0.0834
     27 H          -5.1378   -0.1646    2.9226 H       1  UNL1        0.1452
     28 H          -6.0419    0.3853    1.4972 H       1  UNL1        0.1452
     29 H          -3.3270    0.1800   -2.9765 H       1  UNL1        0.1437
     30 H          -2.8356   -1.5752   -2.8019 H       1  UNL1        0.1437
     31 H           1.1188   -2.1671   -0.0111 H       1  UNL1        0.0657
     32 H           2.6660   -3.5024    0.1373 H       1  UNL1        0.0660
     33 H           3.5808   -4.0193    1.6368 H       1  UNL1        0.0660
     34 H           1.8691   -3.3739    1.7393 H       1  UNL1        0.0660
     35 H           4.0903    0.4916    1.3703 H       1  UNL1        0.0691
@<TRIPOS>BOND
     1     1     2    1
     2     2     3    1
     3     3     4   ar
     4     4     5   ar
     5     5     6    1
     6     6     7    1
     7     7     8   ar
     8     8     9   ar
     9     9    10   ar
    10    10    11    1
    11    10    12   ar
    12    12    13   ar
    13    13    14    1
    14     5    15   ar
    15    15    16   ar
    16    16    17    1
    17    17    18    1
    18    16    19   ar
    19    19     3   ar
    20    13     7   ar
    21     1    20    1
    22     1    21    1
    23     1    22    1
    24     4    23    1
    25     6    24    1
    26     6    25    1
    27     8    26    1
    28    11    27    1
    29    11    28    1
    30    14    29    1
    31    14    30    1
    32    15    31    1
    33    18    32    1
    34    18    33    1
    35    18    34    1
    36    19    35    1
