@<TRIPOS>MOLECULE
*****
 55 58 0 0 0
SMALL
GASTEIGER

@<TRIPOS>ATOM
      1 C           2.7381   -1.7504    5.2018 C.3     1  UNL1       -0.0307
      2 C           1.9916   -1.5757    3.8732 C.3     1  UNL1        0.0870
      3 O           2.9460   -1.3933    2.8237 O.3     1  UNL1       -0.4886
      4 C           2.5893   -1.2060    1.5109 C.ar    1  UNL1        0.1623
      5 C           1.2505   -1.1878    1.1147 C.ar    1  UNL1       -0.0086
      6 C           0.8862   -1.0012   -0.1917 C.ar    1  UNL1        0.0143
      7 C          -0.5079   -0.9756   -0.6385 C.3     1  UNL1        0.2647
      8 C          -1.2808    0.1878   -0.1371 C.ar    1  UNL1        0.0112
      9 C          -1.8198    0.2262    1.1196 C.ar    1  UNL1       -0.0540
     10 C          -2.5431    1.3332    1.5794 C.ar    1  UNL1       -0.0608
     11 C          -2.7324    2.4257    0.7686 C.ar    1  UNL1       -0.0540
     12 C          -2.2016    2.4187   -0.5038 C.ar    1  UNL1       -0.0160
     13 C          -2.3806    3.5773   -1.4072 C.ar    1  UNL1        0.0002
     14 C          -2.4663    4.8714   -0.9421 C.ar    1  UNL1       -0.0512
     15 C          -2.6309    5.9516   -1.7887 C.ar    1  UNL1       -0.0430
     16 C          -2.7121    5.7241   -3.1499 C.ar    1  UNL1        0.0276
     17 N          -2.6272    4.4532   -3.5965 N.ar    1  UNL1       -0.2627
     18 C          -2.4676    3.4058   -2.7722 C.ar    1  UNL1        0.0352
     19 C          -1.4943    1.3136   -0.9289 C.ar    1  UNL1       -0.0463
     20 N          -0.5959   -0.9871   -2.1014 N.2     1  UNL1       -0.0891
     21 C          -1.2514   -2.0038   -2.5273 C.2     1  UNL1        0.3731
     22 N          -1.5158   -2.3039   -3.9021 N.pl3   1  UNL1       -0.2512
     23 N          -1.6769   -2.8087   -1.4598 N.am    1  UNL1       -0.1614
     24 C          -2.4380   -4.0366   -1.5415 C.3     1  UNL1        0.0573
     25 C          -1.2291   -2.2132   -0.2721 C.2     1  UNL1        0.3303
     26 O          -1.3945   -2.6305    0.8937 O.2     1  UNL1       -0.2520
     27 C           1.8931   -0.8304   -1.1130 C.ar    1  UNL1       -0.0503
     28 C           3.2351   -0.8452   -0.7392 C.ar    1  UNL1       -0.0159
     29 C           3.5865   -1.0337    0.5783 C.ar    1  UNL1        0.1615
     30 O           4.9375   -1.0453    0.9373 O.3     1  UNL1       -0.4915
     31 C           5.9756   -0.8717    0.0241 C.3     1  UNL1        0.0790
     32 H           3.2741   -0.8072    5.4566 H       1  UNL1        0.0262
     33 H           1.9792   -1.9323    5.9880 H       1  UNL1        0.0262
     34 H           3.4505   -2.5852    5.1492 H       1  UNL1        0.0262
     35 H           1.3052   -0.7170    3.9199 H       1  UNL1        0.0694
     36 H           1.4088   -2.5031    3.6954 H       1  UNL1        0.0694
     37 H           0.5127   -1.3295    1.8769 H       1  UNL1        0.0659
     38 H          -1.7327   -0.5689    1.8287 H       1  UNL1        0.0622
     39 H          -2.9685    1.3599    2.5744 H       1  UNL1        0.0618
     40 H          -3.2886    3.3056    1.0877 H       1  UNL1        0.0624
     41 H          -2.4036    5.0436    0.1208 H       1  UNL1        0.0625
     42 H          -2.6904    6.9453   -1.3565 H       1  UNL1        0.0633
     43 H          -2.8413    6.5721   -3.8104 H       1  UNL1        0.0829
     44 H          -2.4085    2.4235   -3.1928 H       1  UNL1        0.0836
     45 H          -1.0743    1.2967   -1.9255 H       1  UNL1        0.0628
     46 H          -0.7918   -2.0607   -4.5970 H       1  UNL1        0.2412
     47 H          -2.4101   -2.7532   -4.1950 H       1  UNL1        0.2412
     48 H          -3.4647   -3.8693   -1.9318 H       1  UNL1        0.0602
     49 H          -2.5562   -4.4977   -0.5377 H       1  UNL1        0.0602
     50 H          -1.9052   -4.7407   -2.2222 H       1  UNL1        0.0602
     51 H           1.6306   -0.6817   -2.1509 H       1  UNL1        0.0623
     52 H           4.0150   -0.7084   -1.5016 H       1  UNL1        0.0655
     53 H           6.2311   -1.7904   -0.5044 H       1  UNL1        0.0660
     54 H           5.7661   -0.0528   -0.7176 H       1  UNL1        0.0660
     55 H           6.8992   -0.5369    0.5600 H       1  UNL1        0.0660
@<TRIPOS>BOND
     1     1     2    1
     2     2     3    1
     3     3     4    1
     4     4     5   ar
     5     5     6   ar
     6     6     7    1
     7     7     8    1
     8     8     9   ar
     9     9    10   ar
    10    10    11   ar
    11    11    12   ar
    12    12    13    1
    13    13    14   ar
    14    14    15   ar
    15    15    16   ar
    16    16    17   ar
    17    17    18   ar
    18    12    19   ar
    19     7    20    1
    20    20    21    2
    21    21    22    1
    22    21    23    1
    23    23    24    1
    24    23    25   am
    25    25    26    2
    26     6    27   ar
    27    27    28   ar
    28    28    29   ar
    29    29    30    1
    30    30    31    1
    31    29     4   ar
    32    25     7    1
    33    19     8   ar
    34    18    13   ar
    35     1    32    1
    36     1    33    1
    37     1    34    1
    38     2    35    1
    39     2    36    1
    40     5    37    1
    41     9    38    1
    42    10    39    1
    43    11    40    1
    44    14    41    1
    45    15    42    1
    46    16    43    1
    47    18    44    1
    48    19    45    1
    49    22    46    1
    50    22    47    1
    51    24    48    1
    52    24    49    1
    53    24    50    1
    54    27    51    1
    55    28    52    1
    56    31    53    1
    57    31    54    1
    58    31    55    1
