@<TRIPOS>MOLECULE
*****
 34 33 0 0 0
SMALL
GASTEIGER

@<TRIPOS>ATOM
      1 O           2.3425    1.1278   -1.7402 O.2     1  UNL1       -0.2710
      2 C           1.9984    0.6915   -0.6015 C.2     1  UNL1        0.2643
      3 C           3.0155    0.0539    0.2471 C.3     1  UNL1        0.1372
      4 O           4.2308    0.0482   -0.3923 O.3     1  UNL1       -0.2773
      5 P           5.4389   -0.6761    0.5396 P.3     1  UNL1        0.4728
      6 O           6.3579    0.3736    1.1078 O.2     1  UNL1       -0.2275
      7 O           4.6905   -1.4974    1.7997 O.3     1  UNL1       -0.3026
      8 O           6.3218   -1.7106   -0.4609 O.3     1  UNL1       -0.3026
      9 N           0.6402    0.8422   -0.2023 N.am    1  UNL1       -0.1819
     10 O           0.2384    0.3916    0.9986 O.3     1  UNL1       -0.2924
     11 C          -0.3324    1.4750   -1.0639 C.3     1  UNL1        0.0418
     12 C          -1.0153    0.4705   -1.9687 C.3     1  UNL1       -0.0327
     13 C          -1.7454   -0.5909   -1.1927 C.3     1  UNL1       -0.0274
     14 C          -2.8216   -0.0280   -0.3015 C.3     1  UNL1        0.0591
     15 O          -3.4103   -1.1300    0.3535 O.3     1  UNL1       -0.2868
     16 P          -4.6434   -0.6262    1.3913 P.3     1  UNL1        0.4724
     17 O          -4.0501   -0.5418    2.7793 O.2     1  UNL1       -0.2275
     18 O          -5.9291   -1.7029    1.4389 O.3     1  UNL1       -0.3026
     19 O          -5.2515    0.8872    0.9047 O.3     1  UNL1       -0.3026
     20 H           3.1468    0.6155    1.2144 H       1  UNL1        0.0663
     21 H           2.6869   -0.9648    0.5575 H       1  UNL1        0.0663
     22 H           5.1443   -1.2940    2.6459 H       1  UNL1        0.2220
     23 H           6.6730   -1.1473   -1.2035 H       1  UNL1        0.2220
     24 H           0.7970    0.8324    1.6865 H       1  UNL1        0.2417
     25 H          -1.0483    2.0736   -0.4710 H       1  UNL1        0.0489
     26 H           0.2157    2.1756   -1.7278 H       1  UNL1        0.0489
     27 H          -1.6901    0.9700   -2.6641 H       1  UNL1        0.0282
     28 H          -0.2109   -0.0402   -2.5400 H       1  UNL1        0.0282
     29 H          -1.0824   -1.2123   -0.5824 H       1  UNL1        0.0288
     30 H          -2.2493   -1.2482   -1.9311 H       1  UNL1        0.0288
     31 H          -3.6407    0.4459   -0.9095 H       1  UNL1        0.0565
     32 H          -2.4487    0.6497    0.4772 H       1  UNL1        0.0565
     33 H          -6.1923   -2.0499    0.5535 H       1  UNL1        0.2220
     34 H          -6.1768    0.9490    1.2577 H       1  UNL1        0.2220
@<TRIPOS>BOND
     1     1     2    2
     2     2     3    1
     3     3     4    1
     4     4     5    1
     5     5     6    2
     6     5     7    1
     7     5     8    1
     8     2     9   am
     9     9    10    1
    10     9    11    1
    11    11    12    1
    12    12    13    1
    13    13    14    1
    14    14    15    1
    15    15    16    1
    16    16    17    2
    17    16    18    1
    18    16    19    1
    19     3    20    1
    20     3    21    1
    21     7    22    1
    22     8    23    1
    23    10    24    1
    24    11    25    1
    25    11    26    1
    26    12    27    1
    27    12    28    1
    28    13    29    1
    29    13    30    1
    30    14    31    1
    31    14    32    1
    32    18    33    1
    33    19    34    1
