
     RDKit          3D

 34 33  0  0  0  0  0  0  0  0999 V2000
    2.3425    1.1278   -1.7402 O   0  0  0  0  0  0  0  0  0  0  0  0
    1.9984    0.6915   -0.6015 C   0  0  0  0  0  0  0  0  0  0  0  0
    3.0155    0.0539    0.2471 C   0  0  0  0  0  0  0  0  0  0  0  0
    4.2308    0.0482   -0.3923 O   0  0  0  0  0  0  0  0  0  0  0  0
    5.4389   -0.6761    0.5396 P   0  0  0  0  0  5  0  0  0  0  0  0
    6.3579    0.3736    1.1078 O   0  0  0  0  0  0  0  0  0  0  0  0
    4.6905   -1.4974    1.7997 O   0  0  0  0  0  0  0  0  0  0  0  0
    6.3218   -1.7106   -0.4609 O   0  0  0  0  0  0  0  0  0  0  0  0
    0.6402    0.8422   -0.2023 N   0  0  0  0  0  0  0  0  0  0  0  0
    0.2384    0.3916    0.9986 O   0  0  0  0  0  0  0  0  0  0  0  0
   -0.3324    1.4750   -1.0639 C   0  0  0  0  0  0  0  0  0  0  0  0
   -1.0153    0.4705   -1.9687 C   0  0  0  0  0  0  0  0  0  0  0  0
   -1.7454   -0.5909   -1.1927 C   0  0  0  0  0  0  0  0  0  0  0  0
   -2.8216   -0.0280   -0.3015 C   0  0  0  0  0  0  0  0  0  0  0  0
   -3.4103   -1.1300    0.3535 O   0  0  0  0  0  0  0  0  0  0  0  0
   -4.6434   -0.6262    1.3913 P   0  0  0  0  0  5  0  0  0  0  0  0
   -4.0501   -0.5418    2.7793 O   0  0  0  0  0  0  0  0  0  0  0  0
   -5.9291   -1.7029    1.4389 O   0  0  0  0  0  0  0  0  0  0  0  0
   -5.2515    0.8872    0.9047 O   0  0  0  0  0  0  0  0  0  0  0  0
    3.1468    0.6155    1.2144 H   0  0  0  0  0  0  0  0  0  0  0  0
    2.6869   -0.9648    0.5575 H   0  0  0  0  0  0  0  0  0  0  0  0
    5.1443   -1.2940    2.6459 H   0  0  0  0  0  0  0  0  0  0  0  0
    6.6730   -1.1473   -1.2035 H   0  0  0  0  0  0  0  0  0  0  0  0
    0.7970    0.8324    1.6865 H   0  0  0  0  0  0  0  0  0  0  0  0
   -1.0483    2.0736   -0.4710 H   0  0  0  0  0  0  0  0  0  0  0  0
    0.2157    2.1756   -1.7278 H   0  0  0  0  0  0  0  0  0  0  0  0
   -1.6901    0.9700   -2.6641 H   0  0  0  0  0  0  0  0  0  0  0  0
   -0.2109   -0.0402   -2.5400 H   0  0  0  0  0  0  0  0  0  0  0  0
   -1.0824   -1.2123   -0.5824 H   0  0  0  0  0  0  0  0  0  0  0  0
   -2.2493   -1.2482   -1.9311 H   0  0  0  0  0  0  0  0  0  0  0  0
   -3.6407    0.4459   -0.9095 H   0  0  0  0  0  0  0  0  0  0  0  0
   -2.4487    0.6497    0.4772 H   0  0  0  0  0  0  0  0  0  0  0  0
   -6.1923   -2.0499    0.5535 H   0  0  0  0  0  0  0  0  0  0  0  0
   -6.1768    0.9490    1.2577 H   0  0  0  0  0  0  0  0  0  0  0  0
  1  2  2  0
  2  3  1  0
  3  4  1  0
  4  5  1  0
  5  6  2  0
  5  7  1  0
  5  8  1  0
  2  9  1  0
  9 10  1  0
  9 11  1  0
 11 12  1  0
 12 13  1  0
 13 14  1  0
 14 15  1  0
 15 16  1  0
 16 17  2  0
 16 18  1  0
 16 19  1  0
  3 20  1  0
  3 21  1  0
  7 22  1  0
  8 23  1  0
 10 24  1  0
 11 25  1  0
 11 26  1  0
 12 27  1  0
 12 28  1  0
 13 29  1  0
 13 30  1  0
 14 31  1  0
 14 32  1  0
 18 33  1  0
 19 34  1  0
M  END
$$$$
