@<TRIPOS>MOLECULE
*****
 48 51 0 0 0
SMALL
GASTEIGER

@<TRIPOS>ATOM
      1 N          -6.0472   -1.9703   -0.9157 N.pl3   1  UNL1       -0.3134
      2 C          -4.9797   -1.1422   -0.4187 C.2     1  UNL1        0.2763
      3 N          -4.8541    0.0772   -0.7226 N.2     1  UNL1       -0.2225
      4 C          -3.8297    0.9720   -0.2797 C.3     1  UNL1        0.1285
      5 C          -4.4201    2.3378   -0.0752 C.3     1  UNL1        0.1199
      6 F          -4.9908    2.9153   -1.1680 F       1  UNL1       -0.2462
      7 C          -2.7659    0.9753   -1.2963 C.ar    1  UNL1        0.0213
      8 C          -1.4486    0.6517   -0.9896 C.ar    1  UNL1       -0.0321
      9 C          -0.4071    0.6569   -1.8708 C.ar    1  UNL1        0.0356
     10 N           0.9294    0.3302   -1.5659 N.am    1  UNL1       -0.2802
     11 C           1.4663   -0.0590   -0.3287 C.2     1  UNL1        0.2681
     12 O           0.7211   -0.1446    0.6578 O.2     1  UNL1       -0.2681
     13 C           2.9019   -0.3732   -0.1599 C.ar    1  UNL1        0.1439
     14 C           3.3933   -0.7523    1.0706 C.ar    1  UNL1        0.0619
     15 N           4.7002   -1.0369    1.2180 N.ar    1  UNL1       -0.2177
     16 C           5.6011   -0.9806    0.2291 C.ar    1  UNL1        0.2337
     17 O           6.9326   -1.2628    0.3324 O.3     1  UNL1       -0.4663
     18 C           7.5836   -1.6445    1.4851 C.3     1  UNL1        0.1858
     19 C           7.5449   -0.5824    2.5373 C.3     1  UNL1        0.4236
     20 F           8.1718    0.5410    1.9695 F       1  UNL1       -0.1671
     21 F           8.3286   -0.9539    3.6402 F       1  UNL1       -0.1671
     22 F           6.3092   -0.2353    2.9453 F       1  UNL1       -0.1671
     23 C           5.0828   -0.5918   -1.0209 C.ar    1  UNL1        0.0899
     24 N           3.7817   -0.3077   -1.1711 N.ar    1  UNL1       -0.2435
     25 C          -0.7479    1.0260   -3.1793 C.ar    1  UNL1       -0.0193
     26 C          -2.0232    1.3580   -3.5594 C.ar    1  UNL1        0.0782
     27 CL         -2.3893    1.8150   -5.2248 Cl      1  UNL1       -0.0805
     28 C          -3.0415    1.3276   -2.5911 C.ar    1  UNL1        0.1473
     29 F          -4.2655    1.6385   -3.0607 F       1  UNL1       -0.2036
     30 C          -3.2751    0.5401    1.0770 C.3     1  UNL1        0.0315
     31 C          -4.3543    0.2108    2.0827 C.3     1  UNL1       -0.0065
     32 C          -3.5022   -0.8361    1.4603 C.3     1  UNL1        0.1090
     33 O          -4.0143   -1.6811    0.4478 O.2     1  UNL1       -0.4622
     34 H          -6.9561   -1.9562   -0.4262 H       1  UNL1        0.1466
     35 H          -5.9351   -2.5789   -1.7463 H       1  UNL1        0.1466
     36 H          -3.6842    3.0282    0.4274 H       1  UNL1        0.0643
     37 H          -5.2533    2.2833    0.6971 H       1  UNL1        0.0643
     38 H          -1.2796    0.3814    0.0272 H       1  UNL1        0.0640
     39 H           1.6331    0.3807   -2.3661 H       1  UNL1        0.1552
     40 H           2.6843   -0.8079    1.8977 H       1  UNL1        0.0854
     41 H           8.6238   -2.0120    1.2980 H       1  UNL1        0.0788
     42 H           7.0300   -2.5369    1.9184 H       1  UNL1        0.0788
     43 H           5.7987   -0.5405   -1.8353 H       1  UNL1        0.0884
     44 H           0.0556    1.0432   -3.9139 H       1  UNL1        0.0652
     45 H          -2.4530    1.1046    1.5041 H       1  UNL1        0.0365
     46 H          -5.4099    0.2877    1.7889 H       1  UNL1        0.0306
     47 H          -4.1873    0.4418    3.1589 H       1  UNL1        0.0306
     48 H          -2.7589   -1.3374    2.1117 H       1  UNL1        0.0737
@<TRIPOS>BOND
     1     1     2    1
     2     2     3    2
     3     3     4    1
     4     4     5    1
     5     5     6    1
     6     4     7    1
     7     7     8   ar
     8     8     9   ar
     9     9    10    1
    10    10    11   am
    11    11    12    2
    12    11    13    1
    13    13    14   ar
    14    14    15   ar
    15    15    16   ar
    16    16    17    1
    17    17    18    1
    18    18    19    1
    19    19    20    1
    20    19    21    1
    21    19    22    1
    22    16    23   ar
    23    23    24   ar
    24     9    25   ar
    25    25    26   ar
    26    26    27    1
    27    26    28   ar
    28    28    29    1
    29     4    30    1
    30    30    31    1
    31    31    32    1
    32    32    33    1
    33    33     2    1
    34    28     7   ar
    35    32    30    1
    36    24    13   ar
    37     1    34    1
    38     1    35    1
    39     5    36    1
    40     5    37    1
    41     8    38    1
    42    10    39    1
    43    14    40    1
    44    18    41    1
    45    18    42    1
    46    23    43    1
    47    25    44    1
    48    30    45    1
    49    31    46    1
    50    31    47    1
    51    32    48    1
