
     RDKit          3D

 64 67  0  0  0  0  0  0  0  0999 V2000
   10.2785   -1.7481   -1.7057 C   0  0  0  0  0  0  0  0  0  0  0  0
    9.5576   -1.4475   -0.6611 C   0  0  0  0  0  0  0  0  0  0  0  0
    8.3056   -0.7089   -0.8490 C   0  0  0  0  0  0  0  0  0  0  0  0
    7.9876   -0.3984   -2.0119 O   0  0  0  0  0  0  0  0  0  0  0  0
    7.5500   -0.3994    0.2796 N   0  0  0  0  0  0  0  0  0  0  0  0
    6.3301    0.3068    0.2345 C   0  0  0  0  0  0  0  0  0  0  0  0
    5.6416    0.5543    1.4378 C   0  0  0  0  0  0  0  0  0  0  0  0
    4.4634    1.2272    1.4905 C   0  0  0  0  0  0  0  0  0  0  0  0
    3.8819    1.7058    0.3395 C   0  0  0  0  0  0  0  0  0  0  0  0
    2.3470    2.5809    0.4152 S   0  0  0  0  0  6  0  0  0  0  0  0
    2.3263    3.2714    1.7618 O   0  0  0  0  0  0  0  0  0  0  0  0
    2.3946    3.6251   -0.6338 O   0  0  0  0  0  0  0  0  0  0  0  0
    1.0921    1.4645    0.2361 N   0  0  0  0  0  0  0  0  0  0  0  0
    0.9837    0.4502    1.2119 C   0  0  0  0  0  0  0  0  0  0  0  0
   -0.4366   -0.1322    1.2935 C   0  0  0  0  0  0  0  0  0  0  0  0
   -0.9407   -0.3128   -0.0293 N   0  0  0  0  0  0  0  0  0  0  0  0
   -2.2525   -0.5553   -0.4505 C   0  0  0  0  0  0  0  0  0  0  0  0
   -2.3893   -0.6195   -1.7435 O   0  0  0  0  0  0  0  0  0  0  0  0
   -3.4054   -0.7324    0.2803 N   0  0  0  0  0  0  0  0  0  0  0  0
   -3.4805   -0.7799    1.7369 C   0  0  0  0  0  0  0  0  0  0  0  0
   -4.2155    0.4843    2.1642 C   0  0  0  0  0  0  0  0  0  0  0  0
   -5.5939    0.4933    1.5244 C   0  0  0  0  0  0  0  0  0  0  0  0
   -5.5007    0.4001    0.0228 C   0  0  0  0  0  0  0  0  0  0  0  0
   -6.9123    0.3021   -0.5331 C   0  0  0  0  0  0  0  0  0  0  0  0
   -7.1711   -1.0812   -1.0274 C   0  0  0  0  0  0  0  0  0  0  0  0
   -6.2298   -1.4473   -2.1336 C   0  0  0  0  0  0  0  0  0  0  0  0
   -4.7673   -1.1562   -1.7783 C   0  0  0  0  0  0  0  0  0  0  0  0
   -4.7326   -0.8612   -0.3310 C   0  0  0  0  0  0  0  0  0  0  0  0
    0.1059   -0.2408   -1.0913 C   0  0  0  0  0  0  0  0  0  0  0  0
    0.6754    1.1515   -1.0749 C   0  0  0  0  0  0  0  0  0  0  0  0
    4.5110    1.4908   -0.8487 C   0  0  0  0  0  0  0  0  0  0  0  0
    5.7218    0.7967   -0.8830 C   0  0  0  0  0  0  0  0  0  0  0  0
   11.1974   -2.2879   -1.5867 H   0  0  0  0  0  0  0  0  0  0  0  0
   10.0161   -1.4878   -2.7275 H   0  0  0  0  0  0  0  0  0  0  0  0
    9.8803   -1.7378    0.3187 H   0  0  0  0  0  0  0  0  0  0  0  0
    7.9045   -0.7077    1.2191 H   0  0  0  0  0  0  0  0  0  0  0  0
    6.0856    0.1846    2.3528 H   0  0  0  0  0  0  0  0  0  0  0  0
    3.9381    1.4110    2.4474 H   0  0  0  0  0  0  0  0  0  0  0  0
    1.2873    0.7892    2.2385 H   0  0  0  0  0  0  0  0  0  0  0  0
    1.6549   -0.3908    0.9800 H   0  0  0  0  0  0  0  0  0  0  0  0
   -0.3272   -1.0583    1.8580 H   0  0  0  0  0  0  0  0  0  0  0  0
   -1.0198    0.6587    1.8261 H   0  0  0  0  0  0  0  0  0  0  0  0
   -4.2106   -1.6146    1.9595 H   0  0  0  0  0  0  0  0  0  0  0  0
   -2.5632   -0.8954    2.2619 H   0  0  0  0  0  0  0  0  0  0  0  0
   -4.3688    0.4242    3.2507 H   0  0  0  0  0  0  0  0  0  0  0  0
   -3.6667    1.3949    1.9037 H   0  0  0  0  0  0  0  0  0  0  0  0
   -6.0689    1.4571    1.8351 H   0  0  0  0  0  0  0  0  0  0  0  0
   -6.1984   -0.3407    1.9207 H   0  0  0  0  0  0  0  0  0  0  0  0
   -4.9971    1.2948   -0.3490 H   0  0  0  0  0  0  0  0  0  0  0  0
   -7.6620    0.5323    0.2583 H   0  0  0  0  0  0  0  0  0  0  0  0
   -7.0590    1.0202   -1.3362 H   0  0  0  0  0  0  0  0  0  0  0  0
   -8.1994   -1.0615   -1.4967 H   0  0  0  0  0  0  0  0  0  0  0  0
   -7.2358   -1.8346   -0.2142 H   0  0  0  0  0  0  0  0  0  0  0  0
   -6.5481   -0.9142   -3.0478 H   0  0  0  0  0  0  0  0  0  0  0  0
   -6.3627   -2.5309   -2.3501 H   0  0  0  0  0  0  0  0  0  0  0  0
   -4.1864   -2.0617   -2.0196 H   0  0  0  0  0  0  0  0  0  0  0  0
   -4.5031   -0.2969   -2.4370 H   0  0  0  0  0  0  0  0  0  0  0  0
   -5.2416   -1.7191    0.1899 H   0  0  0  0  0  0  0  0  0  0  0  0
    0.8873   -0.9471   -0.7736 H   0  0  0  0  0  0  0  0  0  0  0  0
   -0.3232   -0.5133   -2.0770 H   0  0  0  0  0  0  0  0  0  0  0  0
   -0.0247    1.8932   -1.5286 H   0  0  0  0  0  0  0  0  0  0  0  0
    1.5816    1.1216   -1.7427 H   0  0  0  0  0  0  0  0  0  0  0  0
    4.0447    1.8715   -1.7432 H   0  0  0  0  0  0  0  0  0  0  0  0
    6.1629    0.6634   -1.8613 H   0  0  0  0  0  0  0  0  0  0  0  0
  1  2  2  3
  2  3  1  0
  3  4  2  0
  3  5  1  0
  5  6  1  0
  6  7  2  0
  7  8  1  0
  8  9  2  0
  9 10  1  0
 10 11  2  0
 10 12  2  0
 10 13  1  0
 13 14  1  0
 14 15  1  0
 15 16  1  0
 16 17  1  0
 17 18  2  0
 17 19  1  0
 19 20  1  0
 20 21  1  0
 21 22  1  0
 22 23  1  0
 23 24  1  0
 24 25  1  0
 25 26  1  0
 26 27  1  0
 27 28  1  0
 16 29  1  0
 29 30  1  0
  9 31  1  0
 31 32  2  0
 32  6  1  0
 30 13  1  0
 28 19  1  0
 28 23  1  0
  1 33  1  0
  1 34  1  0
  2 35  1  0
  5 36  1  0
  7 37  1  0
  8 38  1  0
 14 39  1  0
 14 40  1  0
 15 41  1  0
 15 42  1  0
 20 43  1  0
 20 44  1  0
 21 45  1  0
 21 46  1  0
 22 47  1  0
 22 48  1  0
 23 49  1  0
 24 50  1  0
 24 51  1  0
 25 52  1  0
 25 53  1  0
 26 54  1  0
 26 55  1  0
 27 56  1  0
 27 57  1  0
 28 58  1  0
 29 59  1  0
 29 60  1  0
 30 61  1  0
 30 62  1  0
 31 63  1  0
 32 64  1  0
M  END
$$$$
