@<TRIPOS>MOLECULE
*****
 64 67 0 0 0
SMALL
GASTEIGER

@<TRIPOS>ATOM
      1 C          10.2785   -1.7481   -1.7057 C.2     1  UNL1       -0.0938
      2 C           9.5576   -1.4475   -0.6611 C.2     1  UNL1       -0.0066
      3 C           8.3056   -0.7089   -0.8490 C.2     1  UNL1        0.2405
      4 O           7.9876   -0.3984   -2.0119 O.2     1  UNL1       -0.2705
      5 N           7.5500   -0.3994    0.2796 N.am    1  UNL1       -0.2820
      6 C           6.3301    0.3068    0.2345 C.ar    1  UNL1        0.0338
      7 C           5.6416    0.5543    1.4378 C.ar    1  UNL1       -0.0386
      8 C           4.4634    1.2272    1.4905 C.ar    1  UNL1       -0.0336
      9 C           3.8819    1.7058    0.3395 C.ar    1  UNL1        0.1056
     10 S           2.3470    2.5809    0.4152 S.O2    1  UNL1        0.0609
     11 O           2.3263    3.2714    1.7618 O.2     1  UNL1       -0.1528
     12 O           2.3946    3.6251   -0.6338 O.2     1  UNL1       -0.1528
     13 N           1.0921    1.4645    0.2361 N.3     1  UNL1       -0.1736
     14 C           0.9837    0.4502    1.2119 C.3     1  UNL1        0.0364
     15 C          -0.4366   -0.1322    1.2935 C.3     1  UNL1        0.0306
     16 N          -0.9407   -0.3128   -0.0293 N.am    1  UNL1       -0.2829
     17 C          -2.2525   -0.5553   -0.4505 C.2     1  UNL1        0.3051
     18 O          -2.3893   -0.6195   -1.7435 O.2     1  UNL1       -0.2524
     19 N          -3.4054   -0.7324    0.2803 N.am    1  UNL1       -0.2822
     20 C          -3.4805   -0.7799    1.7369 C.3     1  UNL1        0.0165
     21 C          -4.2155    0.4843    2.1642 C.3     1  UNL1       -0.0368
     22 C          -5.5939    0.4933    1.5244 C.3     1  UNL1       -0.0471
     23 C          -5.5007    0.4001    0.0228 C.3     1  UNL1       -0.0223
     24 C          -6.9123    0.3021   -0.5331 C.3     1  UNL1       -0.0485
     25 C          -7.1711   -1.0812   -1.0274 C.3     1  UNL1       -0.0527
     26 C          -6.2298   -1.4473   -2.1336 C.3     1  UNL1       -0.0514
     27 C          -4.7673   -1.1562   -1.7783 C.3     1  UNL1       -0.0340
     28 C          -4.7326   -0.8612   -0.3310 C.3     1  UNL1        0.0303
     29 C           0.1059   -0.2408   -1.0913 C.3     1  UNL1        0.0306
     30 C           0.6754    1.1515   -1.0749 C.3     1  UNL1        0.0364
     31 C           4.5110    1.4908   -0.8487 C.ar    1  UNL1       -0.0336
     32 C           5.7218    0.7967   -0.8830 C.ar    1  UNL1       -0.0386
     33 H          11.1974   -2.2879   -1.5867 H       1  UNL1        0.0536
     34 H          10.0161   -1.4878   -2.7275 H       1  UNL1        0.0536
     35 H           9.8803   -1.7378    0.3187 H       1  UNL1        0.0663
     36 H           7.9045   -0.7077    1.2191 H       1  UNL1        0.1551
     37 H           6.0856    0.1846    2.3528 H       1  UNL1        0.0637
     38 H           3.9381    1.4110    2.4474 H       1  UNL1        0.0638
     39 H           1.2873    0.7892    2.2385 H       1  UNL1        0.0459
     40 H           1.6549   -0.3908    0.9800 H       1  UNL1        0.0459
     41 H          -0.3272   -1.0583    1.8580 H       1  UNL1        0.0478
     42 H          -1.0198    0.6587    1.8261 H       1  UNL1        0.0478
     43 H          -4.2106   -1.6146    1.9595 H       1  UNL1        0.0465
     44 H          -2.5632   -0.8954    2.2619 H       1  UNL1        0.0465
     45 H          -4.3688    0.4242    3.2507 H       1  UNL1        0.0280
     46 H          -3.6667    1.3949    1.9037 H       1  UNL1        0.0280
     47 H          -6.0689    1.4571    1.8351 H       1  UNL1        0.0269
     48 H          -6.1984   -0.3407    1.9207 H       1  UNL1        0.0269
     49 H          -4.9971    1.2948   -0.3490 H       1  UNL1        0.0319
     50 H          -7.6620    0.5323    0.2583 H       1  UNL1        0.0269
     51 H          -7.0590    1.0202   -1.3362 H       1  UNL1        0.0269
     52 H          -8.1994   -1.0615   -1.4967 H       1  UNL1        0.0265
     53 H          -7.2358   -1.8346   -0.2142 H       1  UNL1        0.0265
     54 H          -6.5481   -0.9142   -3.0478 H       1  UNL1        0.0266
     55 H          -6.3627   -2.5309   -2.3501 H       1  UNL1        0.0266
     56 H          -4.1864   -2.0617   -2.0196 H       1  UNL1        0.0283
     57 H          -4.5031   -0.2969   -2.4370 H       1  UNL1        0.0283
     58 H          -5.2416   -1.7191    0.1899 H       1  UNL1        0.0504
     59 H           0.8873   -0.9471   -0.7736 H       1  UNL1        0.0478
     60 H          -0.3232   -0.5133   -2.0770 H       1  UNL1        0.0478
     61 H          -0.0247    1.8932   -1.5286 H       1  UNL1        0.0459
     62 H           1.5816    1.1216   -1.7427 H       1  UNL1        0.0459
     63 H           4.0447    1.8715   -1.7432 H       1  UNL1        0.0638
     64 H           6.1629    0.6634   -1.8613 H       1  UNL1        0.0637
@<TRIPOS>BOND
     1     1     2    2
     2     2     3    1
     3     3     4    2
     4     3     5   am
     5     5     6    1
     6     6     7   ar
     7     7     8   ar
     8     8     9   ar
     9     9    10    1
    10    10    11    2
    11    10    12    2
    12    10    13    1
    13    13    14    1
    14    14    15    1
    15    15    16    1
    16    16    17   am
    17    17    18    2
    18    17    19   am
    19    19    20    1
    20    20    21    1
    21    21    22    1
    22    22    23    1
    23    23    24    1
    24    24    25    1
    25    25    26    1
    26    26    27    1
    27    27    28    1
    28    16    29    1
    29    29    30    1
    30     9    31   ar
    31    31    32   ar
    32    32     6   ar
    33    30    13    1
    34    28    19    1
    35    28    23    1
    36     1    33    1
    37     1    34    1
    38     2    35    1
    39     5    36    1
    40     7    37    1
    41     8    38    1
    42    14    39    1
    43    14    40    1
    44    15    41    1
    45    15    42    1
    46    20    43    1
    47    20    44    1
    48    21    45    1
    49    21    46    1
    50    22    47    1
    51    22    48    1
    52    23    49    1
    53    24    50    1
    54    24    51    1
    55    25    52    1
    56    25    53    1
    57    26    54    1
    58    26    55    1
    59    27    56    1
    60    27    57    1
    61    28    58    1
    62    29    59    1
    63    29    60    1
    64    30    61    1
    65    30    62    1
    66    31    63    1
    67    32    64    1
