
     RDKit          3D

 41 43  0  0  0  0  0  0  0  0999 V2000
    3.3070   -2.2044   -2.0905 C   0  0  0  0  0  0  0  0  0  0  0  0
    3.3359   -0.9961   -1.1947 C   0  0  0  0  0  0  0  0  0  0  0  0
    2.9878    0.2451   -1.9674 C   0  0  0  0  0  0  0  0  0  0  0  0
    2.4511   -1.1367   -0.0216 C   0  0  0  0  0  0  0  0  0  0  0  0
    1.1057   -0.7380   -0.0195 C   0  0  0  0  0  0  0  0  0  0  0  0
    0.3119   -0.8855    1.0979 C   0  0  0  0  0  0  0  0  0  0  0  0
   -1.0750   -0.5222    1.1208 C   0  0  0  0  0  0  0  0  0  0  0  0
   -1.7686   -0.9388    2.1518 O   0  0  0  0  0  0  0  0  0  0  0  0
   -1.8448    0.2187    0.2186 N   0  0  0  0  0  0  0  0  0  0  0  0
   -1.4387    0.8643   -0.9954 C   0  0  0  0  0  0  0  0  0  0  0  0
   -2.4709    1.8502   -1.5356 C   0  0  0  0  0  0  0  0  0  0  0  0
   -3.2102    2.4981   -0.4526 C   0  0  0  0  0  0  0  0  0  0  0  0
   -3.7082    4.0735   -0.1787 S   0  0  0  0  0  0  0  0  0  0  0  0
   -4.5312    3.8085    1.4494 C   0  0  0  0  0  0  0  0  0  0  0  0
   -4.3120    2.4546    1.5988 C   0  0  0  0  0  0  0  0  0  0  0  0
   -3.6532    1.8023    0.6496 C   0  0  0  0  0  0  0  0  0  0  0  0
   -3.2807    0.3340    0.5553 C   0  0  0  0  0  0  0  0  0  0  0  0
    0.8594   -1.4497    2.2651 C   0  0  0  0  0  0  0  0  0  0  0  0
    0.0422   -1.5838    3.3631 O   0  0  0  0  0  0  0  0  0  0  0  0
    2.1759   -1.8398    2.2612 C   0  0  0  0  0  0  0  0  0  0  0  0
    2.9623   -1.6850    1.1316 C   0  0  0  0  0  0  0  0  0  0  0  0
    4.2755   -2.0845    1.1594 O   0  0  0  0  0  0  0  0  0  0  0  0
    2.4047   -2.2177   -2.7052 H   0  0  0  0  0  0  0  0  0  0  0  0
    4.2141   -2.1687   -2.7208 H   0  0  0  0  0  0  0  0  0  0  0  0
    3.4142   -3.0957   -1.4365 H   0  0  0  0  0  0  0  0  0  0  0  0
    4.3791   -0.8844   -0.8329 H   0  0  0  0  0  0  0  0  0  0  0  0
    2.0134    0.2010   -2.4712 H   0  0  0  0  0  0  0  0  0  0  0  0
    2.9710    1.1212   -1.2806 H   0  0  0  0  0  0  0  0  0  0  0  0
    3.7462    0.4314   -2.7603 H   0  0  0  0  0  0  0  0  0  0  0  0
    0.7605   -0.3373   -0.9537 H   0  0  0  0  0  0  0  0  0  0  0  0
   -0.5004    1.4718   -0.8540 H   0  0  0  0  0  0  0  0  0  0  0  0
   -1.2995    0.1329   -1.8072 H   0  0  0  0  0  0  0  0  0  0  0  0
   -3.1821    1.2959   -2.1785 H   0  0  0  0  0  0  0  0  0  0  0  0
   -1.9227    2.5569   -2.1834 H   0  0  0  0  0  0  0  0  0  0  0  0
   -5.0195    4.5890    2.0314 H   0  0  0  0  0  0  0  0  0  0  0  0
   -4.7208    1.9894    2.5444 H   0  0  0  0  0  0  0  0  0  0  0  0
   -3.5114   -0.2054    1.4660 H   0  0  0  0  0  0  0  0  0  0  0  0
   -3.8496   -0.1146   -0.2811 H   0  0  0  0  0  0  0  0  0  0  0  0
    0.3914   -1.5833    4.3234 H   0  0  0  0  0  0  0  0  0  0  0  0
    2.5715   -2.2748    3.1837 H   0  0  0  0  0  0  0  0  0  0  0  0
    4.6187   -2.9924    1.3673 H   0  0  0  0  0  0  0  0  0  0  0  0
  1  2  1  0
  2  3  1  0
  2  4  1  0
  4  5  2  0
  5  6  1  0
  6  7  1  0
  7  8  2  0
  7  9  1  0
  9 10  1  0
 10 11  1  0
 11 12  1  0
 12 13  1  0
 13 14  1  0
 14 15  2  0
 15 16  1  0
 16 17  1  0
  6 18  2  0
 18 19  1  0
 18 20  1  0
 20 21  2  0
 21 22  1  0
 21  4  1  0
 17  9  1  0
 16 12  2  0
  1 23  1  0
  1 24  1  0
  1 25  1  0
  2 26  1  0
  3 27  1  0
  3 28  1  0
  3 29  1  0
  5 30  1  0
 10 31  1  0
 10 32  1  0
 11 33  1  0
 11 34  1  0
 14 35  1  0
 15 36  1  0
 17 37  1  0
 17 38  1  0
 19 39  1  0
 20 40  1  0
 22 41  1  0
M  END
$$$$
