@<TRIPOS>MOLECULE
*****
 41 43 0 0 0
SMALL
GASTEIGER

@<TRIPOS>ATOM
      1 C           3.3070   -2.2044   -2.0905 C.3     1  UNL1       -0.0585
      2 C           3.3359   -0.9961   -1.1947 C.3     1  UNL1       -0.0180
      3 C           2.9878    0.2451   -1.9674 C.3     1  UNL1       -0.0585
      4 C           2.4511   -1.1367   -0.0216 C.ar    1  UNL1       -0.0024
      5 C           1.1057   -0.7380   -0.0195 C.ar    1  UNL1       -0.0392
      6 C           0.3119   -0.8855    1.0979 C.ar    1  UNL1        0.0787
      7 C          -1.0750   -0.5222    1.1208 C.2     1  UNL1        0.2504
      8 O          -1.7686   -0.9388    2.1518 O.2     1  UNL1       -0.2698
      9 N          -1.8448    0.2187    0.2186 N.am    1  UNL1       -0.2928
     10 C          -1.4387    0.8643   -0.9954 C.3     1  UNL1        0.0198
     11 C          -2.4709    1.8502   -1.5356 C.3     1  UNL1       -0.0052
     12 C          -3.2102    2.4981   -0.4526 C.ar    1  UNL1       -0.0041
     13 S          -3.7082    4.0735   -0.1787 S.2     1  UNL1       -0.1012
     14 C          -4.5312    3.8085    1.4494 C.ar    1  UNL1       -0.0238
     15 C          -4.3120    2.4546    1.5988 C.ar    1  UNL1       -0.0498
     16 C          -3.6532    1.8023    0.6496 C.ar    1  UNL1       -0.0199
     17 C          -3.2807    0.3340    0.5553 C.3     1  UNL1        0.0408
     18 C           0.8594   -1.4497    2.2651 C.ar    1  UNL1        0.1324
     19 O           0.0422   -1.5838    3.3631 O.3     1  UNL1       -0.5059
     20 C           2.1759   -1.8398    2.2612 C.ar    1  UNL1        0.0223
     21 C           2.9623   -1.6850    1.1316 C.ar    1  UNL1        0.1238
     22 O           4.2755   -2.0845    1.1594 O.3     1  UNL1       -0.5064
     23 H           2.4047   -2.2177   -2.7052 H       1  UNL1        0.0235
     24 H           4.2141   -2.1687   -2.7208 H       1  UNL1        0.0235
     25 H           3.4142   -3.0957   -1.4365 H       1  UNL1        0.0235
     26 H           4.3791   -0.8844   -0.8329 H       1  UNL1        0.0345
     27 H           2.0134    0.2010   -2.4712 H       1  UNL1        0.0235
     28 H           2.9710    1.1212   -1.2806 H       1  UNL1        0.0235
     29 H           3.7462    0.4314   -2.7603 H       1  UNL1        0.0235
     30 H           0.7605   -0.3373   -0.9537 H       1  UNL1        0.0630
     31 H          -0.5004    1.4718   -0.8540 H       1  UNL1        0.0468
     32 H          -1.2995    0.1329   -1.8072 H       1  UNL1        0.0468
     33 H          -3.1821    1.2959   -2.1785 H       1  UNL1        0.0334
     34 H          -1.9227    2.5569   -2.1834 H       1  UNL1        0.0334
     35 H          -5.0195    4.5890    2.0314 H       1  UNL1        0.0693
     36 H          -4.7208    1.9894    2.5444 H       1  UNL1        0.0626
     37 H          -3.5114   -0.2054    1.4660 H       1  UNL1        0.0514
     38 H          -3.8496   -0.1146   -0.2811 H       1  UNL1        0.0514
     39 H           0.3914   -1.5833    4.3234 H       1  UNL1        0.2922
     40 H           2.5715   -2.2748    3.1837 H       1  UNL1        0.0691
     41 H           4.6187   -2.9924    1.3673 H       1  UNL1        0.2921
@<TRIPOS>BOND
     1     1     2    1
     2     2     3    1
     3     2     4    1
     4     4     5   ar
     5     5     6   ar
     6     6     7    1
     7     7     8    2
     8     7     9   am
     9     9    10    1
    10    10    11    1
    11    11    12    1
    12    12    13   ar
    13    13    14   ar
    14    14    15   ar
    15    15    16   ar
    16    16    17    1
    17     6    18   ar
    18    18    19    1
    19    18    20   ar
    20    20    21   ar
    21    21    22    1
    22    21     4   ar
    23    17     9    1
    24    16    12   ar
    25     1    23    1
    26     1    24    1
    27     1    25    1
    28     2    26    1
    29     3    27    1
    30     3    28    1
    31     3    29    1
    32     5    30    1
    33    10    31    1
    34    10    32    1
    35    11    33    1
    36    11    34    1
    37    14    35    1
    38    15    36    1
    39    17    37    1
    40    17    38    1
    41    19    39    1
    42    20    40    1
    43    22    41    1
