@<TRIPOS>MOLECULE
*****
 40 42 0 0 0
SMALL
GASTEIGER

@<TRIPOS>ATOM
      1 N          -4.0556    1.2412   -0.7895 N.3     1  UNL1       -0.3300
      2 C          -3.3084    2.1068    0.0659 C.3     1  UNL1       -0.0066
      3 C          -2.6299    1.4590    1.2178 C.3     1  UNL1       -0.0375
      4 C          -1.6263    0.4190    0.9039 C.3     1  UNL1       -0.0351
      5 C          -2.0999   -0.7687    0.1489 C.3     1  UNL1       -0.0245
      6 C          -0.9387   -1.6582   -0.1130 C.ar    1  UNL1       -0.0433
      7 C          -1.2266   -2.9574   -0.5431 C.ar    1  UNL1       -0.0583
      8 C          -0.2193   -3.8563   -0.8136 C.ar    1  UNL1       -0.0615
      9 C           1.1110   -3.4963   -0.6665 C.ar    1  UNL1       -0.0615
     10 C           1.3939   -2.2110   -0.2410 C.ar    1  UNL1       -0.0577
     11 C           0.3787   -1.3023    0.0326 C.ar    1  UNL1       -0.0368
     12 C           0.7108    0.0511    0.4834 C.3     1  UNL1        0.0098
     13 C           2.0227    0.5280    0.0481 C.ar    1  UNL1       -0.0385
     14 C           3.1218    0.3002    0.8491 C.ar    1  UNL1       -0.0565
     15 C           4.3855    0.7251    0.4939 C.ar    1  UNL1       -0.0417
     16 C           4.5879    1.3990   -0.6885 C.ar    1  UNL1        0.0593
     17 CL          6.1998    1.9543   -1.1664 Cl      1  UNL1       -0.0820
     18 C           3.5082    1.6398   -1.5072 C.ar    1  UNL1        0.0595
     19 CL          3.7699    2.5003   -3.0162 Cl      1  UNL1       -0.0820
     20 C           2.2363    1.2036   -1.1339 C.ar    1  UNL1       -0.0382
     21 C          -0.4219    0.9695    0.1326 C.3     1  UNL1       -0.0390
     22 H          -4.6918    1.7800   -1.3864 H       1  UNL1        0.1182
     23 H          -4.6371    0.6127   -0.1917 H       1  UNL1        0.1182
     24 H          -4.0383    2.8502    0.4977 H       1  UNL1        0.0422
     25 H          -2.5677    2.7273   -0.4802 H       1  UNL1        0.0422
     26 H          -3.3435    1.0369    1.9554 H       1  UNL1        0.0280
     27 H          -2.0938    2.2732    1.7765 H       1  UNL1        0.0280
     28 H          -1.2405    0.0364    1.8888 H       1  UNL1        0.0305
     29 H          -2.7981   -1.3729    0.7977 H       1  UNL1        0.0316
     30 H          -2.5606   -0.5781   -0.8235 H       1  UNL1        0.0316
     31 H          -2.2384   -3.2712   -0.6680 H       1  UNL1        0.0620
     32 H          -0.4205   -4.8807   -1.1522 H       1  UNL1        0.0618
     33 H           1.9203   -4.1669   -0.8671 H       1  UNL1        0.0618
     34 H           2.4030   -1.8534   -0.1019 H       1  UNL1        0.0621
     35 H           0.7165    0.0064    1.6145 H       1  UNL1        0.0397
     36 H           2.9670   -0.2387    1.7974 H       1  UNL1        0.0621
     37 H           5.2116    0.5315    1.1377 H       1  UNL1        0.0633
     38 H           1.3946    1.3936   -1.7762 H       1  UNL1        0.0635
     39 H          -0.6566    0.8403   -0.9448 H       1  UNL1        0.0277
     40 H          -0.2260    2.0266    0.3886 H       1  UNL1        0.0277
@<TRIPOS>BOND
     1     1     2    1
     2     2     3    1
     3     3     4    1
     4     4     5    1
     5     5     6    1
     6     6     7   ar
     7     7     8   ar
     8     8     9   ar
     9     9    10   ar
    10    10    11   ar
    11    11    12    1
    12    12    13    1
    13    13    14   ar
    14    14    15   ar
    15    15    16   ar
    16    16    17    1
    17    16    18   ar
    18    18    19    1
    19    18    20   ar
    20    12    21    1
    21    21     4    1
    22    11     6   ar
    23    20    13   ar
    24     1    22    1
    25     1    23    1
    26     2    24    1
    27     2    25    1
    28     3    26    1
    29     3    27    1
    30     4    28    1
    31     5    29    1
    32     5    30    1
    33     7    31    1
    34     8    32    1
    35     9    33    1
    36    10    34    1
    37    12    35    1
    38    14    36    1
    39    15    37    1
    40    20    38    1
    41    21    39    1
    42    21    40    1
