
     RDKit          3D

 39 41  0  0  0  0  0  0  0  0999 V2000
   -2.0328   -1.9088    1.6098 C   0  0  0  0  0  0  0  0  0  0  0  0
   -1.9006   -0.4077    1.2947 C   0  0  2  0  0  0  0  0  0  0  0  0
   -3.3208    0.1256    1.3706 C   0  0  0  0  0  0  0  0  0  0  0  0
   -4.0922   -0.7968    0.6458 O   0  0  0  0  0  0  0  0  0  0  0  0
   -3.8454   -0.7555   -0.7020 C   0  0  0  0  0  0  0  0  0  0  0  0
   -2.3837   -0.8585   -1.0817 C   0  0  0  0  0  0  0  0  0  0  0  0
   -1.4942   -0.2668   -0.1134 N   0  0  0  0  0  0  0  0  0  0  0  0
   -0.2723    0.4059   -0.4477 C   0  0  0  0  0  0  0  0  0  0  0  0
    0.9181   -0.0997   -0.0052 N   0  0  0  0  0  0  0  0  0  0  0  0
    2.0868    0.4968   -0.3012 C   0  0  0  0  0  0  0  0  0  0  0  0
    3.3592   -0.0493    0.1987 C   0  0  0  0  0  0  0  0  0  0  0  0
    4.5909    0.4532   -0.1110 C   0  0  0  0  0  0  0  0  0  0  0  0
    5.7822   -0.0484    0.3696 C   0  0  0  0  0  0  0  0  0  0  0  0
    5.7047   -1.1130    1.2050 N   0  0  0  0  0  0  0  0  0  0  0  0
    4.5209   -1.6344    1.5332 C   0  0  0  0  0  0  0  0  0  0  0  0
    3.3270   -1.1414    1.0592 C   0  0  0  0  0  0  0  0  0  0  0  0
    2.1227   -1.6476    1.3766 F   0  0  0  0  0  0  0  0  0  0  0  0
    2.0020    1.6358   -1.0705 C   0  0  0  0  0  0  0  0  0  0  0  0
    0.8023    2.1494   -1.5189 C   0  0  0  0  0  0  0  0  0  0  0  0
    0.7232    3.1890   -2.2206 O   0  0  0  0  0  0  0  0  0  0  0  0
   -0.3631    1.5142   -1.1965 N   0  0  0  0  0  0  0  0  0  0  0  0
   -1.6253    2.0495   -1.6653 C   0  0  0  0  0  0  0  0  0  0  0  0
   -1.0835   -2.4470    1.4107 H   0  0  0  0  0  0  0  0  0  0  0  0
   -2.2529   -2.0244    2.6880 H   0  0  0  0  0  0  0  0  0  0  0  0
   -2.8792   -2.3307    1.0515 H   0  0  0  0  0  0  0  0  0  0  0  0
   -1.2017    0.0760    1.9823 H   0  0  0  0  0  0  0  0  0  0  0  0
   -3.4312    1.1546    1.0485 H   0  0  0  0  0  0  0  0  0  0  0  0
   -3.6329    0.0438    2.4366 H   0  0  0  0  0  0  0  0  0  0  0  0
   -4.2870    0.1706   -1.1749 H   0  0  0  0  0  0  0  0  0  0  0  0
   -4.3647   -1.6155   -1.1694 H   0  0  0  0  0  0  0  0  0  0  0  0
   -2.1158   -1.9513   -1.1857 H   0  0  0  0  0  0  0  0  0  0  0  0
   -2.2984   -0.4507   -2.0977 H   0  0  0  0  0  0  0  0  0  0  0  0
    4.6604    1.2941   -0.7756 H   0  0  0  0  0  0  0  0  0  0  0  0
    6.7437    0.3691    0.1079 H   0  0  0  0  0  0  0  0  0  0  0  0
    4.5154   -2.4719    2.1966 H   0  0  0  0  0  0  0  0  0  0  0  0
    2.9363    2.1505   -1.3326 H   0  0  0  0  0  0  0  0  0  0  0  0
   -1.6133    3.1790   -1.6368 H   0  0  0  0  0  0  0  0  0  0  0  0
   -2.4710    1.7548   -1.0547 H   0  0  0  0  0  0  0  0  0  0  0  0
   -1.8341    1.8076   -2.7239 H   0  0  0  0  0  0  0  0  0  0  0  0
  1  2  1  0
  2  3  1  0
  3  4  1  0
  4  5  1  0
  5  6  1  0
  6  7  1  0
  7  8  1  0
  8  9  2  0
  9 10  1  0
 10 11  1  0
 11 12  2  0
 12 13  1  0
 13 14  2  0
 14 15  1  0
 15 16  2  0
 16 17  1  0
 10 18  2  0
 18 19  1  0
 19 20  2  0
 19 21  1  0
 21 22  1  0
  7  2  1  0
 21  8  1  0
 16 11  1  0
  1 23  1  0
  1 24  1  0
  1 25  1  0
  2 26  1  1
  3 27  1  0
  3 28  1  0
  5 29  1  0
  5 30  1  0
  6 31  1  0
  6 32  1  0
 12 33  1  0
 13 34  1  0
 15 35  1  0
 18 36  1  0
 22 37  1  0
 22 38  1  0
 22 39  1  0
M  END
$$$$
