@<TRIPOS>MOLECULE
*****
 39 41 0 0 0
SMALL
GASTEIGER

@<TRIPOS>ATOM
      1 C          -2.0328   -1.9088    1.6098 C.3     1  UNL1       -0.0443
      2 C          -1.9006   -0.4077    1.2947 C.3     1  UNL1        0.0467
      3 C          -3.3208    0.1256    1.3706 C.3     1  UNL1        0.0660
      4 O          -4.0922   -0.7968    0.6458 O.3     1  UNL1       -0.3764
      5 C          -3.8454   -0.7555   -0.7020 C.3     1  UNL1        0.0635
      6 C          -2.3837   -0.8585   -1.0817 C.3     1  UNL1        0.0386
      7 N          -1.4942   -0.2668   -0.1134 N.pl3   1  UNL1       -0.2937
      8 C          -0.2723    0.4059   -0.4477 C.ar    1  UNL1        0.2016
      9 N           0.9181   -0.0997   -0.0052 N.ar    1  UNL1       -0.2154
     10 C           2.0868    0.4968   -0.3012 C.ar    1  UNL1        0.0825
     11 C           3.3592   -0.0493    0.1987 C.ar    1  UNL1        0.0387
     12 C           4.5909    0.4532   -0.1110 C.ar    1  UNL1       -0.0316
     13 C           5.7822   -0.0484    0.3696 C.ar    1  UNL1        0.0284
     14 N           5.7047   -1.1130    1.2050 N.ar    1  UNL1       -0.2604
     15 C           4.5209   -1.6344    1.5332 C.ar    1  UNL1        0.0634
     16 C           3.3270   -1.1414    1.0592 C.ar    1  UNL1        0.1505
     17 F           2.1227   -1.6476    1.3766 F       1  UNL1       -0.2032
     18 C           2.0020    1.6358   -1.0705 C.ar    1  UNL1        0.0292
     19 C           0.8023    2.1494   -1.5189 C.ar    1  UNL1        0.2555
     20 O           0.7232    3.1890   -2.2206 O.2     1  UNL1       -0.2675
     21 N          -0.3631    1.5142   -1.1965 N.ar    1  UNL1       -0.2839
     22 C          -1.6253    2.0495   -1.6653 C.3     1  UNL1        0.0178
     23 H          -1.0835   -2.4470    1.4107 H       1  UNL1        0.0248
     24 H          -2.2529   -2.0244    2.6880 H       1  UNL1        0.0248
     25 H          -2.8792   -2.3307    1.0515 H       1  UNL1        0.0248
     26 H          -1.2017    0.0760    1.9823 H       1  UNL1        0.0520
     27 H          -3.4312    1.1546    1.0485 H       1  UNL1        0.0578
     28 H          -3.6329    0.0438    2.4366 H       1  UNL1        0.0578
     29 H          -4.2870    0.1706   -1.1749 H       1  UNL1        0.0575
     30 H          -4.3647   -1.6155   -1.1694 H       1  UNL1        0.0575
     31 H          -2.1158   -1.9513   -1.1857 H       1  UNL1        0.0487
     32 H          -2.2984   -0.4507   -2.0977 H       1  UNL1        0.0487
     33 H           4.6604    1.2941   -0.7756 H       1  UNL1        0.0640
     34 H           6.7437    0.3691    0.1079 H       1  UNL1        0.0830
     35 H           4.5154   -2.4719    2.1966 H       1  UNL1        0.0859
     36 H           2.9363    2.1505   -1.3326 H       1  UNL1        0.0693
     37 H          -1.6133    3.1790   -1.6368 H       1  UNL1        0.0458
     38 H          -2.4710    1.7548   -1.0547 H       1  UNL1        0.0458
     39 H          -1.8341    1.8076   -2.7239 H       1  UNL1        0.0458
@<TRIPOS>BOND
     1     1     2    1
     2     2     3    1
     3     3     4    1
     4     4     5    1
     5     5     6    1
     6     6     7    1
     7     7     8    1
     8     8     9   ar
     9     9    10   ar
    10    10    11    1
    11    11    12   ar
    12    12    13   ar
    13    13    14   ar
    14    14    15   ar
    15    15    16   ar
    16    16    17    1
    17    10    18   ar
    18    18    19   ar
    19    19    20    2
    20    19    21   ar
    21    21    22    1
    22     7     2    1
    23    21     8   ar
    24    16    11   ar
    25     1    23    1
    26     1    24    1
    27     1    25    1
    28     2    26    1
    29     3    27    1
    30     3    28    1
    31     5    29    1
    32     5    30    1
    33     6    31    1
    34     6    32    1
    35    12    33    1
    36    13    34    1
    37    15    35    1
    38    18    36    1
    39    22    37    1
    40    22    38    1
    41    22    39    1
