@<TRIPOS>MOLECULE
*****
 45 48 0 0 0
SMALL
GASTEIGER

@<TRIPOS>ATOM
      1 N          -2.7015    3.4891    0.5985 N.pl3   1  UNL1       -0.3134
      2 C          -3.1474    2.1388    0.6502 C.2     1  UNL1        0.2764
      3 N          -2.3003    1.1710    0.6218 N.2     1  UNL1       -0.2194
      4 C          -2.8583   -0.1914    0.6803 C.3     1  UNL1        0.1603
      5 C          -1.8136   -1.1095    0.1920 C.ar    1  UNL1        0.0228
      6 C          -0.5867   -0.6065   -0.1798 C.ar    1  UNL1       -0.0321
      7 C           0.4588   -1.3635   -0.6359 C.ar    1  UNL1        0.0342
      8 N           1.7314   -0.7845   -1.0148 N.am    1  UNL1       -0.2802
      9 C           2.7763   -0.6128   -0.1164 C.2     1  UNL1        0.2670
     10 O           2.4901   -1.0422    1.0858 O.2     1  UNL1       -0.2682
     11 C           4.0918   -0.0677   -0.2552 C.ar    1  UNL1        0.1342
     12 N           5.0394   -0.5443    0.6433 N.ar    1  UNL1       -0.2488
     13 C           6.2862   -0.0857    0.6822 C.ar    1  UNL1        0.0424
     14 C           6.6869    0.8914   -0.1782 C.ar    1  UNL1        0.0364
     15 BR          8.4781    1.5827   -0.1558 Br      1  UNL1       -0.0487
     16 C           5.7906    1.3774   -1.0650 C.ar    1  UNL1       -0.0356
     17 C           4.4717    0.8954   -1.1103 C.ar    1  UNL1        0.0489
     18 C           3.5943    1.4800   -2.1283 C.3     1  UNL1        0.2666
     19 F           2.4154    1.9572   -1.6690 F       1  UNL1       -0.2038
     20 F           3.4319    0.6683   -3.2571 F       1  UNL1       -0.2038
     21 C           0.2828   -2.7272   -0.7344 C.ar    1  UNL1       -0.0377
     22 C          -0.9256   -3.2724   -0.3743 C.ar    1  UNL1       -0.0243
     23 C          -1.9718   -2.4807    0.0860 C.ar    1  UNL1        0.1292
     24 F          -3.1362   -3.0541    0.4149 F       1  UNL1       -0.2051
     25 C          -3.0749   -0.4575    2.1532 C.3     1  UNL1        0.2686
     26 F          -3.5925   -1.6852    2.4465 F       1  UNL1       -0.2062
     27 F          -1.8063   -0.3997    2.7433 F       1  UNL1       -0.2062
     28 C          -4.0761   -0.3468   -0.1644 C.3     1  UNL1        0.0344
     29 C          -5.3670   -0.5532    0.5098 C.3     1  UNL1       -0.0064
     30 C          -5.0664    0.7848   -0.0472 C.3     1  UNL1        0.1091
     31 O          -4.4893    1.7948    0.7321 O.2     1  UNL1       -0.4622
     32 H          -2.0858    3.7531   -0.1964 H       1  UNL1        0.1466
     33 H          -2.9880    4.1506    1.3228 H       1  UNL1        0.1466
     34 H          -0.3898    0.4747   -0.1218 H       1  UNL1        0.0640
     35 H           1.8295   -0.5368   -1.9786 H       1  UNL1        0.1552
     36 H           7.0215   -0.4791    1.4008 H       1  UNL1        0.0841
     37 H           6.1351    2.1589   -1.7437 H       1  UNL1        0.0634
     38 H           4.1391    2.3891   -2.5579 H       1  UNL1        0.1072
     39 H           1.0574   -3.4019   -1.0855 H       1  UNL1        0.0637
     40 H          -1.0644   -4.3355   -0.4505 H       1  UNL1        0.0647
     41 H          -3.6548    0.3726    2.6302 H       1  UNL1        0.1047
     42 H          -3.9237   -0.6543   -1.2254 H       1  UNL1        0.0366
     43 H          -5.4561   -0.7403    1.5757 H       1  UNL1        0.0306
     44 H          -6.1171   -1.1411   -0.0889 H       1  UNL1        0.0306
     45 H          -5.6144    1.1440   -0.9256 H       1  UNL1        0.0737
@<TRIPOS>BOND
     1     1     2    1
     2     2     3    2
     3     3     4    1
     4     4     5    1
     5     5     6   ar
     6     6     7   ar
     7     7     8    1
     8     8     9   am
     9     9    10    2
    10     9    11    1
    11    11    12   ar
    12    12    13   ar
    13    13    14   ar
    14    14    15    1
    15    14    16   ar
    16    16    17   ar
    17    17    18    1
    18    18    19    1
    19    18    20    1
    20     7    21   ar
    21    21    22   ar
    22    22    23   ar
    23    23    24    1
    24     4    25    1
    25    25    26    1
    26    25    27    1
    27     4    28    1
    28    28    29    1
    29    29    30    1
    30    30    31    1
    31    31     2    1
    32    23     5   ar
    33    30    28    1
    34    17    11   ar
    35     1    32    1
    36     1    33    1
    37     6    34    1
    38     8    35    1
    39    13    36    1
    40    16    37    1
    41    18    38    1
    42    21    39    1
    43    22    40    1
    44    25    41    1
    45    28    42    1
    46    29    43    1
    47    29    44    1
    48    30    45    1
