
     RDKit          3D

 45 48  0  0  0  0  0  0  0  0999 V2000
   -2.7015    3.4891    0.5985 N   0  0  0  0  0  0  0  0  0  0  0  0
   -3.1474    2.1388    0.6502 C   0  0  0  0  0  0  0  0  0  0  0  0
   -2.3003    1.1710    0.6218 N   0  0  0  0  0  0  0  0  0  0  0  0
   -2.8583   -0.1914    0.6803 C   0  0  1  0  0  0  0  0  0  0  0  0
   -1.8136   -1.1095    0.1920 C   0  0  0  0  0  0  0  0  0  0  0  0
   -0.5867   -0.6065   -0.1798 C   0  0  0  0  0  0  0  0  0  0  0  0
    0.4588   -1.3635   -0.6359 C   0  0  0  0  0  0  0  0  0  0  0  0
    1.7314   -0.7845   -1.0148 N   0  0  0  0  0  0  0  0  0  0  0  0
    2.7763   -0.6128   -0.1164 C   0  0  0  0  0  0  0  0  0  0  0  0
    2.4901   -1.0422    1.0858 O   0  0  0  0  0  0  0  0  0  0  0  0
    4.0918   -0.0677   -0.2552 C   0  0  0  0  0  0  0  0  0  0  0  0
    5.0394   -0.5443    0.6433 N   0  0  0  0  0  0  0  0  0  0  0  0
    6.2862   -0.0857    0.6822 C   0  0  0  0  0  0  0  0  0  0  0  0
    6.6869    0.8914   -0.1782 C   0  0  0  0  0  0  0  0  0  0  0  0
    8.4781    1.5827   -0.1558 Br  0  0  0  0  0  0  0  0  0  0  0  0
    5.7906    1.3774   -1.0650 C   0  0  0  0  0  0  0  0  0  0  0  0
    4.4717    0.8954   -1.1103 C   0  0  0  0  0  0  0  0  0  0  0  0
    3.5943    1.4800   -2.1283 C   0  0  0  0  0  0  0  0  0  0  0  0
    2.4154    1.9572   -1.6690 F   0  0  0  0  0  0  0  0  0  0  0  0
    3.4319    0.6683   -3.2571 F   0  0  0  0  0  0  0  0  0  0  0  0
    0.2828   -2.7272   -0.7344 C   0  0  0  0  0  0  0  0  0  0  0  0
   -0.9256   -3.2724   -0.3743 C   0  0  0  0  0  0  0  0  0  0  0  0
   -1.9718   -2.4807    0.0860 C   0  0  0  0  0  0  0  0  0  0  0  0
   -3.1362   -3.0541    0.4149 F   0  0  0  0  0  0  0  0  0  0  0  0
   -3.0749   -0.4575    2.1532 C   0  0  0  0  0  0  0  0  0  0  0  0
   -3.5925   -1.6852    2.4465 F   0  0  0  0  0  0  0  0  0  0  0  0
   -1.8063   -0.3997    2.7433 F   0  0  0  0  0  0  0  0  0  0  0  0
   -4.0761   -0.3468   -0.1644 C   0  0  1  0  0  0  0  0  0  0  0  0
   -5.3670   -0.5532    0.5098 C   0  0  0  0  0  0  0  0  0  0  0  0
   -5.0664    0.7848   -0.0472 C   0  0  1  0  0  0  0  0  0  0  0  0
   -4.4893    1.7948    0.7321 O   0  0  0  0  0  0  0  0  0  0  0  0
   -2.0858    3.7531   -0.1964 H   0  0  0  0  0  0  0  0  0  0  0  0
   -2.9880    4.1506    1.3228 H   0  0  0  0  0  0  0  0  0  0  0  0
   -0.3898    0.4747   -0.1218 H   0  0  0  0  0  0  0  0  0  0  0  0
    1.8295   -0.5368   -1.9786 H   0  0  0  0  0  0  0  0  0  0  0  0
    7.0215   -0.4791    1.4008 H   0  0  0  0  0  0  0  0  0  0  0  0
    6.1351    2.1589   -1.7437 H   0  0  0  0  0  0  0  0  0  0  0  0
    4.1391    2.3891   -2.5579 H   0  0  0  0  0  0  0  0  0  0  0  0
    1.0574   -3.4019   -1.0855 H   0  0  0  0  0  0  0  0  0  0  0  0
   -1.0644   -4.3355   -0.4505 H   0  0  0  0  0  0  0  0  0  0  0  0
   -3.6548    0.3726    2.6302 H   0  0  0  0  0  0  0  0  0  0  0  0
   -3.9237   -0.6543   -1.2254 H   0  0  0  0  0  0  0  0  0  0  0  0
   -5.4561   -0.7403    1.5757 H   0  0  0  0  0  0  0  0  0  0  0  0
   -6.1171   -1.1411   -0.0889 H   0  0  0  0  0  0  0  0  0  0  0  0
   -5.6144    1.1440   -0.9256 H   0  0  0  0  0  0  0  0  0  0  0  0
  1  2  1  0
  2  3  2  0
  3  4  1  0
  4  5  1  0
  5  6  2  0
  6  7  1  0
  7  8  1  0
  8  9  1  0
  9 10  2  0
  9 11  1  0
 11 12  2  0
 12 13  1  0
 13 14  2  0
 14 15  1  0
 14 16  1  0
 16 17  2  0
 17 18  1  0
 18 19  1  0
 18 20  1  0
  7 21  2  0
 21 22  1  0
 22 23  2  0
 23 24  1  0
  4 25  1  1
 25 26  1  0
 25 27  1  0
  4 28  1  0
 28 29  1  0
 29 30  1  0
 30 31  1  0
 31  2  1  0
 23  5  1  0
 30 28  1  0
 17 11  1  0
  1 32  1  0
  1 33  1  0
  6 34  1  0
  8 35  1  0
 13 36  1  0
 16 37  1  0
 18 38  1  0
 21 39  1  0
 22 40  1  0
 25 41  1  0
 28 42  1  6
 29 43  1  0
 29 44  1  0
 30 45  1  6
M  END
$$$$
