@<TRIPOS>MOLECULE
*****
 52 56 0 0 0
SMALL
GASTEIGER

@<TRIPOS>ATOM
      1 O          -2.1833    0.2604   -1.6868 O.2     1  UNL1       -0.2699
      2 C          -2.2707   -0.4179   -0.6480 C.2     1  UNL1        0.2491
      3 C          -3.4984   -1.1365   -0.3996 C.ar    1  UNL1        0.0641
      4 C          -3.6265   -2.4232   -0.8707 C.ar    1  UNL1       -0.0448
      5 C          -4.8299   -3.0606   -0.5998 C.ar    1  UNL1       -0.0256
      6 C          -5.8403   -2.4501    0.0976 C.ar    1  UNL1        0.1255
      7 F          -6.9805   -3.1477    0.3158 F       1  UNL1       -0.2054
      8 C          -5.6880   -1.1665    0.5566 C.ar    1  UNL1        0.0015
      9 C          -4.5022   -0.4759    0.3154 C.ar    1  UNL1        0.1009
     10 N          -4.2979    0.8442    0.7664 N.ar    1  UNL1       -0.1495
     11 N          -3.8483    1.8330    0.0250 N.ar    1  UNL1       -0.1556
     12 C          -3.7682    2.9636    0.7559 C.ar    1  UNL1        0.0697
     13 C          -4.1953    2.6339    2.0117 C.ar    1  UNL1        0.0697
     14 N          -4.5103    1.3178    1.9674 N.ar    1  UNL1       -0.1556
     15 N          -1.1563   -0.4481    0.2376 N.am    1  UNL1       -0.2897
     16 C          -1.1623   -1.2115    1.4760 C.3     1  UNL1        0.0388
     17 C           0.1479   -1.9254    1.7108 C.3     1  UNL1        0.0635
     18 O           1.2523   -1.1387    1.4298 O.3     1  UNL1       -0.3764
     19 C           0.9168    0.1963    1.1857 C.3     1  UNL1        0.0666
     20 C           0.0596    0.2932   -0.0568 C.3     1  UNL1        0.0537
     21 C           0.8081   -0.3091   -1.2050 C.3     1  UNL1       -0.0068
     22 C           2.0354    0.4659   -1.4809 C.ar    1  UNL1       -0.0435
     23 C           1.9603    1.5275   -2.3555 C.ar    1  UNL1       -0.0584
     24 C           3.0615    2.2833   -2.6574 C.ar    1  UNL1       -0.0594
     25 C           4.2773    2.0025   -2.0938 C.ar    1  UNL1       -0.0345
     26 C           4.3872    0.9523   -1.2187 C.ar    1  UNL1        0.0864
     27 N           5.6494    0.6242   -0.6043 N.ar    1  UNL1       -0.1503
     28 N           6.8482    0.7154   -1.1126 N.ar    1  UNL1       -0.1556
     29 C           7.7660    0.3077   -0.2072 C.ar    1  UNL1        0.0697
     30 C           7.0500   -0.0483    0.9137 C.ar    1  UNL1        0.0697
     31 N           5.7578    0.1630    0.6223 N.ar    1  UNL1       -0.1556
     32 C           3.2667    0.2072   -0.9309 C.ar    1  UNL1       -0.0313
     33 H          -2.8264   -2.8989   -1.4197 H       1  UNL1        0.0627
     34 H          -4.9748   -4.0678   -0.9488 H       1  UNL1        0.0646
     35 H          -6.4890   -0.7030    1.1011 H       1  UNL1        0.0668
     36 H          -3.4299    3.9423    0.4105 H       1  UNL1        0.0864
     37 H          -4.2571    3.3080    2.8460 H       1  UNL1        0.0864
     38 H          -1.4075   -0.4910    2.2862 H       1  UNL1        0.0487
     39 H          -1.9578   -1.9864    1.4827 H       1  UNL1        0.0487
     40 H           0.1182   -2.8598    1.0800 H       1  UNL1        0.0575
     41 H           0.1379   -2.2770    2.7690 H       1  UNL1        0.0575
     42 H           0.3178    0.6194    2.0208 H       1  UNL1        0.0578
     43 H           1.8467    0.7453    1.0055 H       1  UNL1        0.0578
     44 H          -0.1528    1.3703   -0.2318 H       1  UNL1        0.0526
     45 H           1.1423   -1.3319   -0.8971 H       1  UNL1        0.0332
     46 H           0.2099   -0.3433   -2.1368 H       1  UNL1        0.0332
     47 H           1.0215    1.7962   -2.8324 H       1  UNL1        0.0620
     48 H           2.9560    3.1228   -3.3619 H       1  UNL1        0.0618
     49 H           5.1551    2.6047   -2.3342 H       1  UNL1        0.0639
     50 H           8.8484    0.2582   -0.3089 H       1  UNL1        0.0864
     51 H           7.4925   -0.4195    1.8238 H       1  UNL1        0.0864
     52 H           3.3627   -0.6206   -0.2418 H       1  UNL1        0.0642
@<TRIPOS>BOND
     1     1     2    2
     2     2     3    1
     3     3     4   ar
     4     4     5   ar
     5     5     6   ar
     6     6     7    1
     7     6     8   ar
     8     8     9   ar
     9     9    10    1
    10    10    11   ar
    11    11    12   ar
    12    12    13   ar
    13    13    14   ar
    14     2    15   am
    15    15    16    1
    16    16    17    1
    17    17    18    1
    18    18    19    1
    19    19    20    1
    20    20    21    1
    21    21    22    1
    22    22    23   ar
    23    23    24   ar
    24    24    25   ar
    25    25    26   ar
    26    26    27    1
    27    27    28   ar
    28    28    29   ar
    29    29    30   ar
    30    30    31   ar
    31    26    32   ar
    32     9     3   ar
    33    14    10   ar
    34    20    15    1
    35    32    22   ar
    36    31    27   ar
    37     4    33    1
    38     5    34    1
    39     8    35    1
    40    12    36    1
    41    13    37    1
    42    16    38    1
    43    16    39    1
    44    17    40    1
    45    17    41    1
    46    19    42    1
    47    19    43    1
    48    20    44    1
    49    21    45    1
    50    21    46    1
    51    23    47    1
    52    24    48    1
    53    25    49    1
    54    29    50    1
    55    30    51    1
    56    32    52    1
