@<TRIPOS>MOLECULE
*****
 55 60 0 0 0
SMALL
GASTEIGER

@<TRIPOS>ATOM
      1 C           1.2134    2.5859   -0.0321 C.3     1  UNL1       -0.0393
      2 C           0.9187    1.2742   -0.7738 C.3     1  UNL1        0.0834
      3 C          -0.4284    1.5454   -1.4330 C.ar    1  UNL1        0.1542
      4 N          -0.8256    1.9198   -2.6552 N.ar    1  UNL1       -0.1320
      5 N          -2.1466    2.0517   -2.6763 N.ar    1  UNL1       -0.1275
      6 C          -2.6292    1.7594   -1.4444 C.ar    1  UNL1        0.1833
      7 C          -4.0590    1.8130   -1.0366 C.ar    1  UNL1        0.1158
      8 C          -4.7027    2.9630   -0.9382 C.ar    1  UNL1        0.0067
      9 S          -6.4130    2.4440   -0.4155 S.2     1  UNL1       -0.0748
     10 C          -5.8586    0.6258   -0.4411 C.ar    1  UNL1        0.1118
     11 C          -6.8498   -0.3808   -0.0865 C.ar    1  UNL1        0.0425
     12 C          -6.4730   -1.6979   -0.0946 C.ar    1  UNL1       -0.0466
     13 C          -7.3665   -2.7082    0.2394 C.ar    1  UNL1       -0.0256
     14 C          -8.6669   -2.4054    0.5895 C.ar    1  UNL1        0.1262
     15 F          -9.5793   -3.3757    0.9275 F       1  UNL1       -0.2054
     16 C          -9.0732   -1.0749    0.6047 C.ar    1  UNL1        0.0095
     17 C          -8.1486   -0.0970    0.2652 C.ar    1  UNL1        0.1358
     18 F          -8.5420    1.2014    0.2793 F       1  UNL1       -0.2047
     19 N          -4.7628    0.7360   -0.7592 N.ar    1  UNL1       -0.2358
     20 N          -1.5702    1.4526   -0.7032 N.ar    1  UNL1       -0.3066
     21 C          -1.4669    1.0270    0.6906 C.3     1  UNL1        0.0423
     22 C          -0.5168   -0.1147    0.7748 C.3     1  UNL1        0.0338
     23 N           0.8244    0.2181    0.1726 N.am    1  UNL1       -0.2860
     24 C           1.8486   -0.5908    0.6368 C.2     1  UNL1        0.2472
     25 O           1.4198   -1.5133    1.5250 O.2     1  UNL1       -0.2700
     26 C           3.2548   -0.6716    0.3830 C.ar    1  UNL1        0.0370
     27 C           3.9825   -1.7881    0.8694 C.ar    1  UNL1       -0.0490
     28 C           5.3207   -1.8801    0.6813 C.ar    1  UNL1       -0.0528
     29 C           6.0312   -0.9016    0.0131 C.ar    1  UNL1       -0.0113
     30 C           7.4729   -0.9963   -0.1401 C.ar    1  UNL1        0.0193
     31 C           8.4257   -1.8512    0.2693 C.ar    1  UNL1       -0.0469
     32 C           9.7028   -1.6737   -0.0021 C.ar    1  UNL1       -0.0541
     33 C          10.1207   -0.5498   -0.7507 C.ar    1  UNL1       -0.0237
     34 S           8.4868    0.2546   -1.0457 S.2     1  UNL1       -0.0967
     35 C           5.3306    0.1698   -0.4572 C.ar    1  UNL1       -0.0528
     36 C           3.9702    0.2850   -0.2765 C.ar    1  UNL1       -0.0490
     37 H           0.4170    3.3596   -0.2517 H       1  UNL1        0.0252
     38 H           2.2158    2.9978   -0.2801 H       1  UNL1        0.0252
     39 H           1.1363    2.3687    1.0521 H       1  UNL1        0.0252
     40 H           1.5829    1.1020   -1.6341 H       1  UNL1        0.0579
     41 H          -4.4741    4.0453   -1.0832 H       1  UNL1        0.0716
     42 H          -5.4552   -1.9288   -0.3716 H       1  UNL1        0.0626
     43 H          -7.0789   -3.7441    0.2333 H       1  UNL1        0.0646
     44 H         -10.0816   -0.8760    0.8772 H       1  UNL1        0.0675
     45 H          -1.1649    1.8543    1.3142 H       1  UNL1        0.0508
     46 H          -2.4664    0.6348    1.0146 H       1  UNL1        0.0508
     47 H          -0.3703   -0.3903    1.8320 H       1  UNL1        0.0482
     48 H          -0.9023   -0.9301    0.1445 H       1  UNL1        0.0482
     49 H           3.4358   -2.5578    1.3882 H       1  UNL1        0.0625
     50 H           5.8926   -2.7413    1.0590 H       1  UNL1        0.0624
     51 H           8.0853   -2.7541    0.8752 H       1  UNL1        0.0629
     52 H          10.5239   -2.3915    0.3369 H       1  UNL1        0.0623
     53 H          11.0482   -0.1960   -1.0834 H       1  UNL1        0.0693
     54 H           5.8850    0.9280   -0.9840 H       1  UNL1        0.0624
     55 H           3.5263    1.1640   -0.6747 H       1  UNL1        0.0625
@<TRIPOS>BOND
     1     1     2    1
     2     2     3    1
     3     3     4   ar
     4     4     5   ar
     5     5     6   ar
     6     6     7    1
     7     7     8   ar
     8     8     9   ar
     9     9    10   ar
    10    10    11    1
    11    11    12   ar
    12    12    13   ar
    13    13    14   ar
    14    14    15    1
    15    14    16   ar
    16    16    17   ar
    17    17    18    1
    18    10    19   ar
    19     6    20   ar
    20    20    21    1
    21    21    22    1
    22    22    23    1
    23    23    24   am
    24    24    25    2
    25    24    26    1
    26    26    27   ar
    27    27    28   ar
    28    28    29   ar
    29    29    30    1
    30    30    31   ar
    31    31    32   ar
    32    32    33   ar
    33    33    34   ar
    34    29    35   ar
    35    35    36   ar
    36    23     2    1
    37    36    26   ar
    38    20     3   ar
    39    34    30   ar
    40    19     7   ar
    41    17    11   ar
    42     1    37    1
    43     1    38    1
    44     1    39    1
    45     2    40    1
    46     8    41    1
    47    12    42    1
    48    13    43    1
    49    16    44    1
    50    21    45    1
    51    21    46    1
    52    22    47    1
    53    22    48    1
    54    27    49    1
    55    28    50    1
    56    31    51    1
    57    32    52    1
    58    33    53    1
    59    35    54    1
    60    36    55    1
