
     RDKit          3D

 55 60  0  0  0  0  0  0  0  0999 V2000
    1.2134    2.5859   -0.0321 C   0  0  0  0  0  0  0  0  0  0  0  0
    0.9187    1.2742   -0.7738 C   0  0  2  0  0  0  0  0  0  0  0  0
   -0.4284    1.5454   -1.4330 C   0  0  0  0  0  0  0  0  0  0  0  0
   -0.8256    1.9198   -2.6552 N   0  0  0  0  0  0  0  0  0  0  0  0
   -2.1466    2.0517   -2.6763 N   0  0  0  0  0  0  0  0  0  0  0  0
   -2.6292    1.7594   -1.4444 C   0  0  0  0  0  0  0  0  0  0  0  0
   -4.0590    1.8130   -1.0366 C   0  0  0  0  0  0  0  0  0  0  0  0
   -4.7027    2.9630   -0.9382 C   0  0  0  0  0  0  0  0  0  0  0  0
   -6.4130    2.4440   -0.4155 S   0  0  0  0  0  0  0  0  0  0  0  0
   -5.8586    0.6258   -0.4411 C   0  0  0  0  0  0  0  0  0  0  0  0
   -6.8498   -0.3808   -0.0865 C   0  0  0  0  0  0  0  0  0  0  0  0
   -6.4730   -1.6979   -0.0946 C   0  0  0  0  0  0  0  0  0  0  0  0
   -7.3665   -2.7082    0.2394 C   0  0  0  0  0  0  0  0  0  0  0  0
   -8.6669   -2.4054    0.5895 C   0  0  0  0  0  0  0  0  0  0  0  0
   -9.5793   -3.3757    0.9275 F   0  0  0  0  0  0  0  0  0  0  0  0
   -9.0732   -1.0749    0.6047 C   0  0  0  0  0  0  0  0  0  0  0  0
   -8.1486   -0.0970    0.2652 C   0  0  0  0  0  0  0  0  0  0  0  0
   -8.5420    1.2014    0.2793 F   0  0  0  0  0  0  0  0  0  0  0  0
   -4.7628    0.7360   -0.7592 N   0  0  0  0  0  0  0  0  0  0  0  0
   -1.5702    1.4526   -0.7032 N   0  0  0  0  0  0  0  0  0  0  0  0
   -1.4669    1.0270    0.6906 C   0  0  0  0  0  0  0  0  0  0  0  0
   -0.5168   -0.1147    0.7748 C   0  0  0  0  0  0  0  0  0  0  0  0
    0.8244    0.2181    0.1726 N   0  0  0  0  0  0  0  0  0  0  0  0
    1.8486   -0.5908    0.6368 C   0  0  0  0  0  0  0  0  0  0  0  0
    1.4198   -1.5133    1.5250 O   0  0  0  0  0  0  0  0  0  0  0  0
    3.2548   -0.6716    0.3830 C   0  0  0  0  0  0  0  0  0  0  0  0
    3.9825   -1.7881    0.8694 C   0  0  0  0  0  0  0  0  0  0  0  0
    5.3207   -1.8801    0.6813 C   0  0  0  0  0  0  0  0  0  0  0  0
    6.0312   -0.9016    0.0131 C   0  0  0  0  0  0  0  0  0  0  0  0
    7.4729   -0.9963   -0.1401 C   0  0  0  0  0  0  0  0  0  0  0  0
    8.4257   -1.8512    0.2693 C   0  0  0  0  0  0  0  0  0  0  0  0
    9.7028   -1.6737   -0.0021 C   0  0  0  0  0  0  0  0  0  0  0  0
   10.1207   -0.5498   -0.7507 C   0  0  0  0  0  0  0  0  0  0  0  0
    8.4868    0.2546   -1.0457 S   0  0  0  0  0  0  0  0  0  0  0  0
    5.3306    0.1698   -0.4572 C   0  0  0  0  0  0  0  0  0  0  0  0
    3.9702    0.2850   -0.2765 C   0  0  0  0  0  0  0  0  0  0  0  0
    0.4170    3.3596   -0.2517 H   0  0  0  0  0  0  0  0  0  0  0  0
    2.2158    2.9978   -0.2801 H   0  0  0  0  0  0  0  0  0  0  0  0
    1.1363    2.3687    1.0521 H   0  0  0  0  0  0  0  0  0  0  0  0
    1.5829    1.1020   -1.6341 H   0  0  0  0  0  0  0  0  0  0  0  0
   -4.4741    4.0453   -1.0832 H   0  0  0  0  0  0  0  0  0  0  0  0
   -5.4552   -1.9288   -0.3716 H   0  0  0  0  0  0  0  0  0  0  0  0
   -7.0789   -3.7441    0.2333 H   0  0  0  0  0  0  0  0  0  0  0  0
  -10.0816   -0.8760    0.8772 H   0  0  0  0  0  0  0  0  0  0  0  0
   -1.1649    1.8543    1.3142 H   0  0  0  0  0  0  0  0  0  0  0  0
   -2.4664    0.6348    1.0146 H   0  0  0  0  0  0  0  0  0  0  0  0
   -0.3703   -0.3903    1.8320 H   0  0  0  0  0  0  0  0  0  0  0  0
   -0.9023   -0.9301    0.1445 H   0  0  0  0  0  0  0  0  0  0  0  0
    3.4358   -2.5578    1.3882 H   0  0  0  0  0  0  0  0  0  0  0  0
    5.8926   -2.7413    1.0590 H   0  0  0  0  0  0  0  0  0  0  0  0
    8.0853   -2.7541    0.8752 H   0  0  0  0  0  0  0  0  0  0  0  0
   10.5239   -2.3915    0.3369 H   0  0  0  0  0  0  0  0  0  0  0  0
   11.0482   -0.1960   -1.0834 H   0  0  0  0  0  0  0  0  0  0  0  0
    5.8850    0.9280   -0.9840 H   0  0  0  0  0  0  0  0  0  0  0  0
    3.5263    1.1640   -0.6747 H   0  0  0  0  0  0  0  0  0  0  0  0
  1  2  1  0
  2  3  1  0
  3  4  2  0
  4  5  1  0
  5  6  2  0
  6  7  1  0
  7  8  2  0
  8  9  1  0
  9 10  1  0
 10 11  1  0
 11 12  2  0
 12 13  1  0
 13 14  2  0
 14 15  1  0
 14 16  1  0
 16 17  2  0
 17 18  1  0
 10 19  2  0
  6 20  1  0
 20 21  1  0
 21 22  1  0
 22 23  1  0
 23 24  1  0
 24 25  2  0
 24 26  1  0
 26 27  2  0
 27 28  1  0
 28 29  2  0
 29 30  1  0
 30 31  2  0
 31 32  1  0
 32 33  2  0
 33 34  1  0
 29 35  1  0
 35 36  2  0
 23  2  1  0
 36 26  1  0
 20  3  1  0
 34 30  1  0
 19  7  1  0
 17 11  1  0
  1 37  1  0
  1 38  1  0
  1 39  1  0
  2 40  1  6
  8 41  1  0
 12 42  1  0
 13 43  1  0
 16 44  1  0
 21 45  1  0
 21 46  1  0
 22 47  1  0
 22 48  1  0
 27 49  1  0
 28 50  1  0
 31 51  1  0
 32 52  1  0
 33 53  1  0
 35 54  1  0
 36 55  1  0
M  END
$$$$
