@<TRIPOS>MOLECULE
*****
 57 57 0 0 0
SMALL
GASTEIGER

@<TRIPOS>ATOM
      1 C          -3.9299    1.8943    0.2545 C.3     1  UNL1       -0.0653
      2 C          -5.4069    1.7853    0.2237 C.3     1  UNL1       -0.0559
      3 C          -6.0120    0.4794   -0.1633 C.3     1  UNL1       -0.0532
      4 C          -5.6980   -0.6957    0.6791 C.3     1  UNL1       -0.0504
      5 C          -4.2843   -1.1505    0.7393 C.3     1  UNL1       -0.0232
      6 C          -3.7655   -1.5987   -0.6206 C.3     1  UNL1        0.0734
      7 O          -4.5491   -2.6667   -1.0711 O.3     1  UNL1       -0.3878
      8 C          -2.3538   -2.0518   -0.5522 C.2     1  UNL1       -0.0595
      9 C          -1.4508   -1.2713    0.0213 C.2     1  UNL1       -0.0793
     10 C           0.0048   -1.4307    0.2444 C.3     1  UNL1        0.0134
     11 C           0.5833   -2.6810   -0.3798 C.3     1  UNL1        0.0688
     12 O           1.8513   -2.8924    0.1643 O.3     1  UNL1       -0.3908
     13 C           0.8503   -2.1658   -1.7976 C.3     1  UNL1        0.0327
     14 C           1.6483   -0.9372   -1.4218 C.2     1  UNL1        0.1398
     15 O           2.7599   -0.7334   -1.8869 O.2     1  UNL1       -0.2970
     16 C           0.7064   -0.2724   -0.4785 C.3     1  UNL1        0.0296
     17 C           1.3764    0.6580    0.4921 C.3     1  UNL1       -0.0246
     18 C           2.4015    0.0097    1.3148 C.2     1  UNL1       -0.0873
     19 C           3.7137    0.3182    1.3821 C.2     1  UNL1       -0.0879
     20 C           4.4716    1.3900    0.6470 C.3     1  UNL1       -0.0343
     21 C           5.5697    0.8414   -0.2047 C.3     1  UNL1       -0.0395
     22 C           6.2565    2.0231   -0.8948 C.3     1  UNL1        0.0451
     23 C           6.7983    2.9186    0.1496 C.2     1  UNL1        0.3047
     24 O           6.9599    3.1368    1.5085 O.3     1  UNL1       -0.4806
     25 O           7.3865    3.9637   -0.2905 O.2     1  UNL1       -0.2510
     26 H          -3.6076    1.8552    1.3389 H       1  UNL1        0.0230
     27 H          -3.5888    2.9424   -0.0542 H       1  UNL1        0.0230
     28 H          -3.3569    1.2318   -0.3809 H       1  UNL1        0.0230
     29 H          -5.8738    2.1448    1.1964 H       1  UNL1        0.0263
     30 H          -5.7687    2.5799   -0.5062 H       1  UNL1        0.0263
     31 H          -7.1369    0.6238   -0.0945 H       1  UNL1        0.0265
     32 H          -5.8545    0.2905   -1.2571 H       1  UNL1        0.0265
     33 H          -6.0864   -0.5046    1.7126 H       1  UNL1        0.0266
     34 H          -6.3012   -1.5873    0.3189 H       1  UNL1        0.0266
     35 H          -4.2812   -2.1080    1.3540 H       1  UNL1        0.0293
     36 H          -3.5717   -0.5017    1.2397 H       1  UNL1        0.0293
     37 H          -3.8939   -0.8073   -1.3812 H       1  UNL1        0.0637
     38 H          -4.3138   -2.8962   -1.9989 H       1  UNL1        0.2102
     39 H          -1.9068   -2.9652   -0.9121 H       1  UNL1        0.0594
     40 H          -1.7029   -0.2899    0.4542 H       1  UNL1        0.0574
     41 H           0.2334   -1.3976    1.3398 H       1  UNL1        0.0375
     42 H          -0.0538   -3.5578   -0.3423 H       1  UNL1        0.0603
     43 H           1.8549   -3.6125    0.8358 H       1  UNL1        0.2098
     44 H          -0.0648   -1.7929   -2.2661 H       1  UNL1        0.0367
     45 H           1.4238   -2.8762   -2.4030 H       1  UNL1        0.0367
     46 H          -0.0102    0.2926   -1.1081 H       1  UNL1        0.0387
     47 H           1.7495    1.5257   -0.0883 H       1  UNL1        0.0314
     48 H           0.5674    1.0692    1.1344 H       1  UNL1        0.0314
     49 H           2.0891   -0.8130    1.9478 H       1  UNL1        0.0569
     50 H           4.3748   -0.2456    2.0388 H       1  UNL1        0.0569
     51 H           4.9154    2.0184    1.4406 H       1  UNL1        0.0307
     52 H           3.7428    1.9367    0.0278 H       1  UNL1        0.0307
     53 H           5.2010    0.1699   -1.0030 H       1  UNL1        0.0273
     54 H           6.3298    0.3046    0.3910 H       1  UNL1        0.0273
     55 H           7.0639    1.6510   -1.5759 H       1  UNL1        0.0378
     56 H           5.5017    2.5998   -1.4700 H       1  UNL1        0.0378
     57 H           6.4382    3.8485    2.0123 H       1  UNL1        0.2951
@<TRIPOS>BOND
     1     1     2    1
     2     2     3    1
     3     3     4    1
     4     4     5    1
     5     5     6    1
     6     6     7    1
     7     6     8    1
     8     8     9    2
     9     9    10    1
    10    10    11    1
    11    11    12    1
    12    11    13    1
    13    13    14    1
    14    14    15    2
    15    14    16    1
    16    16    17    1
    17    17    18    1
    18    18    19    2
    19    19    20    1
    20    20    21    1
    21    21    22    1
    22    22    23    1
    23    23    24    1
    24    23    25    2
    25    16    10    1
    26     1    26    1
    27     1    27    1
    28     1    28    1
    29     2    29    1
    30     2    30    1
    31     3    31    1
    32     3    32    1
    33     4    33    1
    34     4    34    1
    35     5    35    1
    36     5    36    1
    37     6    37    1
    38     7    38    1
    39     8    39    1
    40     9    40    1
    41    10    41    1
    42    11    42    1
    43    12    43    1
    44    13    44    1
    45    13    45    1
    46    16    46    1
    47    17    47    1
    48    17    48    1
    49    18    49    1
    50    19    50    1
    51    20    51    1
    52    20    52    1
    53    21    53    1
    54    21    54    1
    55    22    55    1
    56    22    56    1
    57    24    57    1
