@<TRIPOS>MOLECULE
*****
 67 71 0 0 0
SMALL
GASTEIGER

@<TRIPOS>ATOM
      1 C          -7.1019    1.3629   -2.1546 C.3     1  UNL1       -0.0609
      2 C          -5.9700    1.0255   -1.1827 C.3     1  UNL1       -0.0259
      3 C          -6.6786    0.7728    0.1376 C.3     1  UNL1       -0.0609
      4 C          -5.1408   -0.1546   -1.6600 C.3     1  UNL1        0.0517
      5 C          -5.8697   -1.4334   -1.8080 C.3     1  UNL1        0.0665
      6 O          -5.7269   -2.2816   -0.6943 O.3     1  UNL1       -0.3764
      7 C          -4.3714   -2.4390   -0.3403 C.3     1  UNL1        0.0635
      8 C          -4.0003   -1.0777    0.3075 C.3     1  UNL1        0.0385
      9 N          -3.9471   -0.2042   -0.8420 N.am    1  UNL1       -0.2926
     10 C          -2.8179    0.6135   -1.0998 C.2     1  UNL1        0.2328
     11 O          -2.6705    1.2516   -2.1545 O.2     1  UNL1       -0.2740
     12 C          -1.7705    0.7196   -0.0651 C.3     1  UNL1        0.1054
     13 C          -0.5595    1.5083   -0.3520 C.3     1  UNL1       -0.0220
     14 C          -0.5419    0.0151   -0.0209 C.3     1  UNL1        0.0134
     15 C           0.0496   -0.3974    1.2855 C.3     1  UNL1        0.0935
     16 C          -0.4741   -1.7914    1.6286 C.3     1  UNL1       -0.0351
     17 C           1.5220   -0.5484    1.3289 C.ar    1  UNL1        0.0158
     18 C           2.4601   -0.2285    0.3860 C.ar    1  UNL1       -0.0463
     19 C           3.7918   -0.4225    0.5809 C.ar    1  UNL1       -0.0217
     20 C           4.8726    0.0183   -0.2785 C.2     1  UNL1       -0.0172
     21 C           5.8229   -0.7454   -0.7367 C.2     1  UNL1        0.1492
     22 F           5.8070   -2.0991   -0.4164 F       1  UNL1       -0.2032
     23 C           7.0897   -0.1926   -1.2876 C.ar    1  UNL1        0.0990
     24 C           7.3278    1.1668   -1.2444 C.ar    1  UNL1       -0.0322
     25 C           8.5839    1.7258   -1.4343 C.ar    1  UNL1       -0.0408
     26 C           9.6358    0.8454   -1.6779 C.ar    1  UNL1        0.0699
     27 C          10.9488    1.3827   -1.5731 C.1     1  UNL1        0.1007
     28 N          12.1005    1.8681   -1.4631 N.1     1  UNL1       -0.1908
     29 C           9.3652   -0.4903   -1.7359 C.ar    1  UNL1        0.0457
     30 N           8.1090   -1.0317   -1.5427 N.ar    1  UNL1       -0.2514
     31 C           4.1787   -0.9930    1.8412 C.ar    1  UNL1       -0.0518
     32 C           3.2918   -1.3160    2.7886 C.ar    1  UNL1       -0.0255
     33 C           1.9556   -1.1124    2.5727 C.ar    1  UNL1        0.1289
     34 F           1.0707   -1.4223    3.5447 F       1  UNL1       -0.2051
     35 N          -0.2757    0.4481    2.3675 N.2     1  UNL1       -0.2521
     36 C          -1.2082    1.1763    2.7214 C.2     1  UNL1        0.1485
     37 N          -1.2653    1.9423    3.9129 N.pl3   1  UNL1       -0.3380
     38 S          -2.5455    1.2355    1.5120 S.3     1  UNL1       -0.0746
     39 H          -7.7265    0.4879   -2.3921 H       1  UNL1        0.0233
     40 H          -7.6921    2.1666   -1.6037 H       1  UNL1        0.0233
     41 H          -6.7088    1.9000   -3.0641 H       1  UNL1        0.0233
     42 H          -5.3663    1.9451   -1.0700 H       1  UNL1        0.0314
     43 H          -6.0816    1.1066    0.9965 H       1  UNL1        0.0233
     44 H          -7.0297   -0.2401    0.2888 H       1  UNL1        0.0233
     45 H          -7.5790    1.4663    0.1644 H       1  UNL1        0.0233
     46 H          -4.8168    0.1477   -2.7122 H       1  UNL1        0.0526
     47 H          -5.5577   -2.0503   -2.6740 H       1  UNL1        0.0578
     48 H          -6.9597   -1.2718   -1.8902 H       1  UNL1        0.0578
     49 H          -4.2345   -3.2783    0.3183 H       1  UNL1        0.0575
     50 H          -3.8356   -2.5336   -1.3136 H       1  UNL1        0.0575
     51 H          -4.8638   -0.8510    0.9548 H       1  UNL1        0.0487
     52 H          -3.0879   -1.1128    0.8802 H       1  UNL1        0.0487
     53 H          -0.1005    2.1948    0.3473 H       1  UNL1        0.0287
     54 H          -0.4654    1.8346   -1.4127 H       1  UNL1        0.0287
     55 H          -0.2301   -0.5846   -0.8880 H       1  UNL1        0.0346
     56 H          -1.0261   -2.2330    0.7709 H       1  UNL1        0.0256
     57 H          -1.0359   -1.8043    2.5831 H       1  UNL1        0.0256
     58 H           0.3758   -2.5140    1.8074 H       1  UNL1        0.0256
     59 H           2.0737    0.2084   -0.5579 H       1  UNL1        0.0628
     60 H           4.8962    1.1001   -0.5841 H       1  UNL1        0.0653
     61 H           6.5221    1.8489   -1.0420 H       1  UNL1        0.0640
     62 H           8.7918    2.7928   -1.4137 H       1  UNL1        0.0631
     63 H          10.2252   -1.1454   -1.9560 H       1  UNL1        0.0843
     64 H           5.2849   -1.1157    1.9221 H       1  UNL1        0.0624
     65 H           3.6948   -1.7254    3.7304 H       1  UNL1        0.0646
     66 H          -1.8274    1.7115    4.7513 H       1  UNL1        0.1442
     67 H          -0.6871    2.8523    3.9562 H       1  UNL1        0.1442
@<TRIPOS>BOND
     1     1     2    1
     2     2     3    1
     3     2     4    1
     4     4     5    1
     5     5     6    1
     6     6     7    1
     7     7     8    1
     8     8     9    1
     9     9    10   am
    10    10    11    2
    11    12    10    1
    12    12    13    1
    13    13    14    1
    14    14    15    1
    15    15    16    1
    16    15    17    1
    17    17    18   ar
    18    18    19   ar
    19    19    20    1
    20    20    21    2
    21    21    22    1
    22    21    23    1
    23    23    24   ar
    24    24    25   ar
    25    25    26   ar
    26    26    27    1
    27    27    28    3
    28    26    29   ar
    29    29    30   ar
    30    19    31   ar
    31    31    32   ar
    32    32    33   ar
    33    33    34    1
    34    15    35    1
    35    35    36    2
    36    36    37    1
    37    36    38    1
    38     9     4    1
    39    14    12    1
    40    33    17   ar
    41    38    12    1
    42    30    23   ar
    43     1    39    1
    44     1    40    1
    45     1    41    1
    46     2    42    1
    47     3    43    1
    48     3    44    1
    49     3    45    1
    50     4    46    1
    51     5    47    1
    52     5    48    1
    53     7    49    1
    54     7    50    1
    55     8    51    1
    56     8    52    1
    57    13    53    1
    58    13    54    1
    59    14    55    1
    60    16    56    1
    61    16    57    1
    62    16    58    1
    63    18    59    1
    64    20    60    1
    65    24    61    1
    66    25    62    1
    67    29    63    1
    68    31    64    1
    69    32    65    1
    70    37    66    1
    71    37    67    1
