@<TRIPOS>MOLECULE
*****
 74 79 0 0 0
SMALL
GASTEIGER

@<TRIPOS>ATOM
      1 C          -6.2132   -4.4191    0.3906 C.3     1  UNL1       -0.0151
      2 N          -5.1385   -5.2557   -0.0457 N.3     1  UNL1       -0.3089
      3 C          -4.4749   -4.8336   -1.2411 C.3     1  UNL1        0.0820
      4 C          -5.4290   -4.7682   -2.4147 C.3     1  UNL1       -0.0411
      5 C          -3.7981   -3.5166   -1.0797 C.2     1  UNL1        0.2350
      6 O          -3.8918   -2.9479    0.0355 O.2     1  UNL1       -0.2737
      7 N          -3.0724   -2.9261   -2.1496 N.am    1  UNL1       -0.2691
      8 C          -2.4691   -1.6660   -1.8769 C.ar    1  UNL1        0.1263
      9 C          -3.1467   -0.4716   -2.1178 C.ar    1  UNL1       -0.0208
     10 C          -2.5548    0.7513   -1.8459 C.ar    1  UNL1       -0.0466
     11 C          -1.2748    0.7839   -1.3284 C.ar    1  UNL1        0.0349
     12 C          -0.6079    2.0221   -1.0214 C.ar    1  UNL1        0.0837
     13 C          -1.0042    2.9066   -0.0282 C.ar    1  UNL1        0.0978
     14 C          -2.1321    2.7958    0.8865 C.ar    1  UNL1        0.0056
     15 C          -3.1321    3.7309    1.0164 C.ar    1  UNL1       -0.0343
     16 C          -4.1696    3.5479    1.8986 C.ar    1  UNL1        0.0285
     17 N          -4.2075    2.4392    2.6447 N.ar    1  UNL1       -0.2601
     18 C          -3.2625    1.4884    2.5653 C.ar    1  UNL1        0.0388
     19 C          -3.3666    0.2916    3.4140 C.3     1  UNL1       -0.0223
     20 C          -2.2006    1.6659    1.6691 C.ar    1  UNL1       -0.0314
     21 N          -0.1193    3.9143   -0.0793 N.ar    1  UNL1       -0.2272
     22 C           0.7836    3.6509   -1.0700 C.ar    1  UNL1        0.1390
     23 C           1.8729    4.3931   -1.4970 C.ar    1  UNL1       -0.0158
     24 C           2.6712    3.9477   -2.5294 C.ar    1  UNL1       -0.0456
     25 C           3.8538    4.7381   -3.0053 C.3     1  UNL1       -0.0395
     26 C           2.3376    2.7412   -3.1104 C.ar    1  UNL1       -0.0421
     27 C           1.2513    2.0071   -2.6800 C.ar    1  UNL1        0.0120
     28 N           0.4871    2.4789   -1.6588 N.ar    1  UNL1       -0.2986
     29 C          -0.6189   -0.4063   -1.0958 C.ar    1  UNL1        0.1250
     30 C           0.7234   -0.4547   -0.5436 C.1     1  UNL1       -0.0404
     31 C           1.8408   -0.4892   -0.0811 C.1     1  UNL1       -0.0595
     32 C           3.1576   -0.5240    0.4896 C.ar    1  UNL1        0.0259
     33 C           4.2582   -1.0045   -0.1901 C.ar    1  UNL1       -0.0457
     34 C           5.5190   -1.0367    0.3642 C.ar    1  UNL1       -0.0512
     35 C           5.6887   -0.5719    1.6463 C.ar    1  UNL1        0.0032
     36 C           6.9354   -0.6004    2.2038 C.ar    1  UNL1        0.0459
     37 C           8.0987   -1.1240    1.4472 C.3     1  UNL1       -0.0218
     38 N           7.1356   -0.1556    3.4491 N.ar    1  UNL1       -0.2595
     39 C           6.0917    0.3247    4.1563 C.ar    1  UNL1        0.0285
     40 C           4.8119    0.3769    3.6436 C.ar    1  UNL1       -0.0358
     41 C           4.5985   -0.0785    2.3644 C.ar    1  UNL1       -0.0136
     42 C           3.3418   -0.0619    1.7710 C.ar    1  UNL1       -0.0385
     43 N          -1.2265   -1.5734   -1.3727 N.ar    1  UNL1       -0.2229
     44 H          -6.1185   -4.2803    1.5011 H       1  UNL1        0.0388
     45 H          -7.2162   -4.9236    0.2755 H       1  UNL1        0.0388
     46 H          -6.2056   -3.4081   -0.0497 H       1  UNL1        0.0388
     47 H          -4.5157   -5.5092    0.7242 H       1  UNL1        0.1223
     48 H          -3.7263   -5.6165   -1.4933 H       1  UNL1        0.0554
     49 H          -5.8943   -5.7895   -2.5081 H       1  UNL1        0.0249
     50 H          -6.2422   -4.0546   -2.2479 H       1  UNL1        0.0249
     51 H          -4.8393   -4.5800   -3.3338 H       1  UNL1        0.0249
     52 H          -2.9997   -3.4059   -3.0726 H       1  UNL1        0.1563
     53 H          -4.1436   -0.5709   -2.5224 H       1  UNL1        0.0652
     54 H          -3.1213    1.6553   -2.0507 H       1  UNL1        0.0626
     55 H          -3.0563    4.6205    0.3854 H       1  UNL1        0.0639
     56 H          -4.9581    4.2836    2.0041 H       1  UNL1        0.0830
     57 H          -3.7739   -0.5863    2.8370 H       1  UNL1        0.0292
     58 H          -4.0996    0.4951    4.2183 H       1  UNL1        0.0292
     59 H          -2.4097    0.0274    3.9084 H       1  UNL1        0.0292
     60 H          -1.4793    0.8761    1.6493 H       1  UNL1        0.0642
     61 H           2.1187    5.3377   -1.0281 H       1  UNL1        0.0657
     62 H           4.7372    4.0925   -2.9638 H       1  UNL1        0.0278
     63 H           3.9434    5.6912   -2.4801 H       1  UNL1        0.0278
     64 H           3.6162    4.9905   -4.0735 H       1  UNL1        0.0278
     65 H           2.9388    2.3566   -3.9231 H       1  UNL1        0.0635
     66 H           1.0121    1.0610   -3.1558 H       1  UNL1        0.0813
     67 H           4.0911   -1.3650   -1.1988 H       1  UNL1        0.0630
     68 H           6.3768   -1.4112   -0.1655 H       1  UNL1        0.0625
     69 H           7.8523   -2.1271    1.0416 H       1  UNL1        0.0293
     70 H           8.4393   -0.4438    0.6599 H       1  UNL1        0.0293
     71 H           8.9696   -1.2931    2.1336 H       1  UNL1        0.0293
     72 H           6.2942    0.6806    5.1762 H       1  UNL1        0.0830
     73 H           3.9716    0.7620    4.2106 H       1  UNL1        0.0639
     74 H           2.4906    0.3243    2.3313 H       1  UNL1        0.0636
@<TRIPOS>BOND
     1     1     2    1
     2     2     3    1
     3     3     4    1
     4     3     5    1
     5     5     6    2
     6     5     7   am
     7     7     8    1
     8     8     9   ar
     9     9    10   ar
    10    10    11   ar
    11    11    12    1
    12    12    13   ar
    13    13    14    1
    14    14    15   ar
    15    15    16   ar
    16    16    17   ar
    17    17    18   ar
    18    18    19    1
    19    18    20   ar
    20    13    21   ar
    21    21    22   ar
    22    22    23   ar
    23    23    24   ar
    24    24    25    1
    25    24    26   ar
    26    26    27   ar
    27    27    28   ar
    28    11    29   ar
    29    29    30    1
    30    30    31    3
    31    31    32    1
    32    32    33   ar
    33    33    34   ar
    34    34    35   ar
    35    35    36   ar
    36    36    37    1
    37    36    38   ar
    38    38    39   ar
    39    39    40   ar
    40    40    41   ar
    41    41    42   ar
    42    29    43   ar
    43    43     8   ar
    44    28    12   ar
    45    42    32   ar
    46    20    14   ar
    47    28    22   ar
    48    41    35   ar
    49     1    44    1
    50     1    45    1
    51     1    46    1
    52     2    47    1
    53     3    48    1
    54     4    49    1
    55     4    50    1
    56     4    51    1
    57     7    52    1
    58     9    53    1
    59    10    54    1
    60    15    55    1
    61    16    56    1
    62    19    57    1
    63    19    58    1
    64    19    59    1
    65    20    60    1
    66    23    61    1
    67    25    62    1
    68    25    63    1
    69    25    64    1
    70    26    65    1
    71    27    66    1
    72    33    67    1
    73    34    68    1
    74    37    69    1
    75    37    70    1
    76    37    71    1
    77    39    72    1
    78    40    73    1
    79    42    74    1
