
     RDKit          3D

 74 79  0  0  0  0  0  0  0  0999 V2000
   -6.2132   -4.4191    0.3906 C   0  0  0  0  0  0  0  0  0  0  0  0
   -5.1385   -5.2557   -0.0457 N   0  0  0  0  0  0  0  0  0  0  0  0
   -4.4749   -4.8336   -1.2411 C   0  0  1  0  0  0  0  0  0  0  0  0
   -5.4290   -4.7682   -2.4147 C   0  0  0  0  0  0  0  0  0  0  0  0
   -3.7981   -3.5166   -1.0797 C   0  0  0  0  0  0  0  0  0  0  0  0
   -3.8918   -2.9479    0.0355 O   0  0  0  0  0  0  0  0  0  0  0  0
   -3.0724   -2.9261   -2.1496 N   0  0  0  0  0  0  0  0  0  0  0  0
   -2.4691   -1.6660   -1.8769 C   0  0  0  0  0  0  0  0  0  0  0  0
   -3.1467   -0.4716   -2.1178 C   0  0  0  0  0  0  0  0  0  0  0  0
   -2.5548    0.7513   -1.8459 C   0  0  0  0  0  0  0  0  0  0  0  0
   -1.2748    0.7839   -1.3284 C   0  0  0  0  0  0  0  0  0  0  0  0
   -0.6079    2.0221   -1.0214 C   0  0  0  0  0  0  0  0  0  0  0  0
   -1.0042    2.9066   -0.0282 C   0  0  0  0  0  0  0  0  0  0  0  0
   -2.1321    2.7958    0.8865 C   0  0  0  0  0  0  0  0  0  0  0  0
   -3.1321    3.7309    1.0164 C   0  0  0  0  0  0  0  0  0  0  0  0
   -4.1696    3.5479    1.8986 C   0  0  0  0  0  0  0  0  0  0  0  0
   -4.2075    2.4392    2.6447 N   0  0  0  0  0  0  0  0  0  0  0  0
   -3.2625    1.4884    2.5653 C   0  0  0  0  0  0  0  0  0  0  0  0
   -3.3666    0.2916    3.4140 C   0  0  0  0  0  0  0  0  0  0  0  0
   -2.2006    1.6659    1.6691 C   0  0  0  0  0  0  0  0  0  0  0  0
   -0.1193    3.9143   -0.0793 N   0  0  0  0  0  0  0  0  0  0  0  0
    0.7836    3.6509   -1.0700 C   0  0  0  0  0  0  0  0  0  0  0  0
    1.8729    4.3931   -1.4970 C   0  0  0  0  0  0  0  0  0  0  0  0
    2.6712    3.9477   -2.5294 C   0  0  0  0  0  0  0  0  0  0  0  0
    3.8538    4.7381   -3.0053 C   0  0  0  0  0  0  0  0  0  0  0  0
    2.3376    2.7412   -3.1104 C   0  0  0  0  0  0  0  0  0  0  0  0
    1.2513    2.0071   -2.6800 C   0  0  0  0  0  0  0  0  0  0  0  0
    0.4871    2.4789   -1.6588 N   0  0  0  0  0  0  0  0  0  0  0  0
   -0.6189   -0.4063   -1.0958 C   0  0  0  0  0  0  0  0  0  0  0  0
    0.7234   -0.4547   -0.5436 C   0  0  0  0  0  0  0  0  0  0  0  0
    1.8408   -0.4892   -0.0811 C   0  0  0  0  0  0  0  0  0  0  0  0
    3.1576   -0.5240    0.4896 C   0  0  0  0  0  0  0  0  0  0  0  0
    4.2582   -1.0045   -0.1901 C   0  0  0  0  0  0  0  0  0  0  0  0
    5.5190   -1.0367    0.3642 C   0  0  0  0  0  0  0  0  0  0  0  0
    5.6887   -0.5719    1.6463 C   0  0  0  0  0  0  0  0  0  0  0  0
    6.9354   -0.6004    2.2038 C   0  0  0  0  0  0  0  0  0  0  0  0
    8.0987   -1.1240    1.4472 C   0  0  0  0  0  0  0  0  0  0  0  0
    7.1356   -0.1556    3.4491 N   0  0  0  0  0  0  0  0  0  0  0  0
    6.0917    0.3247    4.1563 C   0  0  0  0  0  0  0  0  0  0  0  0
    4.8119    0.3769    3.6436 C   0  0  0  0  0  0  0  0  0  0  0  0
    4.5985   -0.0785    2.3644 C   0  0  0  0  0  0  0  0  0  0  0  0
    3.3418   -0.0619    1.7710 C   0  0  0  0  0  0  0  0  0  0  0  0
   -1.2265   -1.5734   -1.3727 N   0  0  0  0  0  0  0  0  0  0  0  0
   -6.1185   -4.2803    1.5011 H   0  0  0  0  0  0  0  0  0  0  0  0
   -7.2162   -4.9236    0.2755 H   0  0  0  0  0  0  0  0  0  0  0  0
   -6.2056   -3.4081   -0.0497 H   0  0  0  0  0  0  0  0  0  0  0  0
   -4.5157   -5.5092    0.7242 H   0  0  0  0  0  0  0  0  0  0  0  0
   -3.7263   -5.6165   -1.4933 H   0  0  0  0  0  0  0  0  0  0  0  0
   -5.8943   -5.7895   -2.5081 H   0  0  0  0  0  0  0  0  0  0  0  0
   -6.2422   -4.0546   -2.2479 H   0  0  0  0  0  0  0  0  0  0  0  0
   -4.8393   -4.5800   -3.3338 H   0  0  0  0  0  0  0  0  0  0  0  0
   -2.9997   -3.4059   -3.0726 H   0  0  0  0  0  0  0  0  0  0  0  0
   -4.1436   -0.5709   -2.5224 H   0  0  0  0  0  0  0  0  0  0  0  0
   -3.1213    1.6553   -2.0507 H   0  0  0  0  0  0  0  0  0  0  0  0
   -3.0563    4.6205    0.3854 H   0  0  0  0  0  0  0  0  0  0  0  0
   -4.9581    4.2836    2.0041 H   0  0  0  0  0  0  0  0  0  0  0  0
   -3.7739   -0.5863    2.8370 H   0  0  0  0  0  0  0  0  0  0  0  0
   -4.0996    0.4951    4.2183 H   0  0  0  0  0  0  0  0  0  0  0  0
   -2.4097    0.0274    3.9084 H   0  0  0  0  0  0  0  0  0  0  0  0
   -1.4793    0.8761    1.6493 H   0  0  0  0  0  0  0  0  0  0  0  0
    2.1187    5.3377   -1.0281 H   0  0  0  0  0  0  0  0  0  0  0  0
    4.7372    4.0925   -2.9638 H   0  0  0  0  0  0  0  0  0  0  0  0
    3.9434    5.6912   -2.4801 H   0  0  0  0  0  0  0  0  0  0  0  0
    3.6162    4.9905   -4.0735 H   0  0  0  0  0  0  0  0  0  0  0  0
    2.9388    2.3566   -3.9231 H   0  0  0  0  0  0  0  0  0  0  0  0
    1.0121    1.0610   -3.1558 H   0  0  0  0  0  0  0  0  0  0  0  0
    4.0911   -1.3650   -1.1988 H   0  0  0  0  0  0  0  0  0  0  0  0
    6.3768   -1.4112   -0.1655 H   0  0  0  0  0  0  0  0  0  0  0  0
    7.8523   -2.1271    1.0416 H   0  0  0  0  0  0  0  0  0  0  0  0
    8.4393   -0.4438    0.6599 H   0  0  0  0  0  0  0  0  0  0  0  0
    8.9696   -1.2931    2.1336 H   0  0  0  0  0  0  0  0  0  0  0  0
    6.2942    0.6806    5.1762 H   0  0  0  0  0  0  0  0  0  0  0  0
    3.9716    0.7620    4.2106 H   0  0  0  0  0  0  0  0  0  0  0  0
    2.4906    0.3243    2.3313 H   0  0  0  0  0  0  0  0  0  0  0  0
  1  2  1  0
  2  3  1  0
  3  4  1  0
  3  5  1  0
  5  6  2  0
  5  7  1  0
  7  8  1  0
  8  9  2  0
  9 10  1  0
 10 11  2  0
 11 12  1  0
 12 13  2  0
 13 14  1  0
 14 15  2  0
 15 16  1  0
 16 17  2  0
 17 18  1  0
 18 19  1  0
 18 20  2  0
 13 21  1  0
 21 22  2  0
 22 23  1  0
 23 24  2  0
 24 25  1  0
 24 26  1  0
 26 27  2  0
 27 28  1  0
 11 29  1  0
 29 30  1  0
 30 31  3  0
 31 32  1  0
 32 33  2  0
 33 34  1  0
 34 35  2  0
 35 36  1  0
 36 37  1  0
 36 38  2  0
 38 39  1  0
 39 40  2  0
 40 41  1  0
 41 42  2  0
 29 43  2  0
 43  8  1  0
 28 12  1  0
 42 32  1  0
 20 14  1  0
 28 22  1  0
 41 35  1  0
  1 44  1  0
  1 45  1  0
  1 46  1  0
  2 47  1  0
  3 48  1  6
  4 49  1  0
  4 50  1  0
  4 51  1  0
  7 52  1  0
  9 53  1  0
 10 54  1  0
 15 55  1  0
 16 56  1  0
 19 57  1  0
 19 58  1  0
 19 59  1  0
 20 60  1  0
 23 61  1  0
 25 62  1  0
 25 63  1  0
 25 64  1  0
 26 65  1  0
 27 66  1  0
 33 67  1  0
 34 68  1  0
 37 69  1  0
 37 70  1  0
 37 71  1  0
 39 72  1  0
 40 73  1  0
 42 74  1  0
M  END
$$$$
