
     RDKit          3D

 55 59  0  0  0  0  0  0  0  0999 V2000
   -2.1436    3.8680   -1.5426 C   0  0  0  0  0  0  0  0  0  0  0  0
   -2.3234    2.7155   -0.6250 C   0  0  0  0  0  0  0  0  0  0  0  0
   -2.4871    2.9287    0.7275 C   0  0  0  0  0  0  0  0  0  0  0  0
   -2.6598    1.8964    1.6388 C   0  0  0  0  0  0  0  0  0  0  0  0
   -2.6662    0.5845    1.1508 C   0  0  0  0  0  0  0  0  0  0  0  0
   -2.8358   -0.5404    2.0007 N   0  0  0  0  0  0  0  0  0  0  0  0
   -3.9285   -1.2972    2.0313 N   0  0  0  0  0  0  0  0  0  0  0  0
   -3.7875   -2.2797    2.9336 C   0  0  0  0  0  0  0  0  0  0  0  0
   -2.5381   -2.1300    3.4988 C   0  0  0  0  0  0  0  0  0  0  0  0
   -2.0047   -1.0548    2.8917 N   0  0  0  0  0  0  0  0  0  0  0  0
   -2.5051    0.3456   -0.1926 C   0  0  0  0  0  0  0  0  0  0  0  0
   -2.5192   -1.0181   -0.6674 C   0  0  0  0  0  0  0  0  0  0  0  0
   -3.6743   -1.4601   -0.9996 O   0  0  0  0  0  0  0  0  0  0  0  0
   -1.4109   -1.8554   -0.7854 N   0  0  0  0  0  0  0  0  0  0  0  0
   -1.5878   -3.2068   -1.2800 C   0  0  0  0  0  0  0  0  0  0  0  0
   -1.2628   -4.1351   -0.1305 C   0  0  0  0  0  0  0  0  0  0  0  0
   -0.1831   -3.6717    0.5823 O   0  0  0  0  0  0  0  0  0  0  0  0
    0.6475   -2.8355   -0.1627 C   0  0  0  0  0  0  0  0  0  0  0  0
   -0.0439   -1.5018   -0.4472 C   0  0  1  0  0  0  0  0  0  0  0  0
    0.6660   -0.8325   -1.5896 C   0  0  0  0  0  0  0  0  0  0  0  0
    2.0565   -0.4611   -1.2620 C   0  0  0  0  0  0  0  0  0  0  0  0
    3.0942   -1.3269   -1.5123 C   0  0  0  0  0  0  0  0  0  0  0  0
    4.4167   -0.9878   -1.2033 C   0  0  0  0  0  0  0  0  0  0  0  0
    4.6856    0.2344   -0.6387 C   0  0  0  0  0  0  0  0  0  0  0  0
    3.6599    1.1146   -0.3808 C   0  0  0  0  0  0  0  0  0  0  0  0
    3.9301    2.3836    0.2043 N   0  0  0  0  0  0  0  0  0  0  0  0
    3.3523    2.8794    1.2937 N   0  0  0  0  0  0  0  0  0  0  0  0
    3.8505    4.1010    1.5571 C   0  0  0  0  0  0  0  0  0  0  0  0
    4.7844    4.3579    0.5680 C   0  0  0  0  0  0  0  0  0  0  0  0
    4.7871    3.2859   -0.2172 N   0  0  0  0  0  0  0  0  0  0  0  0
    2.3515    0.7590   -0.6951 C   0  0  0  0  0  0  0  0  0  0  0  0
   -2.3357    1.3942   -1.0715 C   0  0  0  0  0  0  0  0  0  0  0  0
   -2.7865    4.7401   -1.2313 H   0  0  0  0  0  0  0  0  0  0  0  0
   -1.0912    4.2549   -1.5063 H   0  0  0  0  0  0  0  0  0  0  0  0
   -2.4313    3.6352   -2.5882 H   0  0  0  0  0  0  0  0  0  0  0  0
   -2.4804    3.9438    1.0919 H   0  0  0  0  0  0  0  0  0  0  0  0
   -2.7873    2.0746    2.6975 H   0  0  0  0  0  0  0  0  0  0  0  0
   -4.5131   -3.0632    3.1897 H   0  0  0  0  0  0  0  0  0  0  0  0
   -2.0810   -2.7554    4.2763 H   0  0  0  0  0  0  0  0  0  0  0  0
   -0.8229   -3.4332   -2.0786 H   0  0  0  0  0  0  0  0  0  0  0  0
   -2.5915   -3.3736   -1.6977 H   0  0  0  0  0  0  0  0  0  0  0  0
   -2.1524   -4.0873    0.5622 H   0  0  0  0  0  0  0  0  0  0  0  0
   -1.1090   -5.1780   -0.4688 H   0  0  0  0  0  0  0  0  0  0  0  0
    1.0133   -3.3221   -1.0754 H   0  0  0  0  0  0  0  0  0  0  0  0
    1.5204   -2.6033    0.4769 H   0  0  0  0  0  0  0  0  0  0  0  0
   -0.0248   -0.9195    0.4782 H   0  0  0  0  0  0  0  0  0  0  0  0
    0.6311   -1.5042   -2.4888 H   0  0  0  0  0  0  0  0  0  0  0  0
    0.1230    0.0957   -1.8561 H   0  0  0  0  0  0  0  0  0  0  0  0
    2.9740   -2.3048   -1.9555 H   0  0  0  0  0  0  0  0  0  0  0  0
    5.2325   -1.6519   -1.3928 H   0  0  0  0  0  0  0  0  0  0  0  0
    5.7094    0.4936   -0.4010 H   0  0  0  0  0  0  0  0  0  0  0  0
    3.5600    4.7252    2.3782 H   0  0  0  0  0  0  0  0  0  0  0  0
    5.3473    5.2658    0.5210 H   0  0  0  0  0  0  0  0  0  0  0  0
    1.5826    1.4758   -0.4770 H   0  0  0  0  0  0  0  0  0  0  0  0
   -2.2072    1.2377   -2.1293 H   0  0  0  0  0  0  0  0  0  0  0  0
  1  2  1  0
  2  3  2  0
  3  4  1  0
  4  5  2  0
  5  6  1  0
  6  7  1  0
  7  8  2  0
  8  9  1  0
  9 10  2  0
  5 11  1  0
 11 12  1  0
 12 13  2  0
 12 14  1  0
 14 15  1  0
 15 16  1  0
 16 17  1  0
 17 18  1  0
 18 19  1  0
 19 20  1  0
 20 21  1  0
 21 22  2  0
 22 23  1  0
 23 24  2  0
 24 25  1  0
 25 26  1  0
 26 27  1  0
 27 28  2  0
 28 29  1  0
 29 30  2  0
 25 31  2  0
 11 32  2  0
 32  2  1  0
 10  6  1  0
 19 14  1  0
 31 21  1  0
 30 26  1  0
  1 33  1  0
  1 34  1  0
  1 35  1  0
  3 36  1  0
  4 37  1  0
  8 38  1  0
  9 39  1  0
 15 40  1  0
 15 41  1  0
 16 42  1  0
 16 43  1  0
 18 44  1  0
 18 45  1  0
 19 46  1  1
 20 47  1  0
 20 48  1  0
 22 49  1  0
 23 50  1  0
 24 51  1  0
 28 52  1  0
 29 53  1  0
 31 54  1  0
 32 55  1  0
M  END
$$$$
