@<TRIPOS>MOLECULE
*****
 55 59 0 0 0
SMALL
GASTEIGER

@<TRIPOS>ATOM
      1 C          -2.1436    3.8680   -1.5426 C.3     1  UNL1       -0.0397
      2 C          -2.3234    2.7155   -0.6250 C.ar    1  UNL1       -0.0496
      3 C          -2.4871    2.9287    0.7275 C.ar    1  UNL1       -0.0567
      4 C          -2.6598    1.8964    1.6388 C.ar    1  UNL1       -0.0336
      5 C          -2.6662    0.5845    1.1508 C.ar    1  UNL1        0.0982
      6 N          -2.8358   -0.5404    2.0007 N.ar    1  UNL1       -0.1496
      7 N          -3.9285   -1.2972    2.0313 N.ar    1  UNL1       -0.1556
      8 C          -3.7875   -2.2797    2.9336 C.ar    1  UNL1        0.0697
      9 C          -2.5381   -2.1300    3.4988 C.ar    1  UNL1        0.0697
     10 N          -2.0047   -1.0548    2.8917 N.ar    1  UNL1       -0.1556
     11 C          -2.5051    0.3456   -0.1926 C.ar    1  UNL1        0.0642
     12 C          -2.5192   -1.0181   -0.6674 C.2     1  UNL1        0.2491
     13 O          -3.6743   -1.4601   -0.9996 O.2     1  UNL1       -0.2699
     14 N          -1.4109   -1.8554   -0.7854 N.am    1  UNL1       -0.2897
     15 C          -1.5878   -3.2068   -1.2800 C.3     1  UNL1        0.0388
     16 C          -1.2628   -4.1351   -0.1305 C.3     1  UNL1        0.0635
     17 O          -0.1831   -3.6717    0.5823 O.3     1  UNL1       -0.3764
     18 C           0.6475   -2.8355   -0.1627 C.3     1  UNL1        0.0666
     19 C          -0.0439   -1.5018   -0.4472 C.3     1  UNL1        0.0537
     20 C           0.6660   -0.8325   -1.5896 C.3     1  UNL1       -0.0068
     21 C           2.0565   -0.4611   -1.2620 C.ar    1  UNL1       -0.0435
     22 C           3.0942   -1.3269   -1.5123 C.ar    1  UNL1       -0.0584
     23 C           4.4167   -0.9878   -1.2033 C.ar    1  UNL1       -0.0594
     24 C           4.6856    0.2344   -0.6387 C.ar    1  UNL1       -0.0345
     25 C           3.6599    1.1146   -0.3808 C.ar    1  UNL1        0.0864
     26 N           3.9301    2.3836    0.2043 N.ar    1  UNL1       -0.1503
     27 N           3.3523    2.8794    1.2937 N.ar    1  UNL1       -0.1556
     28 C           3.8505    4.1010    1.5571 C.ar    1  UNL1        0.0697
     29 C           4.7844    4.3579    0.5680 C.ar    1  UNL1        0.0697
     30 N           4.7871    3.2859   -0.2172 N.ar    1  UNL1       -0.1556
     31 C           2.3515    0.7590   -0.6951 C.ar    1  UNL1       -0.0313
     32 C          -2.3357    1.3942   -1.0715 C.ar    1  UNL1       -0.0446
     33 H          -2.7865    4.7401   -1.2313 H       1  UNL1        0.0278
     34 H          -1.0912    4.2549   -1.5063 H       1  UNL1        0.0278
     35 H          -2.4313    3.6352   -2.5882 H       1  UNL1        0.0278
     36 H          -2.4804    3.9438    1.0919 H       1  UNL1        0.0621
     37 H          -2.7873    2.0746    2.6975 H       1  UNL1        0.0640
     38 H          -4.5131   -3.0632    3.1897 H       1  UNL1        0.0864
     39 H          -2.0810   -2.7554    4.2763 H       1  UNL1        0.0864
     40 H          -0.8229   -3.4332   -2.0786 H       1  UNL1        0.0487
     41 H          -2.5915   -3.3736   -1.6977 H       1  UNL1        0.0487
     42 H          -2.1524   -4.0873    0.5622 H       1  UNL1        0.0575
     43 H          -1.1090   -5.1780   -0.4688 H       1  UNL1        0.0575
     44 H           1.0133   -3.3221   -1.0754 H       1  UNL1        0.0578
     45 H           1.5204   -2.6033    0.4769 H       1  UNL1        0.0578
     46 H          -0.0248   -0.9195    0.4782 H       1  UNL1        0.0526
     47 H           0.6311   -1.5042   -2.4888 H       1  UNL1        0.0332
     48 H           0.1230    0.0957   -1.8561 H       1  UNL1        0.0332
     49 H           2.9740   -2.3048   -1.9555 H       1  UNL1        0.0620
     50 H           5.2325   -1.6519   -1.3928 H       1  UNL1        0.0618
     51 H           5.7094    0.4936   -0.4010 H       1  UNL1        0.0639
     52 H           3.5600    4.7252    2.3782 H       1  UNL1        0.0864
     53 H           5.3473    5.2658    0.5210 H       1  UNL1        0.0864
     54 H           1.5826    1.4758   -0.4770 H       1  UNL1        0.0642
     55 H          -2.2072    1.2377   -2.1293 H       1  UNL1        0.0628
@<TRIPOS>BOND
     1     1     2    1
     2     2     3   ar
     3     3     4   ar
     4     4     5   ar
     5     5     6    1
     6     6     7   ar
     7     7     8   ar
     8     8     9   ar
     9     9    10   ar
    10     5    11   ar
    11    11    12    1
    12    12    13    2
    13    12    14   am
    14    14    15    1
    15    15    16    1
    16    16    17    1
    17    17    18    1
    18    18    19    1
    19    19    20    1
    20    20    21    1
    21    21    22   ar
    22    22    23   ar
    23    23    24   ar
    24    24    25   ar
    25    25    26    1
    26    26    27   ar
    27    27    28   ar
    28    28    29   ar
    29    29    30   ar
    30    25    31   ar
    31    11    32   ar
    32    32     2   ar
    33    10     6   ar
    34    19    14    1
    35    31    21   ar
    36    30    26   ar
    37     1    33    1
    38     1    34    1
    39     1    35    1
    40     3    36    1
    41     4    37    1
    42     8    38    1
    43     9    39    1
    44    15    40    1
    45    15    41    1
    46    16    42    1
    47    16    43    1
    48    18    44    1
    49    18    45    1
    50    19    46    1
    51    20    47    1
    52    20    48    1
    53    22    49    1
    54    23    50    1
    55    24    51    1
    56    28    52    1
    57    29    53    1
    58    31    54    1
    59    32    55    1
