@<TRIPOS>MOLECULE
*****
 63 65 0 0 0
SMALL
GASTEIGER

@<TRIPOS>ATOM
      1 C           4.0819   -2.4776    2.5787 C.3     1  UNL1       -0.0652
      2 C           4.6041   -1.0593    2.5559 C.3     1  UNL1       -0.0548
      3 C           3.3969   -0.1666    2.2011 C.3     1  UNL1       -0.0405
      4 C           2.9218   -0.6144    0.8671 C.3     1  UNL1       -0.0011
      5 N           1.8407   -0.0278    0.2509 N.3     1  UNL1       -0.3022
      6 C           1.5707   -0.5955   -1.0417 C.3     1  UNL1       -0.0011
      7 C           2.6390   -0.2696   -2.0349 C.3     1  UNL1       -0.0405
      8 C           2.3651   -0.8515   -3.4105 C.3     1  UNL1       -0.0548
      9 C           3.5197   -0.4583   -4.3287 C.3     1  UNL1       -0.0652
     10 C           1.4364    1.2905    0.3432 C.3     1  UNL1        0.0015
     11 C           0.8738    1.7977    1.6455 C.3     1  UNL1       -0.0099
     12 C          -0.3357    1.1335    2.1561 C.3     1  UNL1        0.0819
     13 O          -0.7308    1.7409    3.3898 O.3     1  UNL1       -0.3871
     14 C          -1.5207    1.0627    1.3371 C.ar    1  UNL1       -0.0108
     15 C          -2.0696    0.0603    0.5672 C.ar    1  UNL1       -0.0116
     16 C          -1.3521   -1.1155    0.5966 C.ar    1  UNL1       -0.0531
     17 C          -1.7864   -2.1991   -0.1183 C.ar    1  UNL1       -0.0495
     18 C          -2.9459   -2.1202   -0.8730 C.ar    1  UNL1        0.0554
     19 C          -3.6448   -0.9340   -0.8856 C.ar    1  UNL1       -0.0418
     20 C          -3.2226    0.1480   -0.1792 C.ar    1  UNL1       -0.0092
     21 C          -3.9057    1.3397   -0.1684 C.ar    1  UNL1       -0.0074
     22 C          -5.0607    1.4457   -0.9072 C.ar    1  UNL1       -0.0350
     23 C          -5.7888    2.6277   -0.9293 C.ar    1  UNL1        0.0430
     24 CL         -7.2783    2.8466   -1.8492 Cl      1  UNL1       -0.0835
     25 C          -5.3095    3.7007   -0.1784 C.ar    1  UNL1       -0.0244
     26 C          -4.1486    3.5699    0.5548 C.ar    1  UNL1        0.0501
     27 CL         -3.5833    4.9468    1.4845 Cl      1  UNL1       -0.0829
     28 C          -3.4311    2.3949    0.5726 C.ar    1  UNL1        0.0015
     29 C          -2.2662    2.2489    1.3035 C.ar    1  UNL1       -0.0464
     30 C          -3.3670   -3.3477   -1.6326 C.3     1  UNL1        0.4174
     31 F          -3.9538   -3.0134   -2.8361 F       1  UNL1       -0.1659
     32 F          -2.2078   -4.0376   -1.9540 F       1  UNL1       -0.1659
     33 F          -4.2256   -4.1300   -0.9091 F       1  UNL1       -0.1659
     34 H           4.5789   -3.0868    3.3692 H       1  UNL1        0.0230
     35 H           4.1562   -2.9860    1.5826 H       1  UNL1        0.0230
     36 H           3.0072   -2.4907    2.8519 H       1  UNL1        0.0230
     37 H           5.4098   -0.9329    1.8184 H       1  UNL1        0.0263
     38 H           4.8772   -0.7984    3.5834 H       1  UNL1        0.0263
     39 H           3.8054    0.8642    2.2170 H       1  UNL1        0.0277
     40 H           2.6476   -0.3859    2.9816 H       1  UNL1        0.0277
     41 H           3.8556   -0.6820    0.2143 H       1  UNL1        0.0426
     42 H           2.6854   -1.7267    0.9979 H       1  UNL1        0.0426
     43 H           0.6033   -0.2034   -1.4241 H       1  UNL1        0.0426
     44 H           1.4767   -1.7051   -0.9677 H       1  UNL1        0.0426
     45 H           3.6494   -0.6252   -1.7557 H       1  UNL1        0.0277
     46 H           2.7582    0.8290   -2.1913 H       1  UNL1        0.0277
     47 H           1.4838   -0.3319   -3.8139 H       1  UNL1        0.0263
     48 H           2.2618   -1.9340   -3.4243 H       1  UNL1        0.0263
     49 H           4.4750   -0.4171   -3.7445 H       1  UNL1        0.0230
     50 H           3.3632    0.4958   -4.8304 H       1  UNL1        0.0230
     51 H           3.6370   -1.2468   -5.0994 H       1  UNL1        0.0230
     52 H           0.5685    1.4313   -0.3895 H       1  UNL1        0.0427
     53 H           2.1800    2.0418   -0.0763 H       1  UNL1        0.0427
     54 H           1.6513    1.7091    2.4311 H       1  UNL1        0.0306
     55 H           0.7713    2.9002    1.4985 H       1  UNL1        0.0306
     56 H          -0.0374    0.1090    2.4863 H       1  UNL1        0.0644
     57 H          -1.3737    1.1261    3.8299 H       1  UNL1        0.2102
     58 H          -0.4572   -1.2548    1.1532 H       1  UNL1        0.0624
     59 H          -1.2320   -3.1432   -0.1085 H       1  UNL1        0.0623
     60 H          -4.5288   -0.9620   -1.4949 H       1  UNL1        0.0629
     61 H          -5.5186    0.6875   -1.5184 H       1  UNL1        0.0638
     62 H          -5.8865    4.6362   -0.1958 H       1  UNL1        0.0647
     63 H          -1.9837    3.1462    1.8511 H       1  UNL1        0.0628
@<TRIPOS>BOND
     1     1     2    1
     2     2     3    1
     3     3     4    1
     4     4     5    1
     5     5     6    1
     6     6     7    1
     7     7     8    1
     8     8     9    1
     9     5    10    1
    10    10    11    1
    11    11    12    1
    12    12    13    1
    13    12    14    1
    14    14    15   ar
    15    15    16   ar
    16    16    17   ar
    17    17    18   ar
    18    18    19   ar
    19    19    20   ar
    20    20    21   ar
    21    21    22   ar
    22    22    23   ar
    23    23    24    1
    24    23    25   ar
    25    25    26   ar
    26    26    27    1
    27    26    28   ar
    28    28    29   ar
    29    18    30    1
    30    30    31    1
    31    30    32    1
    32    30    33    1
    33    29    14   ar
    34    20    15   ar
    35    28    21   ar
    36     1    34    1
    37     1    35    1
    38     1    36    1
    39     2    37    1
    40     2    38    1
    41     3    39    1
    42     3    40    1
    43     4    41    1
    44     4    42    1
    45     6    43    1
    46     6    44    1
    47     7    45    1
    48     7    46    1
    49     8    47    1
    50     8    48    1
    51     9    49    1
    52     9    50    1
    53     9    51    1
    54    10    52    1
    55    10    53    1
    56    11    54    1
    57    11    55    1
    58    12    56    1
    59    13    57    1
    60    16    58    1
    61    17    59    1
    62    19    60    1
    63    22    61    1
    64    25    62    1
    65    29    63    1
