@<TRIPOS>MOLECULE
*****
 80 84 0 0 0
SMALL
GASTEIGER

@<TRIPOS>ATOM
      1 C           2.4746    0.6939    3.0149 C.3     1  UNL1        0.0805
      2 O           1.8109    0.4976    1.8094 O.3     1  UNL1       -0.4782
      3 C           2.4112    0.1439    0.6152 C.ar    1  UNL1        0.2447
      4 N           3.7468   -0.0254    0.6093 N.ar    1  UNL1       -0.1777
      5 C           4.4259   -0.3700   -0.4990 C.ar    1  UNL1        0.2215
      6 N           5.8383   -0.5037   -0.3874 N.pl3   1  UNL1       -0.3133
      7 C           6.3529   -1.6853    0.2658 C.3     1  UNL1        0.0130
      8 C           7.8611   -1.6988    0.2998 C.3     1  UNL1       -0.0246
      9 C           8.3932   -0.5077    1.0177 C.3     1  UNL1        0.0005
     10 N           9.8189   -0.4310    1.1267 N.3     1  UNL1       -0.2979
     11 C          10.2132    0.7680    1.8154 C.3     1  UNL1        0.0224
     12 C          10.0667    2.0001    0.9450 C.3     1  UNL1        0.0604
     13 O          10.6035    1.8075   -0.3146 O.3     1  UNL1       -0.3772
     14 C          11.3737    0.6454   -0.3752 C.3     1  UNL1        0.0604
     15 C          10.4722   -0.5775   -0.1306 C.3     1  UNL1        0.0224
     16 N           3.7378   -0.5495   -1.6351 N.ar    1  UNL1       -0.1777
     17 C           2.3759   -0.3897   -1.6864 C.ar    1  UNL1        0.2447
     18 O           1.7574   -0.5934   -2.8893 O.3     1  UNL1       -0.4782
     19 C           2.5198   -0.9529   -4.0204 C.3     1  UNL1        0.0805
     20 C           1.7009   -0.0369   -0.5418 C.ar    1  UNL1        0.1584
     21 N           0.3062    0.1497   -0.5703 N.am    1  UNL1       -0.2705
     22 C          -0.6484   -0.8826   -0.3823 C.2     1  UNL1        0.2839
     23 O          -0.2268   -2.0491   -0.1863 O.2     1  UNL1       -0.2665
     24 C          -2.0942   -0.5989   -0.4142 C.ar    1  UNL1        0.1937
     25 C          -2.6389    0.6645   -0.5516 C.ar    1  UNL1       -0.0074
     26 C          -4.0074    0.4848   -0.5327 C.ar    1  UNL1        0.0227
     27 C          -4.2475   -0.8644   -0.3870 C.ar    1  UNL1        0.2924
     28 O          -5.5097   -1.4547   -0.3222 O.3     1  UNL1       -0.4249
     29 C          -6.6773   -0.7143   -0.4330 C.ar    1  UNL1        0.1350
     30 C          -7.5646   -0.6728    0.6404 C.ar    1  UNL1       -0.0150
     31 C          -8.7286    0.0652    0.5340 C.ar    1  UNL1       -0.0350
     32 C          -8.9578    0.7339   -0.6415 C.ar    1  UNL1       -0.0432
     33 C          -8.0825    0.7047   -1.7291 C.ar    1  UNL1       -0.0519
     34 C          -6.9212   -0.0433   -1.6017 C.ar    1  UNL1       -0.0078
     35 C          -5.9847   -0.1248   -2.7470 C.3     1  UNL1       -0.0362
     36 C         -10.2442    1.4959   -0.5482 C.3     1  UNL1       -0.0266
     37 C         -10.4387    1.6080    0.9603 C.3     1  UNL1       -0.0399
     38 C          -9.8820    0.3066    1.4369 C.3     1  UNL1       -0.0092
     39 C          -9.5304    0.2707    2.8960 C.3     1  UNL1       -0.0558
     40 C         -10.9160   -0.7585    1.1011 C.3     1  UNL1       -0.0558
     41 O          -3.0832   -1.4549   -0.3221 O.2     1  UNL1       -0.4199
     42 H           1.7254    0.6091    3.8517 H       1  UNL1        0.0660
     43 H           2.9732    1.7022    3.0587 H       1  UNL1        0.0660
     44 H           3.2341   -0.0895    3.1715 H       1  UNL1        0.0660
     45 H           6.5038    0.2013   -0.7544 H       1  UNL1        0.1489
     46 H           6.0334   -2.6247   -0.2641 H       1  UNL1        0.0462
     47 H           5.9591   -1.7913    1.3009 H       1  UNL1        0.0462
     48 H           8.1982   -1.7728   -0.7438 H       1  UNL1        0.0293
     49 H           8.2020   -2.6150    0.8415 H       1  UNL1        0.0293
     50 H           8.0674    0.4214    0.5005 H       1  UNL1        0.0427
     51 H           7.9123   -0.4679    2.0191 H       1  UNL1        0.0427
     52 H          11.2361    0.6705    2.1773 H       1  UNL1        0.0449
     53 H           9.5313    0.8990    2.6764 H       1  UNL1        0.0449
     54 H          10.5770    2.8312    1.4337 H       1  UNL1        0.0572
     55 H           9.0057    2.2711    0.8072 H       1  UNL1        0.0572
     56 H          11.8107    0.4921   -1.3654 H       1  UNL1        0.0572
     57 H          12.1847    0.6994    0.3729 H       1  UNL1        0.0572
     58 H          11.1992   -1.4334   -0.0687 H       1  UNL1        0.0449
     59 H           9.8283   -0.6429   -1.0096 H       1  UNL1        0.0449
     60 H           2.7589   -0.0732   -4.6719 H       1  UNL1        0.0660
     61 H           2.0546   -1.7826   -4.5945 H       1  UNL1        0.0660
     62 H           3.5231   -1.3272   -3.6783 H       1  UNL1        0.0660
     63 H          -0.1193    1.1145   -0.7411 H       1  UNL1        0.1555
     64 H          -2.0806    1.5891   -0.6489 H       1  UNL1        0.0658
     65 H          -4.6880    1.3166   -0.6208 H       1  UNL1        0.0689
     66 H          -7.3659   -1.1966    1.5395 H       1  UNL1        0.0657
     67 H          -8.2789    1.2372   -2.6473 H       1  UNL1        0.0624
     68 H          -6.5777   -0.3616   -3.6870 H       1  UNL1        0.0279
     69 H          -5.2849   -0.9605   -2.6532 H       1  UNL1        0.0279
     70 H          -5.5370    0.8642   -2.9348 H       1  UNL1        0.0279
     71 H         -10.1255    2.5005   -0.9869 H       1  UNL1        0.0314
     72 H         -11.0328    0.8754   -0.9737 H       1  UNL1        0.0314
     73 H         -11.5161    1.7285    1.1670 H       1  UNL1        0.0277
     74 H          -9.8273    2.4210    1.3815 H       1  UNL1        0.0277
     75 H         -10.3566   -0.2623    3.4162 H       1  UNL1        0.0238
     76 H          -8.6406   -0.3636    3.0192 H       1  UNL1        0.0238
     77 H          -9.4494    1.2708    3.3194 H       1  UNL1        0.0238
     78 H         -11.9367   -0.4299    1.3953 H       1  UNL1        0.0238
     79 H         -10.6994   -1.7043    1.6259 H       1  UNL1        0.0238
     80 H         -10.8787   -0.9161    0.0071 H       1  UNL1        0.0238
@<TRIPOS>BOND
     1     1     2    1
     2     2     3    1
     3     3     4   ar
     4     4     5   ar
     5     5     6    1
     6     6     7    1
     7     7     8    1
     8     8     9    1
     9     9    10    1
    10    10    11    1
    11    11    12    1
    12    12    13    1
    13    13    14    1
    14    14    15    1
    15     5    16   ar
    16    16    17   ar
    17    17    18    1
    18    18    19    1
    19    17    20   ar
    20    20    21    1
    21    21    22   am
    22    22    23    2
    23    22    24    1
    24    24    25   ar
    25    25    26   ar
    26    26    27   ar
    27    27    28    1
    28    28    29    1
    29    29    30   ar
    30    30    31   ar
    31    31    32   ar
    32    32    33   ar
    33    33    34   ar
    34    34    35    1
    35    32    36    1
    36    36    37    1
    37    37    38    1
    38    38    39    1
    39    38    40    1
    40    27    41   ar
    41    20     3   ar
    42    41    24   ar
    43    15    10    1
    44    34    29   ar
    45    38    31    1
    46     1    42    1
    47     1    43    1
    48     1    44    1
    49     6    45    1
    50     7    46    1
    51     7    47    1
    52     8    48    1
    53     8    49    1
    54     9    50    1
    55     9    51    1
    56    11    52    1
    57    11    53    1
    58    12    54    1
    59    12    55    1
    60    14    56    1
    61    14    57    1
    62    15    58    1
    63    15    59    1
    64    19    60    1
    65    19    61    1
    66    19    62    1
    67    21    63    1
    68    25    64    1
    69    26    65    1
    70    30    66    1
    71    33    67    1
    72    35    68    1
    73    35    69    1
    74    35    70    1
    75    36    71    1
    76    36    72    1
    77    37    73    1
    78    37    74    1
    79    39    75    1
    80    39    76    1
    81    39    77    1
    82    40    78    1
    83    40    79    1
    84    40    80    1
