@<TRIPOS>MOLECULE
*****
 64 68 0 0 0
SMALL
GASTEIGER

@<TRIPOS>ATOM
      1 C          -6.1491    0.9096   -1.9447 C.3     1  UNL1       -0.0372
      2 C          -4.6272    0.7951   -2.1048 C.3     1  UNL1        0.0716
      3 C          -3.9873   -0.0001   -0.9836 C.3     1  UNL1        0.0411
      4 N          -3.4841   -1.2741   -1.4277 N.am    1  UNL1       -0.2929
      5 C          -2.4560   -2.0255   -0.8184 C.2     1  UNL1        0.2328
      6 O          -2.0950   -3.1081   -1.3305 O.2     1  UNL1       -0.2740
      7 C          -1.7514   -1.6052    0.4236 C.3     1  UNL1        0.1054
      8 C          -1.0132   -0.2942    0.3172 C.3     1  UNL1       -0.0220
      9 C          -0.3002   -1.6149    0.4858 C.3     1  UNL1        0.0134
     10 C           0.4053   -1.9602    1.7100 C.3     1  UNL1        0.0935
     11 C           1.5472   -2.9565    1.2531 C.3     1  UNL1       -0.0351
     12 C           1.1270   -0.7697    2.1980 C.ar    1  UNL1        0.0158
     13 C           2.3270   -0.2913    1.7076 C.ar    1  UNL1       -0.0463
     14 C           2.8848    0.9122    1.9400 C.ar    1  UNL1       -0.0217
     15 C           4.0628    1.5165    1.3603 C.2     1  UNL1       -0.0172
     16 C           4.5849    1.4571    0.1902 C.2     1  UNL1        0.1492
     17 F           4.0198    0.6980   -0.7799 F       1  UNL1       -0.2032
     18 C           5.7028    2.3746   -0.1831 C.ar    1  UNL1        0.0990
     19 C           6.2121    2.4226   -1.4225 C.ar    1  UNL1       -0.0322
     20 C           7.1336    3.3977   -1.8491 C.ar    1  UNL1       -0.0408
     21 C           7.4938    4.3378   -0.8967 C.ar    1  UNL1        0.0699
     22 C           8.2535    5.5677   -1.3534 C.1     1  UNL1        0.1007
     23 N           8.7822    6.4020   -1.6504 N.1     1  UNL1       -0.1908
     24 C           6.9918    4.2808    0.3473 C.ar    1  UNL1        0.0457
     25 N           6.0963    3.3232    0.7488 N.ar    1  UNL1       -0.2514
     26 C           2.1240    1.7889    2.8188 C.ar    1  UNL1       -0.0518
     27 C           0.9419    1.3023    3.3027 C.ar    1  UNL1       -0.0255
     28 C           0.4057    0.1005    3.0599 C.ar    1  UNL1        0.1289
     29 F          -0.7583   -0.2848    3.6667 F       1  UNL1       -0.2051
     30 N          -0.1613   -2.6536    2.7737 N.2     1  UNL1       -0.2521
     31 C          -1.4179   -2.8234    3.0142 C.2     1  UNL1        0.1485
     32 N          -1.7845   -3.5690    4.1535 N.pl3   1  UNL1       -0.3380
     33 S          -2.5899   -2.1140    1.9120 S.3     1  UNL1       -0.0746
     34 C          -4.1661   -1.8136   -2.6084 C.3     1  UNL1        0.0466
     35 C          -5.5190   -2.3180   -2.2172 C.3     1  UNL1       -0.0443
     36 C          -4.1814   -0.8475   -3.7296 C.3     1  UNL1        0.0664
     37 O          -4.2363    0.4666   -3.3671 O.3     1  UNL1       -0.3735
     38 H          -6.6976    0.3115   -2.7149 H       1  UNL1        0.0255
     39 H          -6.4690    0.6135   -0.9038 H       1  UNL1        0.0255
     40 H          -6.5026    1.9598   -2.0413 H       1  UNL1        0.0255
     41 H          -4.2836    1.8701   -1.9515 H       1  UNL1        0.0609
     42 H          -3.1610    0.5761   -0.5297 H       1  UNL1        0.0490
     43 H          -4.8102   -0.2481   -0.2483 H       1  UNL1        0.0490
     44 H          -0.9176    0.2290   -0.6793 H       1  UNL1        0.0287
     45 H          -1.1273    0.4051    1.1356 H       1  UNL1        0.0287
     46 H           0.1979   -1.9360   -0.4758 H       1  UNL1        0.0346
     47 H           2.3339   -2.8644    2.0029 H       1  UNL1        0.0256
     48 H           1.7899   -2.8153    0.2116 H       1  UNL1        0.0256
     49 H           1.0984   -3.9902    1.3581 H       1  UNL1        0.0256
     50 H           2.8926   -0.9658    1.0354 H       1  UNL1        0.0628
     51 H           4.6535    2.1743    2.0940 H       1  UNL1        0.0653
     52 H           5.9313    1.7011   -2.1966 H       1  UNL1        0.0640
     53 H           7.5514    3.4565   -2.8413 H       1  UNL1        0.0631
     54 H           7.3120    5.0499    1.0778 H       1  UNL1        0.0843
     55 H           2.5462    2.7477    3.0015 H       1  UNL1        0.0624
     56 H           0.3440    1.9656    3.9932 H       1  UNL1        0.0646
     57 H          -2.6167   -3.2843    4.7547 H       1  UNL1        0.1442
     58 H          -1.2601   -4.4156    4.4676 H       1  UNL1        0.1442
     59 H          -3.5939   -2.7405   -2.9204 H       1  UNL1        0.0520
     60 H          -5.4850   -3.4264   -2.0017 H       1  UNL1        0.0248
     61 H          -6.3119   -2.1278   -2.9548 H       1  UNL1        0.0248
     62 H          -5.8426   -1.8828   -1.2326 H       1  UNL1        0.0248
     63 H          -3.1436   -0.9416   -4.2437 H       1  UNL1        0.0578
     64 H          -4.8466   -1.1511   -4.5441 H       1  UNL1        0.0578
@<TRIPOS>BOND
     1     1     2    1
     2     2     3    1
     3     3     4    1
     4     4     5   am
     5     5     6    2
     6     7     5    1
     7     7     8    1
     8     8     9    1
     9     9    10    1
    10    10    11    1
    11    10    12    1
    12    12    13   ar
    13    13    14   ar
    14    14    15    1
    15    15    16    2
    16    16    17    1
    17    16    18    1
    18    18    19   ar
    19    19    20   ar
    20    20    21   ar
    21    21    22    1
    22    22    23    3
    23    21    24   ar
    24    24    25   ar
    25    14    26   ar
    26    26    27   ar
    27    27    28   ar
    28    28    29    1
    29    10    30    1
    30    30    31    2
    31    31    32    1
    32    31    33    1
    33     4    34    1
    34    34    35    1
    35    34    36    1
    36    36    37    1
    37    37     2    1
    38     9     7    1
    39    28    12   ar
    40    33     7    1
    41    25    18   ar
    42     1    38    1
    43     1    39    1
    44     1    40    1
    45     2    41    1
    46     3    42    1
    47     3    43    1
    48     8    44    1
    49     8    45    1
    50     9    46    1
    51    11    47    1
    52    11    48    1
    53    11    49    1
    54    13    50    1
    55    15    51    1
    56    19    52    1
    57    20    53    1
    58    24    54    1
    59    26    55    1
    60    27    56    1
    61    32    57    1
    62    32    58    1
    63    34    59    1
    64    35    60    1
    65    35    61    1
    66    35    62    1
    67    36    63    1
    68    36    64    1
