@<TRIPOS>MOLECULE
*****
 65 68 0 0 0
SMALL
GASTEIGER

@<TRIPOS>ATOM
      1 O           5.6097    1.5736    1.0065 O.2     1  UNL1       -0.2702
      2 C           4.8839    0.7216    0.4016 C.2     1  UNL1        0.2444
      3 N           3.6298    1.1931   -0.0497 N.am    1  UNL1       -0.3050
      4 C           3.2125    2.5462    0.1655 C.3     1  UNL1        0.0607
      5 C           2.8353    3.2813   -1.0779 C.3     1  UNL1       -0.0260
      6 C           1.9360    4.3793   -0.5986 C.3     1  UNL1       -0.0126
      7 C           2.5489    5.7450   -0.8174 C.3     1  UNL1        0.0472
      8 O           3.7561    5.9004   -0.1489 O.3     1  UNL1       -0.3947
      9 C           1.6375    4.1373    0.8521 C.3     1  UNL1       -0.0089
     10 C           1.9475    2.6434    0.9950 C.3     1  UNL1        0.1219
     11 O           0.8608    1.9658    0.3858 O.3     1  UNL1       -0.4560
     12 C           0.0858    1.0323    1.0554 C.2     1  UNL1        0.3397
     13 O           0.3869    0.8008    2.2518 O.2     1  UNL1       -0.2449
     14 C          -1.0246    0.3306    0.4569 C.ar    1  UNL1        0.0659
     15 C          -1.4229    0.5233   -0.8467 C.ar    1  UNL1       -0.0053
     16 C          -2.4851   -0.1598   -1.3878 C.ar    1  UNL1        0.1320
     17 O          -2.8748    0.0417   -2.6948 O.3     1  UNL1       -0.5059
     18 C          -3.2209   -1.0947   -0.6302 C.ar    1  UNL1        0.1050
     19 C          -4.2569   -1.8678   -1.2755 C.2     1  UNL1        0.2044
     20 O          -4.1814   -2.0177   -2.5625 O.2     1  UNL1       -0.2863
     21 C          -5.3656   -2.5040   -0.6385 C.ar    1  UNL1        0.0778
     22 C          -5.7260   -3.7917   -1.1145 C.ar    1  UNL1        0.1285
     23 O          -4.9691   -4.3727   -2.1304 O.3     1  UNL1       -0.5060
     24 C          -6.7826   -4.5042   -0.6307 C.ar    1  UNL1       -0.0194
     25 C          -7.5693   -3.9771    0.3780 C.ar    1  UNL1       -0.0575
     26 C          -7.2610   -2.7509    0.8560 C.ar    1  UNL1       -0.0468
     27 C          -6.1638   -2.0060    0.3514 C.ar    1  UNL1        0.0731
     28 C          -6.0885   -0.6250    0.8025 C.2     1  UNL1        0.3376
     29 O          -5.3665    0.2064    0.2458 O.2     1  UNL1       -0.2451
     30 O          -6.8329   -0.1843    1.8885 O.3     1  UNL1       -0.4771
     31 C          -2.8111   -1.2827    0.6800 C.ar    1  UNL1        0.1320
     32 O          -3.5025   -2.1981    1.4578 O.3     1  UNL1       -0.5059
     33 C          -1.7378   -0.5776    1.1928 C.ar    1  UNL1       -0.0053
     34 C           5.3563   -0.6555    0.2051 C.ar    1  UNL1        0.0369
     35 C           6.5917   -1.0596    0.6662 C.ar    1  UNL1       -0.0462
     36 C           7.0743   -2.3408    0.5041 C.ar    1  UNL1       -0.0195
     37 C           6.3078   -3.2836   -0.1455 C.ar    1  UNL1        0.1169
     38 O           6.7986   -4.5745   -0.3067 O.3     1  UNL1       -0.5068
     39 C           5.0700   -2.8997   -0.6140 C.ar    1  UNL1       -0.0195
     40 C           4.5896   -1.5951   -0.4437 C.ar    1  UNL1       -0.0462
     41 H           2.9913    0.5547   -0.5478 H       1  UNL1        0.1494
     42 H           3.9899    3.1130    0.7077 H       1  UNL1        0.0535
     43 H           3.7702    3.6641   -1.5501 H       1  UNL1        0.0288
     44 H           2.2675    2.6398   -1.7918 H       1  UNL1        0.0288
     45 H           0.9625    4.3870   -1.1446 H       1  UNL1        0.0325
     46 H           1.8100    6.5034   -0.4861 H       1  UNL1        0.0560
     47 H           2.7355    5.9315   -1.8857 H       1  UNL1        0.0560
     48 H           3.5800    6.1699    0.7895 H       1  UNL1        0.2094
     49 H           2.2964    4.7339    1.5113 H       1  UNL1        0.0305
     50 H           0.5678    4.2658    1.1099 H       1  UNL1        0.0305
     51 H           2.1047    2.3509    2.0397 H       1  UNL1        0.0753
     52 H          -0.8424    1.2499   -1.4171 H       1  UNL1        0.0662
     53 H          -2.3248   -0.3540   -3.4529 H       1  UNL1        0.2922
     54 H          -5.3877   -4.8647   -2.9083 H       1  UNL1        0.2922
     55 H          -7.0066   -5.4887   -1.0391 H       1  UNL1        0.0654
     56 H          -8.3846   -4.5969    0.7130 H       1  UNL1        0.0619
     57 H          -7.8743   -2.3270    1.6503 H       1  UNL1        0.0626
     58 H          -6.5767    0.6690    2.4036 H       1  UNL1        0.2954
     59 H          -3.7939   -1.8859    2.3800 H       1  UNL1        0.2922
     60 H          -1.4917   -0.7957    2.2403 H       1  UNL1        0.0662
     61 H           7.1832   -0.2990    1.1777 H       1  UNL1        0.0626
     62 H           8.0567   -2.6371    0.8784 H       1  UNL1        0.0654
     63 H           7.7929   -4.6891   -0.4382 H       1  UNL1        0.2921
     64 H           4.4780   -3.6471   -1.1218 H       1  UNL1        0.0654
     65 H           3.6202   -1.3464   -0.8263 H       1  UNL1        0.0626
@<TRIPOS>BOND
     1     1     2    2
     2     2     3   am
     3     3     4    1
     4     4     5    1
     5     5     6    1
     6     6     7    1
     7     7     8    1
     8     6     9    1
     9     9    10    1
    10    10    11    1
    11    11    12    1
    12    12    13    2
    13    12    14    1
    14    14    15   ar
    15    15    16   ar
    16    16    17    1
    17    16    18   ar
    18    18    19    1
    19    19    20    2
    20    19    21    1
    21    21    22   ar
    22    22    23    1
    23    22    24   ar
    24    24    25   ar
    25    25    26   ar
    26    26    27   ar
    27    27    28    1
    28    28    29    2
    29    28    30    1
    30    18    31   ar
    31    31    32    1
    32    31    33   ar
    33     2    34    1
    34    34    35   ar
    35    35    36   ar
    36    36    37   ar
    37    37    38    1
    38    37    39   ar
    39    39    40   ar
    40    10     4    1
    41    33    14   ar
    42    40    34   ar
    43    27    21   ar
    44     3    41    1
    45     4    42    1
    46     5    43    1
    47     5    44    1
    48     6    45    1
    49     7    46    1
    50     7    47    1
    51     8    48    1
    52     9    49    1
    53     9    50    1
    54    10    51    1
    55    15    52    1
    56    17    53    1
    57    23    54    1
    58    24    55    1
    59    25    56    1
    60    26    57    1
    61    30    58    1
    62    32    59    1
    63    33    60    1
    64    35    61    1
    65    36    62    1
    66    38    63    1
    67    39    64    1
    68    40    65    1
