
     RDKit          3D

 65 68  0  0  0  0  0  0  0  0999 V2000
    5.6097    1.5736    1.0065 O   0  0  0  0  0  0  0  0  0  0  0  0
    4.8839    0.7216    0.4016 C   0  0  0  0  0  0  0  0  0  0  0  0
    3.6298    1.1931   -0.0497 N   0  0  0  0  0  0  0  0  0  0  0  0
    3.2125    2.5462    0.1655 C   0  0  1  0  0  0  0  0  0  0  0  0
    2.8353    3.2813   -1.0779 C   0  0  0  0  0  0  0  0  0  0  0  0
    1.9360    4.3793   -0.5986 C   0  0  2  0  0  0  0  0  0  0  0  0
    2.5489    5.7450   -0.8174 C   0  0  0  0  0  0  0  0  0  0  0  0
    3.7561    5.9004   -0.1489 O   0  0  0  0  0  0  0  0  0  0  0  0
    1.6375    4.1373    0.8521 C   0  0  0  0  0  0  0  0  0  0  0  0
    1.9475    2.6434    0.9950 C   0  0  1  0  0  0  0  0  0  0  0  0
    0.8608    1.9658    0.3858 O   0  0  0  0  0  0  0  0  0  0  0  0
    0.0858    1.0323    1.0554 C   0  0  0  0  0  0  0  0  0  0  0  0
    0.3869    0.8008    2.2518 O   0  0  0  0  0  0  0  0  0  0  0  0
   -1.0246    0.3306    0.4569 C   0  0  0  0  0  0  0  0  0  0  0  0
   -1.4229    0.5233   -0.8467 C   0  0  0  0  0  0  0  0  0  0  0  0
   -2.4851   -0.1598   -1.3878 C   0  0  0  0  0  0  0  0  0  0  0  0
   -2.8748    0.0417   -2.6948 O   0  0  0  0  0  0  0  0  0  0  0  0
   -3.2209   -1.0947   -0.6302 C   0  0  0  0  0  0  0  0  0  0  0  0
   -4.2569   -1.8678   -1.2755 C   0  0  0  0  0  0  0  0  0  0  0  0
   -4.1814   -2.0177   -2.5625 O   0  0  0  0  0  0  0  0  0  0  0  0
   -5.3656   -2.5040   -0.6385 C   0  0  0  0  0  0  0  0  0  0  0  0
   -5.7260   -3.7917   -1.1145 C   0  0  0  0  0  0  0  0  0  0  0  0
   -4.9691   -4.3727   -2.1304 O   0  0  0  0  0  0  0  0  0  0  0  0
   -6.7826   -4.5042   -0.6307 C   0  0  0  0  0  0  0  0  0  0  0  0
   -7.5693   -3.9771    0.3780 C   0  0  0  0  0  0  0  0  0  0  0  0
   -7.2610   -2.7509    0.8560 C   0  0  0  0  0  0  0  0  0  0  0  0
   -6.1638   -2.0060    0.3514 C   0  0  0  0  0  0  0  0  0  0  0  0
   -6.0885   -0.6250    0.8025 C   0  0  0  0  0  0  0  0  0  0  0  0
   -5.3665    0.2064    0.2458 O   0  0  0  0  0  0  0  0  0  0  0  0
   -6.8329   -0.1843    1.8885 O   0  0  0  0  0  0  0  0  0  0  0  0
   -2.8111   -1.2827    0.6800 C   0  0  0  0  0  0  0  0  0  0  0  0
   -3.5025   -2.1981    1.4578 O   0  0  0  0  0  0  0  0  0  0  0  0
   -1.7378   -0.5776    1.1928 C   0  0  0  0  0  0  0  0  0  0  0  0
    5.3563   -0.6555    0.2051 C   0  0  0  0  0  0  0  0  0  0  0  0
    6.5917   -1.0596    0.6662 C   0  0  0  0  0  0  0  0  0  0  0  0
    7.0743   -2.3408    0.5041 C   0  0  0  0  0  0  0  0  0  0  0  0
    6.3078   -3.2836   -0.1455 C   0  0  0  0  0  0  0  0  0  0  0  0
    6.7986   -4.5745   -0.3067 O   0  0  0  0  0  0  0  0  0  0  0  0
    5.0700   -2.8997   -0.6140 C   0  0  0  0  0  0  0  0  0  0  0  0
    4.5896   -1.5951   -0.4437 C   0  0  0  0  0  0  0  0  0  0  0  0
    2.9913    0.5547   -0.5478 H   0  0  0  0  0  0  0  0  0  0  0  0
    3.9899    3.1130    0.7077 H   0  0  0  0  0  0  0  0  0  0  0  0
    3.7702    3.6641   -1.5501 H   0  0  0  0  0  0  0  0  0  0  0  0
    2.2675    2.6398   -1.7918 H   0  0  0  0  0  0  0  0  0  0  0  0
    0.9625    4.3870   -1.1446 H   0  0  0  0  0  0  0  0  0  0  0  0
    1.8100    6.5034   -0.4861 H   0  0  0  0  0  0  0  0  0  0  0  0
    2.7355    5.9315   -1.8857 H   0  0  0  0  0  0  0  0  0  0  0  0
    3.5800    6.1699    0.7895 H   0  0  0  0  0  0  0  0  0  0  0  0
    2.2964    4.7339    1.5113 H   0  0  0  0  0  0  0  0  0  0  0  0
    0.5678    4.2658    1.1099 H   0  0  0  0  0  0  0  0  0  0  0  0
    2.1047    2.3509    2.0397 H   0  0  0  0  0  0  0  0  0  0  0  0
   -0.8424    1.2499   -1.4171 H   0  0  0  0  0  0  0  0  0  0  0  0
   -2.3248   -0.3540   -3.4529 H   0  0  0  0  0  0  0  0  0  0  0  0
   -5.3877   -4.8647   -2.9083 H   0  0  0  0  0  0  0  0  0  0  0  0
   -7.0066   -5.4887   -1.0391 H   0  0  0  0  0  0  0  0  0  0  0  0
   -8.3846   -4.5969    0.7130 H   0  0  0  0  0  0  0  0  0  0  0  0
   -7.8743   -2.3270    1.6503 H   0  0  0  0  0  0  0  0  0  0  0  0
   -6.5767    0.6690    2.4036 H   0  0  0  0  0  0  0  0  0  0  0  0
   -3.7939   -1.8859    2.3800 H   0  0  0  0  0  0  0  0  0  0  0  0
   -1.4917   -0.7957    2.2403 H   0  0  0  0  0  0  0  0  0  0  0  0
    7.1832   -0.2990    1.1777 H   0  0  0  0  0  0  0  0  0  0  0  0
    8.0567   -2.6371    0.8784 H   0  0  0  0  0  0  0  0  0  0  0  0
    7.7929   -4.6891   -0.4382 H   0  0  0  0  0  0  0  0  0  0  0  0
    4.4780   -3.6471   -1.1218 H   0  0  0  0  0  0  0  0  0  0  0  0
    3.6202   -1.3464   -0.8263 H   0  0  0  0  0  0  0  0  0  0  0  0
  1  2  2  0
  2  3  1  0
  3  4  1  0
  4  5  1  0
  5  6  1  0
  6  7  1  0
  7  8  1  0
  6  9  1  0
  9 10  1  0
 10 11  1  0
 11 12  1  0
 12 13  2  0
 12 14  1  0
 14 15  2  0
 15 16  1  0
 16 17  1  0
 16 18  2  0
 18 19  1  0
 19 20  2  0
 19 21  1  0
 21 22  2  0
 22 23  1  0
 22 24  1  0
 24 25  2  0
 25 26  1  0
 26 27  2  0
 27 28  1  0
 28 29  2  0
 28 30  1  0
 18 31  1  0
 31 32  1  0
 31 33  2  0
  2 34  1  0
 34 35  2  0
 35 36  1  0
 36 37  2  0
 37 38  1  0
 37 39  1  0
 39 40  2  0
 10  4  1  0
 33 14  1  0
 40 34  1  0
 27 21  1  0
  3 41  1  0
  4 42  1  1
  5 43  1  0
  5 44  1  0
  6 45  1  6
  7 46  1  0
  7 47  1  0
  8 48  1  0
  9 49  1  0
  9 50  1  0
 10 51  1  1
 15 52  1  0
 17 53  1  0
 23 54  1  0
 24 55  1  0
 25 56  1  0
 26 57  1  0
 30 58  1  0
 32 59  1  0
 33 60  1  0
 35 61  1  0
 36 62  1  0
 38 63  1  0
 39 64  1  0
 40 65  1  0
M  END
$$$$
