
     RDKit          3D

 72 76  0  0  0  0  0  0  0  0999 V2000
   -4.0299    4.7590    0.7977 C   0  0  0  0  0  0  0  0  0  0  0  0
   -4.4880    4.3384   -0.5586 C   0  0  0  0  0  0  0  0  0  0  0  0
   -3.6414    3.4742   -1.2465 O   0  0  0  0  0  0  0  0  0  0  0  0
   -3.2599    2.2224   -0.8259 C   0  0  0  0  0  0  0  0  0  0  0  0
   -2.4084    1.4413   -1.5938 C   0  0  0  0  0  0  0  0  0  0  0  0
   -2.0148    0.1637   -1.1755 C   0  0  0  0  0  0  0  0  0  0  0  0
   -2.4802   -0.3220    0.0151 C   0  0  0  0  0  0  0  0  0  0  0  0
   -2.1377   -1.6337    0.4908 N   0  0  0  0  0  0  0  0  0  0  0  0
   -1.0286   -1.9110    1.1589 C   0  0  0  0  0  0  0  0  0  0  0  0
    0.0162   -0.9529    1.4483 C   0  0  1  0  0  0  0  0  0  0  0  0
    0.8097   -1.3135    2.7085 C   0  0  0  0  0  0  0  0  0  0  0  0
    0.9489   -0.6349    0.3980 N   0  0  0  0  0  0  0  0  0  0  0  0
    1.7525   -1.5765   -0.3143 C   0  0  0  0  0  0  0  0  0  0  0  0
    1.2023   -2.3157   -1.4185 C   0  0  0  0  0  0  0  0  0  0  0  0
    1.0537   -1.8365   -2.6847 C   0  0  0  0  0  0  0  0  0  0  0  0
    0.5577   -2.6448   -3.7205 C   0  0  0  0  0  0  0  0  0  0  0  0
    0.2076   -3.9504   -3.4768 C   0  0  0  0  0  0  0  0  0  0  0  0
    0.3537   -4.4212   -2.2299 N   0  0  0  0  0  0  0  0  0  0  0  0
    0.8293   -3.6398   -1.2464 C   0  0  0  0  0  0  0  0  0  0  0  0
    1.0804    0.7316    0.0339 C   0  0  0  0  0  0  0  0  0  0  0  0
    0.3336    1.5624    0.6670 O   0  0  0  0  0  0  0  0  0  0  0  0
    1.9968    1.2588   -0.9921 C   0  0  0  0  0  0  0  0  0  0  0  0
    3.0522    2.0657   -0.3220 C   0  0  0  0  0  0  0  0  0  0  0  0
    2.8393    3.3198    0.1465 C   0  0  0  0  0  0  0  0  0  0  0  0
    3.8587    4.0592    0.7613 C   0  0  0  0  0  0  0  0  0  0  0  0
    5.0999    3.4794    0.8824 C   0  0  0  0  0  0  0  0  0  0  0  0
    6.1343    4.1753    1.4833 O   0  0  0  0  0  0  0  0  0  0  0  0
    6.9359    4.9690    0.6447 C   0  0  0  0  0  0  0  0  0  0  0  0
    7.9041    5.5565    1.4334 F   0  0  0  0  0  0  0  0  0  0  0  0
    7.4670    4.2746   -0.4132 F   0  0  0  0  0  0  0  0  0  0  0  0
    6.1078    5.9798    0.1284 F   0  0  0  0  0  0  0  0  0  0  0  0
    5.3422    2.2228    0.4217 C   0  0  0  0  0  0  0  0  0  0  0  0
    4.3204    1.5046   -0.1845 C   0  0  0  0  0  0  0  0  0  0  0  0
   -0.8244   -3.1805    1.5907 N   0  0  0  0  0  0  0  0  0  0  0  0
   -1.6513   -4.1926    1.3991 C   0  0  0  0  0  0  0  0  0  0  0  0
   -1.4123   -5.4510    1.8404 N   0  0  0  0  0  0  0  0  0  0  0  0
   -2.2975   -6.4476    1.6075 C   0  0  0  0  0  0  0  0  0  0  0  0
   -3.4620   -6.2124    0.9182 C   0  0  0  0  0  0  0  0  0  0  0  0
   -3.7347   -4.9563    0.4593 C   0  0  0  0  0  0  0  0  0  0  0  0
   -2.8239   -3.9360    0.7000 C   0  0  0  0  0  0  0  0  0  0  0  0
   -3.0222   -2.6529    0.2691 C   0  0  0  0  0  0  0  0  0  0  0  0
   -4.0628   -2.3580   -0.3685 O   0  0  0  0  0  0  0  0  0  0  0  0
   -3.3359    0.4786    0.7747 C   0  0  0  0  0  0  0  0  0  0  0  0
   -3.7315    1.7412    0.3715 C   0  0  0  0  0  0  0  0  0  0  0  0
   -3.8548    5.8748    0.7663 H   0  0  0  0  0  0  0  0  0  0  0  0
   -4.8330    4.6507    1.5729 H   0  0  0  0  0  0  0  0  0  0  0  0
   -3.0746    4.3300    1.1197 H   0  0  0  0  0  0  0  0  0  0  0  0
   -5.4554    3.7666   -0.4168 H   0  0  0  0  0  0  0  0  0  0  0  0
   -4.7968    5.2209   -1.1524 H   0  0  0  0  0  0  0  0  0  0  0  0
   -2.0439    1.8256   -2.5310 H   0  0  0  0  0  0  0  0  0  0  0  0
   -1.3507   -0.4365   -1.7843 H   0  0  0  0  0  0  0  0  0  0  0  0
   -0.4850    0.0211    1.7555 H   0  0  0  0  0  0  0  0  0  0  0  0
    1.0542   -0.3818    3.3004 H   0  0  0  0  0  0  0  0  0  0  0  0
    1.7297   -1.8290    2.3880 H   0  0  0  0  0  0  0  0  0  0  0  0
    0.1487   -1.9960    3.2820 H   0  0  0  0  0  0  0  0  0  0  0  0
    2.7529   -1.0921   -0.5298 H   0  0  0  0  0  0  0  0  0  0  0  0
    2.0802   -2.3214    0.5141 H   0  0  0  0  0  0  0  0  0  0  0  0
    1.2904   -0.8369   -2.9928 H   0  0  0  0  0  0  0  0  0  0  0  0
    0.4339   -2.2787   -4.7352 H   0  0  0  0  0  0  0  0  0  0  0  0
   -0.1829   -4.5951   -4.2868 H   0  0  0  0  0  0  0  0  0  0  0  0
    0.9446   -4.0801   -0.2433 H   0  0  0  0  0  0  0  0  0  0  0  0
    2.4731    0.5242   -1.6350 H   0  0  0  0  0  0  0  0  0  0  0  0
    1.4374    1.9795   -1.6427 H   0  0  0  0  0  0  0  0  0  0  0  0
    1.8517    3.7666    0.0454 H   0  0  0  0  0  0  0  0  0  0  0  0
    3.7141    5.0522    1.1433 H   0  0  0  0  0  0  0  0  0  0  0  0
    6.3464    1.8125    0.5417 H   0  0  0  0  0  0  0  0  0  0  0  0
    4.5246    0.5161   -0.5440 H   0  0  0  0  0  0  0  0  0  0  0  0
   -2.1059   -7.4494    1.9566 H   0  0  0  0  0  0  0  0  0  0  0  0
   -4.1924   -6.9839    0.7107 H   0  0  0  0  0  0  0  0  0  0  0  0
   -4.6545   -4.7237   -0.0996 H   0  0  0  0  0  0  0  0  0  0  0  0
   -3.6974    0.0816    1.7189 H   0  0  0  0  0  0  0  0  0  0  0  0
   -4.4114    2.3438    0.9993 H   0  0  0  0  0  0  0  0  0  0  0  0
  1  2  1  0
  2  3  1  0
  3  4  1  0
  4  5  2  0
  5  6  1  0
  6  7  2  0
  7  8  1  0
  8  9  1  0
  9 10  1  0
 10 11  1  0
 10 12  1  0
 12 13  1  0
 13 14  1  0
 14 15  2  0
 15 16  1  0
 16 17  2  0
 17 18  1  0
 18 19  2  0
 12 20  1  0
 20 21  2  0
 20 22  1  0
 22 23  1  0
 23 24  2  0
 24 25  1  0
 25 26  2  0
 26 27  1  0
 27 28  1  0
 28 29  1  0
 28 30  1  0
 28 31  1  0
 26 32  1  0
 32 33  2  0
  9 34  2  0
 34 35  1  0
 35 36  2  0
 36 37  1  0
 37 38  2  0
 38 39  1  0
 39 40  2  0
 40 41  1  0
 41 42  2  0
  7 43  1  0
 43 44  2  0
 44  4  1  0
 41  8  1  0
 19 14  1  0
 33 23  1  0
 40 35  1  0
  1 45  1  0
  1 46  1  0
  1 47  1  0
  2 48  1  0
  2 49  1  0
  5 50  1  0
  6 51  1  0
 10 52  1  1
 11 53  1  0
 11 54  1  0
 11 55  1  0
 13 56  1  0
 13 57  1  0
 15 58  1  0
 16 59  1  0
 17 60  1  0
 19 61  1  0
 22 62  1  0
 22 63  1  0
 24 64  1  0
 25 65  1  0
 32 66  1  0
 33 67  1  0
 37 68  1  0
 38 69  1  0
 39 70  1  0
 43 71  1  0
 44 72  1  0
M  END
$$$$
