@<TRIPOS>MOLECULE
*****
 72 76 0 0 0
SMALL
GASTEIGER

@<TRIPOS>ATOM
      1 C          -4.0299    4.7590    0.7977 C.3     1  UNL1       -0.0307
      2 C          -4.4880    4.3384   -0.5586 C.3     1  UNL1        0.0868
      3 O          -3.6414    3.4742   -1.2465 O.3     1  UNL1       -0.4922
      4 C          -3.2599    2.2224   -0.8259 C.ar    1  UNL1        0.1206
      5 C          -2.4084    1.4413   -1.5938 C.ar    1  UNL1       -0.0180
      6 C          -2.0148    0.1637   -1.1755 C.ar    1  UNL1       -0.0342
      7 C          -2.4802   -0.3220    0.0151 C.ar    1  UNL1        0.0514
      8 N          -2.1377   -1.6337    0.4908 N.ar    1  UNL1       -0.2628
      9 C          -1.0286   -1.9110    1.1589 C.ar    1  UNL1        0.1396
     10 C           0.0162   -0.9529    1.4483 C.3     1  UNL1        0.0820
     11 C           0.8097   -1.3135    2.7085 C.3     1  UNL1       -0.0393
     12 N           0.9489   -0.6349    0.3980 N.am    1  UNL1       -0.2870
     13 C           1.7525   -1.5765   -0.3143 C.3     1  UNL1        0.0419
     14 C           1.2023   -2.3157   -1.4185 C.ar    1  UNL1       -0.0120
     15 C           1.0537   -1.8365   -2.6847 C.ar    1  UNL1       -0.0542
     16 C           0.5577   -2.6448   -3.7205 C.ar    1  UNL1       -0.0433
     17 C           0.2076   -3.9504   -3.4768 C.ar    1  UNL1        0.0276
     18 N           0.3537   -4.4212   -2.2299 N.ar    1  UNL1       -0.2629
     19 C           0.8293   -3.6398   -1.2464 C.ar    1  UNL1        0.0322
     20 C           1.0804    0.7316    0.0339 C.2     1  UNL1        0.2207
     21 O           0.3336    1.5624    0.6670 O.2     1  UNL1       -0.2752
     22 C           1.9968    1.2588   -0.9921 C.3     1  UNL1        0.0493
     23 C           3.0522    2.0657   -0.3220 C.ar    1  UNL1       -0.0384
     24 C           2.8393    3.3198    0.1465 C.ar    1  UNL1       -0.0547
     25 C           3.8587    4.0592    0.7613 C.ar    1  UNL1       -0.0194
     26 C           5.0999    3.4794    0.8824 C.ar    1  UNL1        0.1300
     27 O           6.1343    4.1753    1.4833 O.3     1  UNL1       -0.4057
     28 C           6.9359    4.9690    0.6447 C.3     1  UNL1        0.5752
     29 F           7.9041    5.5565    1.4334 F       1  UNL1       -0.1328
     30 F           7.4670    4.2746   -0.4132 F       1  UNL1       -0.1328
     31 F           6.1078    5.9798    0.1284 F       1  UNL1       -0.1328
     32 C           5.3422    2.2228    0.4217 C.ar    1  UNL1       -0.0194
     33 C           4.3204    1.5046   -0.1845 C.ar    1  UNL1       -0.0547
     34 N          -0.8244   -3.1805    1.5907 N.ar    1  UNL1       -0.2119
     35 C          -1.6513   -4.1926    1.3991 C.ar    1  UNL1        0.1669
     36 N          -1.4123   -5.4510    1.8404 N.ar    1  UNL1       -0.2355
     37 C          -2.2975   -6.4476    1.6075 C.ar    1  UNL1        0.0300
     38 C          -3.4620   -6.2124    0.9182 C.ar    1  UNL1       -0.0427
     39 C          -3.7347   -4.9563    0.4593 C.ar    1  UNL1       -0.0444
     40 C          -2.8239   -3.9360    0.7000 C.ar    1  UNL1        0.0840
     41 C          -3.0222   -2.6529    0.2691 C.ar    1  UNL1        0.2679
     42 O          -4.0628   -2.3580   -0.3685 O.2     1  UNL1       -0.2665
     43 C          -3.3359    0.4786    0.7747 C.ar    1  UNL1       -0.0342
     44 C          -3.7315    1.7412    0.3715 C.ar    1  UNL1       -0.0180
     45 H          -3.8548    5.8748    0.7663 H       1  UNL1        0.0262
     46 H          -4.8330    4.6507    1.5729 H       1  UNL1        0.0262
     47 H          -3.0746    4.3300    1.1197 H       1  UNL1        0.0262
     48 H          -5.4554    3.7666   -0.4168 H       1  UNL1        0.0694
     49 H          -4.7968    5.2209   -1.1524 H       1  UNL1        0.0694
     50 H          -2.0439    1.8256   -2.5310 H       1  UNL1        0.0655
     51 H          -1.3507   -0.4365   -1.7843 H       1  UNL1        0.0639
     52 H          -0.4850    0.0211    1.7555 H       1  UNL1        0.0578
     53 H           1.0542   -0.3818    3.3004 H       1  UNL1        0.0252
     54 H           1.7297   -1.8290    2.3880 H       1  UNL1        0.0252
     55 H           0.1487   -1.9960    3.2820 H       1  UNL1        0.0252
     56 H           2.7529   -1.0921   -0.5298 H       1  UNL1        0.0514
     57 H           2.0802   -2.3214    0.5141 H       1  UNL1        0.0514
     58 H           1.2904   -0.8369   -2.9928 H       1  UNL1        0.0622
     59 H           0.4339   -2.2787   -4.7352 H       1  UNL1        0.0633
     60 H          -0.1829   -4.5951   -4.2868 H       1  UNL1        0.0829
     61 H           0.9446   -4.0801   -0.2433 H       1  UNL1        0.0833
     62 H           2.4731    0.5242   -1.6350 H       1  UNL1        0.0407
     63 H           1.4374    1.9795   -1.6427 H       1  UNL1        0.0407
     64 H           1.8517    3.7666    0.0454 H       1  UNL1        0.0622
     65 H           3.7141    5.0522    1.1433 H       1  UNL1        0.0654
     66 H           6.3464    1.8125    0.5417 H       1  UNL1        0.0654
     67 H           4.5246    0.5161   -0.5440 H       1  UNL1        0.0622
     68 H          -2.1059   -7.4494    1.9566 H       1  UNL1        0.0830
     69 H          -4.1924   -6.9839    0.7107 H       1  UNL1        0.0633
     70 H          -4.6545   -4.7237   -0.0996 H       1  UNL1        0.0627
     71 H          -3.6974    0.0816    1.7189 H       1  UNL1        0.0639
     72 H          -4.4114    2.3438    0.9993 H       1  UNL1        0.0655
@<TRIPOS>BOND
     1     1     2    1
     2     2     3    1
     3     3     4    1
     4     4     5   ar
     5     5     6   ar
     6     6     7   ar
     7     7     8    1
     8     8     9   ar
     9     9    10    1
    10    10    11    1
    11    10    12    1
    12    12    13    1
    13    13    14    1
    14    14    15   ar
    15    15    16   ar
    16    16    17   ar
    17    17    18   ar
    18    18    19   ar
    19    12    20   am
    20    20    21    2
    21    20    22    1
    22    22    23    1
    23    23    24   ar
    24    24    25   ar
    25    25    26   ar
    26    26    27    1
    27    27    28    1
    28    28    29    1
    29    28    30    1
    30    28    31    1
    31    26    32   ar
    32    32    33   ar
    33     9    34   ar
    34    34    35   ar
    35    35    36   ar
    36    36    37   ar
    37    37    38   ar
    38    38    39   ar
    39    39    40   ar
    40    40    41   ar
    41    41    42    2
    42     7    43   ar
    43    43    44   ar
    44    44     4   ar
    45    41     8   ar
    46    19    14   ar
    47    33    23   ar
    48    40    35   ar
    49     1    45    1
    50     1    46    1
    51     1    47    1
    52     2    48    1
    53     2    49    1
    54     5    50    1
    55     6    51    1
    56    10    52    1
    57    11    53    1
    58    11    54    1
    59    11    55    1
    60    13    56    1
    61    13    57    1
    62    15    58    1
    63    16    59    1
    64    17    60    1
    65    19    61    1
    66    22    62    1
    67    22    63    1
    68    24    64    1
    69    25    65    1
    70    32    66    1
    71    33    67    1
    72    37    68    1
    73    38    69    1
    74    39    70    1
    75    43    71    1
    76    44    72    1
