
     RDKit          3D

 48 49  0  0  0  0  0  0  0  0999 V2000
   -4.3151   -1.1248    0.3053 C   0  0  1  0  0  0  0  0  0  0  0  0
   -4.4250   -1.2089    1.8286 C   0  0  0  0  0  0  0  0  0  0  0  0
   -5.5291   -0.3328   -0.1614 C   0  0  0  0  0  0  0  0  0  0  0  0
   -5.5691    0.9695    0.4278 N   0  0  0  0  0  0  0  0  0  0  0  0
   -6.7502    1.6846   -0.0466 C   0  0  0  0  0  0  0  0  0  0  0  0
   -4.4106    1.7295    0.0219 C   0  0  0  0  0  0  0  0  0  0  0  0
   -3.1014   -0.5171   -0.0128 O   0  0  0  0  0  0  0  0  0  0  0  0
   -2.0788   -1.1470   -0.6807 C   0  0  0  0  0  0  0  0  0  0  0  0
   -1.9490   -2.4188   -1.1828 C   0  0  0  0  0  0  0  0  0  0  0  0
   -0.8321   -2.8079   -1.8078 N   0  0  0  0  0  0  0  0  0  0  0  0
    0.2044   -1.9671   -1.9668 C   0  0  0  0  0  0  0  0  0  0  0  0
    0.0978   -0.6860   -1.4715 C   0  0  0  0  0  0  0  0  0  0  0  0
    1.2375    0.1307   -1.6844 N   0  0  0  0  0  0  0  0  0  0  0  0
    2.3088    0.1878   -0.7286 C   0  0  0  0  0  0  0  0  0  0  0  0
    2.2418   -0.5079    0.3372 O   0  0  0  0  0  0  0  0  0  0  0  0
    3.4595    0.9989   -0.9217 N   0  0  0  0  0  0  0  0  0  0  0  0
    4.5273    1.0569    0.0286 C   0  0  0  0  0  0  0  0  0  0  0  0
    5.5909    0.1850   -0.0612 C   0  0  0  0  0  0  0  0  0  0  0  0
    5.6729   -0.7745   -1.0625 O   0  0  0  0  0  0  0  0  0  0  0  0
    6.8065   -1.6195   -1.0642 C   0  0  0  0  0  0  0  0  0  0  0  0
    6.5558    0.3422    0.9145 C   0  0  0  0  0  0  0  0  0  0  0  0
    6.5037    1.2818    1.9185 C   0  0  0  0  0  0  0  0  0  0  0  0
    5.4136    2.1355    1.9658 C   0  0  0  0  0  0  0  0  0  0  0  0
    5.3716    3.3266    3.2587 Cl  0  0  0  0  0  0  0  0  0  0  0  0
    4.4150    2.0287    1.0186 C   0  0  0  0  0  0  0  0  0  0  0  0
   -1.0423   -0.2889   -0.8337 N   0  0  0  0  0  0  0  0  0  0  0  0
   -4.3497   -2.1669   -0.0416 H   0  0  0  0  0  0  0  0  0  0  0  0
   -4.7413   -0.2076    2.1672 H   0  0  0  0  0  0  0  0  0  0  0  0
   -5.1602   -1.9807    2.0596 H   0  0  0  0  0  0  0  0  0  0  0  0
   -3.4352   -1.5013    2.2242 H   0  0  0  0  0  0  0  0  0  0  0  0
   -5.4962   -0.3111   -1.2856 H   0  0  0  0  0  0  0  0  0  0  0  0
   -6.4222   -0.9348    0.0909 H   0  0  0  0  0  0  0  0  0  0  0  0
   -6.7718    1.6645   -1.1559 H   0  0  0  0  0  0  0  0  0  0  0  0
   -6.7407    2.7180    0.3163 H   0  0  0  0  0  0  0  0  0  0  0  0
   -7.6250    1.1619    0.3694 H   0  0  0  0  0  0  0  0  0  0  0  0
   -4.0338    1.3996   -0.9663 H   0  0  0  0  0  0  0  0  0  0  0  0
   -4.7184    2.8123   -0.0630 H   0  0  0  0  0  0  0  0  0  0  0  0
   -3.5794    1.6361    0.7522 H   0  0  0  0  0  0  0  0  0  0  0  0
   -2.8057   -3.0232   -1.0197 H   0  0  0  0  0  0  0  0  0  0  0  0
    1.0654   -2.3605   -2.4813 H   0  0  0  0  0  0  0  0  0  0  0  0
    1.3826    0.7277   -2.5133 H   0  0  0  0  0  0  0  0  0  0  0  0
    3.5070    1.5723   -1.8077 H   0  0  0  0  0  0  0  0  0  0  0  0
    7.7373   -1.0814   -1.3372 H   0  0  0  0  0  0  0  0  0  0  0  0
    6.6063   -2.4749   -1.7357 H   0  0  0  0  0  0  0  0  0  0  0  0
    6.8995   -2.0600   -0.0362 H   0  0  0  0  0  0  0  0  0  0  0  0
    7.4250   -0.3213    0.8958 H   0  0  0  0  0  0  0  0  0  0  0  0
    7.2734    1.3638    2.6484 H   0  0  0  0  0  0  0  0  0  0  0  0
    3.5782    2.7113    1.0852 H   0  0  0  0  0  0  0  0  0  0  0  0
  1  2  1  0
  1  3  1  0
  3  4  1  0
  4  5  1  0
  4  6  1  0
  1  7  1  0
  7  8  1  0
  8  9  2  0
  9 10  1  0
 10 11  2  0
 11 12  1  0
 12 13  1  0
 13 14  1  0
 14 15  2  0
 14 16  1  0
 16 17  1  0
 17 18  2  0
 18 19  1  0
 19 20  1  0
 18 21  1  0
 21 22  2  0
 22 23  1  0
 23 24  1  0
 23 25  2  0
 12 26  2  0
 26  8  1  0
 25 17  1  0
  1 27  1  6
  2 28  1  0
  2 29  1  0
  2 30  1  0
  3 31  1  0
  3 32  1  0
  5 33  1  0
  5 34  1  0
  5 35  1  0
  6 36  1  0
  6 37  1  0
  6 38  1  0
  9 39  1  0
 11 40  1  0
 13 41  1  0
 16 42  1  0
 20 43  1  0
 20 44  1  0
 20 45  1  0
 21 46  1  0
 22 47  1  0
 25 48  1  0
M  END
$$$$
