@<TRIPOS>MOLECULE
*****
 48 49 0 0 0
SMALL
GASTEIGER

@<TRIPOS>ATOM
      1 C          -4.3151   -1.1248    0.3053 C.3     1  UNL1        0.1117
      2 C          -4.4250   -1.2089    1.8286 C.3     1  UNL1       -0.0265
      3 C          -5.5291   -0.3328   -0.1614 C.3     1  UNL1        0.0352
      4 N          -5.5691    0.9695    0.4278 N.3     1  UNL1       -0.3049
      5 C          -6.7502    1.6846   -0.0466 C.3     1  UNL1       -0.0129
      6 C          -4.4106    1.7295    0.0219 C.3     1  UNL1       -0.0129
      7 O          -3.1014   -0.5171   -0.0128 O.3     1  UNL1       -0.4710
      8 C          -2.0788   -1.1470   -0.6807 C.ar    1  UNL1        0.2354
      9 C          -1.9490   -2.4188   -1.1828 C.ar    1  UNL1        0.0892
     10 N          -0.8321   -2.8079   -1.8078 N.ar    1  UNL1       -0.2546
     11 C           0.2044   -1.9671   -1.9668 C.ar    1  UNL1        0.0679
     12 C           0.0978   -0.6860   -1.4715 C.ar    1  UNL1        0.1482
     13 N           1.2375    0.1307   -1.6844 N.am    1  UNL1       -0.2526
     14 C           2.3088    0.1878   -0.7286 C.2     1  UNL1        0.3093
     15 O           2.2418   -0.5079    0.3372 O.2     1  UNL1       -0.2521
     16 N           3.4595    0.9989   -0.9217 N.am    1  UNL1       -0.2660
     17 C           4.5273    1.0569    0.0286 C.ar    1  UNL1        0.0781
     18 C           5.5909    0.1850   -0.0612 C.ar    1  UNL1        0.1413
     19 O           5.6729   -0.7745   -1.0625 O.3     1  UNL1       -0.4933
     20 C           6.8065   -1.6195   -1.0642 C.3     1  UNL1        0.0789
     21 C           6.5558    0.3422    0.9145 C.ar    1  UNL1       -0.0167
     22 C           6.5037    1.2818    1.9185 C.ar    1  UNL1       -0.0398
     23 C           5.4136    2.1355    1.9658 C.ar    1  UNL1        0.0430
     24 CL          5.3716    3.3266    3.2587 Cl      1  UNL1       -0.0835
     25 C           4.4150    2.0287    1.0186 C.ar    1  UNL1       -0.0185
     26 N          -1.0423   -0.2889   -0.8337 N.ar    1  UNL1       -0.1949
     27 H          -4.3497   -2.1669   -0.0416 H       1  UNL1        0.0743
     28 H          -4.7413   -0.2076    2.1672 H       1  UNL1        0.0266
     29 H          -5.1602   -1.9807    2.0596 H       1  UNL1        0.0266
     30 H          -3.4352   -1.5013    2.2242 H       1  UNL1        0.0266
     31 H          -5.4962   -0.3111   -1.2856 H       1  UNL1        0.0462
     32 H          -6.4222   -0.9348    0.0909 H       1  UNL1        0.0462
     33 H          -6.7718    1.6645   -1.1559 H       1  UNL1        0.0391
     34 H          -6.7407    2.7180    0.3163 H       1  UNL1        0.0391
     35 H          -7.6250    1.1619    0.3694 H       1  UNL1        0.0391
     36 H          -4.0338    1.3996   -0.9663 H       1  UNL1        0.0391
     37 H          -4.7184    2.8123   -0.0630 H       1  UNL1        0.0391
     38 H          -3.5794    1.6361    0.7522 H       1  UNL1        0.0391
     39 H          -2.8057   -3.0232   -1.0197 H       1  UNL1        0.0884
     40 H           1.0654   -2.3605   -2.4813 H       1  UNL1        0.0865
     41 H           1.3826    0.7277   -2.5133 H       1  UNL1        0.1579
     42 H           3.5070    1.5723   -1.8077 H       1  UNL1        0.1565
     43 H           7.7373   -1.0814   -1.3372 H       1  UNL1        0.0660
     44 H           6.6063   -2.4749   -1.7357 H       1  UNL1        0.0660
     45 H           6.8995   -2.0600   -0.0362 H       1  UNL1        0.0660
     46 H           7.4250   -0.3213    0.8958 H       1  UNL1        0.0655
     47 H           7.2734    1.3638    2.6484 H       1  UNL1        0.0633
     48 H           3.5782    2.7113    1.0852 H       1  UNL1        0.0652
@<TRIPOS>BOND
     1     1     2    1
     2     1     3    1
     3     3     4    1
     4     4     5    1
     5     4     6    1
     6     1     7    1
     7     7     8    1
     8     8     9   ar
     9     9    10   ar
    10    10    11   ar
    11    11    12   ar
    12    12    13    1
    13    13    14   am
    14    14    15    2
    15    14    16   am
    16    16    17    1
    17    17    18   ar
    18    18    19    1
    19    19    20    1
    20    18    21   ar
    21    21    22   ar
    22    22    23   ar
    23    23    24    1
    24    23    25   ar
    25    12    26   ar
    26    26     8   ar
    27    25    17   ar
    28     1    27    1
    29     2    28    1
    30     2    29    1
    31     2    30    1
    32     3    31    1
    33     3    32    1
    34     5    33    1
    35     5    34    1
    36     5    35    1
    37     6    36    1
    38     6    37    1
    39     6    38    1
    40     9    39    1
    41    11    40    1
    42    13    41    1
    43    16    42    1
    44    20    43    1
    45    20    44    1
    46    20    45    1
    47    21    46    1
    48    22    47    1
    49    25    48    1
