@<TRIPOS>MOLECULE
*****
 55 57 0 0 0
SMALL
GASTEIGER

@<TRIPOS>ATOM
      1 C           5.6255   -0.7978    0.2140 C.3     1  UNL1       -0.0397
      2 C           5.1792    0.6025    0.3742 C.2     1  UNL1       -0.0487
      3 C           3.8780    1.0454   -0.1811 C.2     1  UNL1       -0.0400
      4 C           3.0664    0.2967   -0.8646 C.2     1  UNL1        0.0768
      5 S           3.3434   -1.4188   -1.2818 S.3     1  UNL1       -0.0610
      6 C           1.6227   -1.7650   -1.6973 C.2     1  UNL1        0.1205
      7 S           1.0379   -3.2720   -1.7989 S.2     1  UNL1       -0.0272
      8 N           1.0337   -0.5041   -1.8800 N.am    1  UNL1       -0.2553
      9 C          -0.2885   -0.3486   -2.4850 C.3     1  UNL1        0.0215
     10 C          -1.4016   -0.3684   -1.4702 C.3     1  UNL1       -0.0285
     11 C          -2.6946   -0.1962   -2.2532 C.3     1  UNL1        0.0257
     12 C          -3.8761   -0.1857   -1.3515 C.2     1  UNL1        0.2172
     13 O          -3.7771   -0.3008   -0.0954 O.2     1  UNL1       -0.2755
     14 N          -5.1842   -0.0419   -1.8860 N.am    1  UNL1       -0.2854
     15 C          -6.3050   -0.0306   -1.0211 C.ar    1  UNL1        0.0369
     16 C          -6.7267    1.1901   -0.5329 C.ar    1  UNL1       -0.0395
     17 C          -7.8042    1.2892    0.3075 C.ar    1  UNL1       -0.0425
     18 C          -8.4973    0.1409    0.6839 C.ar    1  UNL1        0.1002
     19 C          -9.6464    0.2798    1.5842 C.2     1  UNL1        0.3404
     20 O         -10.2714   -0.7551    1.9283 O.2     1  UNL1       -0.2450
     21 O         -10.0552    1.5131    2.0596 O.3     1  UNL1       -0.4770
     22 C          -8.1068   -1.0974    0.2166 C.ar    1  UNL1        0.1326
     23 O          -8.7854   -2.2459    0.5817 O.3     1  UNL1       -0.5059
     24 C          -7.0020   -1.1622   -0.6394 C.ar    1  UNL1        0.0019
     25 C           1.7757    0.6032   -1.4493 C.2     1  UNL1        0.2583
     26 O           1.4040    1.8289   -1.5343 O.2     1  UNL1       -0.2690
     27 C           5.9364    1.4579    1.0047 C.2     1  UNL1       -0.0516
     28 C           7.2348    1.1904    1.5948 C.ar    1  UNL1       -0.0248
     29 C           7.4115    1.5819    2.9328 C.ar    1  UNL1       -0.0546
     30 C           8.6277    1.3974    3.5424 C.ar    1  UNL1       -0.0612
     31 C           9.6949    0.8288    2.8611 C.ar    1  UNL1       -0.0617
     32 C           9.4836    0.4580    1.5500 C.ar    1  UNL1       -0.0612
     33 C           8.2814    0.6248    0.9007 C.ar    1  UNL1       -0.0546
     34 H           4.8287   -1.4757    0.6622 H       1  UNL1        0.0278
     35 H           5.8647   -1.0971   -0.8021 H       1  UNL1        0.0278
     36 H           6.5155   -0.9758    0.8816 H       1  UNL1        0.0278
     37 H           3.5499    2.0811   -0.0162 H       1  UNL1        0.0633
     38 H          -0.3355    0.6252   -3.0571 H       1  UNL1        0.0469
     39 H          -0.3971   -1.1304   -3.2551 H       1  UNL1        0.0469
     40 H          -1.4057   -1.2500   -0.8376 H       1  UNL1        0.0285
     41 H          -1.2968    0.5292   -0.8243 H       1  UNL1        0.0285
     42 H          -2.8417   -1.0602   -2.9598 H       1  UNL1        0.0359
     43 H          -2.6600    0.7109   -2.8896 H       1  UNL1        0.0359
     44 H          -5.2872    0.0547   -2.9315 H       1  UNL1        0.1548
     45 H          -6.1861    2.0944   -0.8222 H       1  UNL1        0.0636
     46 H          -8.1574    2.2309    0.7065 H       1  UNL1        0.0627
     47 H         -11.0308    1.6849    2.3352 H       1  UNL1        0.2954
     48 H          -8.7543   -2.5365    1.5605 H       1  UNL1        0.2922
     49 H          -6.6716   -2.1310   -1.0235 H       1  UNL1        0.0673
     50 H           5.5397    2.4849    1.0936 H       1  UNL1        0.0626
     51 H           6.6011    2.0223    3.4734 H       1  UNL1        0.0623
     52 H           8.8060    1.6871    4.5862 H       1  UNL1        0.0618
     53 H          10.6547    0.6938    3.3698 H       1  UNL1        0.0618
     54 H          10.2961    0.0115    0.9874 H       1  UNL1        0.0618
     55 H           8.1541    0.3253   -0.1519 H       1  UNL1        0.0623
@<TRIPOS>BOND
     1     1     2    1
     2     2     3    1
     3     3     4    2
     4     4     5    1
     5     5     6    1
     6     6     7    2
     7     6     8    1
     8     8     9    1
     9     9    10    1
    10    10    11    1
    11    11    12    1
    12    12    13    2
    13    12    14   am
    14    14    15    1
    15    15    16   ar
    16    16    17   ar
    17    17    18   ar
    18    18    19    1
    19    19    20    2
    20    19    21    1
    21    18    22   ar
    22    22    23    1
    23    22    24   ar
    24     8    25   am
    25    25    26    2
    26     2    27    2
    27    27    28    1
    28    28    29   ar
    29    29    30   ar
    30    30    31   ar
    31    31    32   ar
    32    32    33   ar
    33    25     4    1
    34    33    28   ar
    35    24    15   ar
    36     1    34    1
    37     1    35    1
    38     1    36    1
    39     3    37    1
    40     9    38    1
    41     9    39    1
    42    10    40    1
    43    10    41    1
    44    11    42    1
    45    11    43    1
    46    14    44    1
    47    16    45    1
    48    17    46    1
    49    21    47    1
    50    23    48    1
    51    24    49    1
    52    27    50    1
    53    29    51    1
    54    30    52    1
    55    31    53    1
    56    32    54    1
    57    33    55    1
