
     RDKit          3D

 55 57  0  0  0  0  0  0  0  0999 V2000
    5.6255   -0.7978    0.2140 C   0  0  0  0  0  0  0  0  0  0  0  0
    5.1792    0.6025    0.3742 C   0  0  0  0  0  0  0  0  0  0  0  0
    3.8780    1.0454   -0.1811 C   0  0  0  0  0  0  0  0  0  0  0  0
    3.0664    0.2967   -0.8646 C   0  0  0  0  0  0  0  0  0  0  0  0
    3.3434   -1.4188   -1.2818 S   0  0  0  0  0  0  0  0  0  0  0  0
    1.6227   -1.7650   -1.6973 C   0  0  0  0  0  0  0  0  0  0  0  0
    1.0379   -3.2720   -1.7989 S   0  0  0  0  0  0  0  0  0  0  0  0
    1.0337   -0.5041   -1.8800 N   0  0  0  0  0  0  0  0  0  0  0  0
   -0.2885   -0.3486   -2.4850 C   0  0  0  0  0  0  0  0  0  0  0  0
   -1.4016   -0.3684   -1.4702 C   0  0  0  0  0  0  0  0  0  0  0  0
   -2.6946   -0.1962   -2.2532 C   0  0  0  0  0  0  0  0  0  0  0  0
   -3.8761   -0.1857   -1.3515 C   0  0  0  0  0  0  0  0  0  0  0  0
   -3.7771   -0.3008   -0.0954 O   0  0  0  0  0  0  0  0  0  0  0  0
   -5.1842   -0.0419   -1.8860 N   0  0  0  0  0  0  0  0  0  0  0  0
   -6.3050   -0.0306   -1.0211 C   0  0  0  0  0  0  0  0  0  0  0  0
   -6.7267    1.1901   -0.5329 C   0  0  0  0  0  0  0  0  0  0  0  0
   -7.8042    1.2892    0.3075 C   0  0  0  0  0  0  0  0  0  0  0  0
   -8.4973    0.1409    0.6839 C   0  0  0  0  0  0  0  0  0  0  0  0
   -9.6464    0.2798    1.5842 C   0  0  0  0  0  0  0  0  0  0  0  0
  -10.2714   -0.7551    1.9283 O   0  0  0  0  0  0  0  0  0  0  0  0
  -10.0552    1.5131    2.0596 O   0  0  0  0  0  0  0  0  0  0  0  0
   -8.1068   -1.0974    0.2166 C   0  0  0  0  0  0  0  0  0  0  0  0
   -8.7854   -2.2459    0.5817 O   0  0  0  0  0  0  0  0  0  0  0  0
   -7.0020   -1.1622   -0.6394 C   0  0  0  0  0  0  0  0  0  0  0  0
    1.7757    0.6032   -1.4493 C   0  0  0  0  0  0  0  0  0  0  0  0
    1.4040    1.8289   -1.5343 O   0  0  0  0  0  0  0  0  0  0  0  0
    5.9364    1.4579    1.0047 C   0  0  0  0  0  0  0  0  0  0  0  0
    7.2348    1.1904    1.5948 C   0  0  0  0  0  0  0  0  0  0  0  0
    7.4115    1.5819    2.9328 C   0  0  0  0  0  0  0  0  0  0  0  0
    8.6277    1.3974    3.5424 C   0  0  0  0  0  0  0  0  0  0  0  0
    9.6949    0.8288    2.8611 C   0  0  0  0  0  0  0  0  0  0  0  0
    9.4836    0.4580    1.5500 C   0  0  0  0  0  0  0  0  0  0  0  0
    8.2814    0.6248    0.9007 C   0  0  0  0  0  0  0  0  0  0  0  0
    4.8287   -1.4757    0.6622 H   0  0  0  0  0  0  0  0  0  0  0  0
    5.8647   -1.0971   -0.8021 H   0  0  0  0  0  0  0  0  0  0  0  0
    6.5155   -0.9758    0.8816 H   0  0  0  0  0  0  0  0  0  0  0  0
    3.5499    2.0811   -0.0162 H   0  0  0  0  0  0  0  0  0  0  0  0
   -0.3355    0.6252   -3.0571 H   0  0  0  0  0  0  0  0  0  0  0  0
   -0.3971   -1.1304   -3.2551 H   0  0  0  0  0  0  0  0  0  0  0  0
   -1.4057   -1.2500   -0.8376 H   0  0  0  0  0  0  0  0  0  0  0  0
   -1.2968    0.5292   -0.8243 H   0  0  0  0  0  0  0  0  0  0  0  0
   -2.8417   -1.0602   -2.9598 H   0  0  0  0  0  0  0  0  0  0  0  0
   -2.6600    0.7109   -2.8896 H   0  0  0  0  0  0  0  0  0  0  0  0
   -5.2872    0.0547   -2.9315 H   0  0  0  0  0  0  0  0  0  0  0  0
   -6.1861    2.0944   -0.8222 H   0  0  0  0  0  0  0  0  0  0  0  0
   -8.1574    2.2309    0.7065 H   0  0  0  0  0  0  0  0  0  0  0  0
  -11.0308    1.6849    2.3352 H   0  0  0  0  0  0  0  0  0  0  0  0
   -8.7543   -2.5365    1.5605 H   0  0  0  0  0  0  0  0  0  0  0  0
   -6.6716   -2.1310   -1.0235 H   0  0  0  0  0  0  0  0  0  0  0  0
    5.5397    2.4849    1.0936 H   0  0  0  0  0  0  0  0  0  0  0  0
    6.6011    2.0223    3.4734 H   0  0  0  0  0  0  0  0  0  0  0  0
    8.8060    1.6871    4.5862 H   0  0  0  0  0  0  0  0  0  0  0  0
   10.6547    0.6938    3.3698 H   0  0  0  0  0  0  0  0  0  0  0  0
   10.2961    0.0115    0.9874 H   0  0  0  0  0  0  0  0  0  0  0  0
    8.1541    0.3253   -0.1519 H   0  0  0  0  0  0  0  0  0  0  0  0
  1  2  1  0
  2  3  1  0
  3  4  2  0
  4  5  1  0
  5  6  1  0
  6  7  2  0
  6  8  1  0
  8  9  1  0
  9 10  1  0
 10 11  1  0
 11 12  1  0
 12 13  2  0
 12 14  1  0
 14 15  1  0
 15 16  2  0
 16 17  1  0
 17 18  2  0
 18 19  1  0
 19 20  2  0
 19 21  1  0
 18 22  1  0
 22 23  1  0
 22 24  2  0
  8 25  1  0
 25 26  2  0
  2 27  2  0
 27 28  1  0
 28 29  2  0
 29 30  1  0
 30 31  2  0
 31 32  1  0
 32 33  2  0
 25  4  1  0
 33 28  1  0
 24 15  1  0
  1 34  1  0
  1 35  1  0
  1 36  1  0
  3 37  1  0
  9 38  1  0
  9 39  1  0
 10 40  1  0
 10 41  1  0
 11 42  1  0
 11 43  1  0
 14 44  1  0
 16 45  1  0
 17 46  1  0
 21 47  1  0
 23 48  1  0
 24 49  1  0
 27 50  1  0
 29 51  1  0
 30 52  1  0
 31 53  1  0
 32 54  1  0
 33 55  1  0
M  END
$$$$
