@<TRIPOS>MOLECULE
*****
 24 24 0 0 0
SMALL
GASTEIGER

@<TRIPOS>ATOM
      1 O           2.7036    1.8238   -0.2765 O.3     1  UNK1       -0.3934
      2 C           2.3714    0.5636    0.2555 C.3     1  UNK1        0.0620
      3 C           0.8454    0.4790    0.1660 C.3     1  UNK1        0.0596
      4 N           0.5167    0.6040   -1.2385 N.3     1  UNK1       -0.3064
      5 C          -0.8747    0.4532   -1.5210 C.3     0  UNK0        0.0249
      6 C          -1.7024    0.2379   -0.2881 C.3     1  UNK1        0.0959
      7 O          -1.8748    1.3977    0.4613 O.3     1  UNK1       -0.3879
      8 C          -1.1497   -0.8547    0.5793 C.3     1  UNK1        0.1095
      9 O          -1.5990   -2.0973    0.1357 O.3     1  UNK1       -0.3866
     10 C           0.3442   -0.8379    0.6952 C.3     1  UNK1        0.1009
     11 O           0.7947   -1.0071    1.9977 O.3     1  UNK1       -0.3875
     12 H           3.0179    1.6939   -1.2109 H       1  UNK1        0.2095
     13 H           2.8267   -0.2599   -0.3080 H       1  UNK1        0.0573
     14 H           2.7020    0.4607    1.3065 H       1  UNK1        0.0573
     15 H           0.4510    1.2823    0.7881 H       1  UNK1        0.0509
     16 H           1.1264   -0.0322   -1.7863 H       1  UNK1        0.1224
     17 H          -1.0044   -0.4286   -2.1761 H       0  UNK0        0.0450
     18 H          -1.2543    1.3293   -2.0754 H       0  UNK0        0.0450
     19 H          -2.7184   -0.0781   -0.6280 H       1  UNK1        0.0633
     20 H          -2.7020    1.8590    0.1970 H       1  UNK1        0.2099
     21 H          -1.5696   -0.7158    1.6078 H       1  UNK1        0.0646
     22 H          -2.2346   -2.5238    0.7640 H       1  UNK1        0.2100
     23 H           0.7333   -1.6695    0.0620 H       1  UNK1        0.0636
     24 H           0.2505   -1.6794    2.4927 H       1  UNK1        0.2100
@<TRIPOS>BOND
     1     1     2    1
     2     2     3    1
     3     3     4    1
     4     4     5    1
     5     5     6    1
     6     6     7    1
     7     6     8    1
     8     8     9    1
     9     8    10    1
    10    10    11    1
    11    10     3    1
    12     1    12    1
    13     2    13    1
    14     2    14    1
    15     3    15    1
    16     4    16    1
    17     5    17    1
    18     5    18    1
    19     6    19    1
    20     7    20    1
    21     8    21    1
    22     9    22    1
    23    10    23    1
    24    11    24    1
