
     RDKit          3D

 24 24  0  0  0  0  0  0  0  0999 V2000
    2.7036    1.8238   -0.2765 O   0  0  0  0  0  0  0  0  0  0  0  0
    2.3714    0.5636    0.2555 C   0  0  0  0  0  0  0  0  0  0  0  0
    0.8454    0.4790    0.1660 C   0  0  1  0  0  0  0  0  0  0  0  0
    0.5167    0.6040   -1.2385 N   0  0  0  0  0  0  0  0  0  0  0  0
   -0.8747    0.4532   -1.5210 C   0  0  0  0  0  0  0  0  0  0  0  0
   -1.7024    0.2379   -0.2881 C   0  0  2  0  0  0  0  0  0  0  0  0
   -1.8748    1.3977    0.4613 O   0  0  0  0  0  0  0  0  0  0  0  0
   -1.1497   -0.8547    0.5793 C   0  0  1  0  0  0  0  0  0  0  0  0
   -1.5990   -2.0973    0.1357 O   0  0  0  0  0  0  0  0  0  0  0  0
    0.3442   -0.8379    0.6952 C   0  0  2  0  0  0  0  0  0  0  0  0
    0.7947   -1.0071    1.9977 O   0  0  0  0  0  0  0  0  0  0  0  0
    3.0179    1.6939   -1.2109 H   0  0  0  0  0  0  0  0  0  0  0  0
    2.8267   -0.2599   -0.3080 H   0  0  0  0  0  0  0  0  0  0  0  0
    2.7020    0.4607    1.3065 H   0  0  0  0  0  0  0  0  0  0  0  0
    0.4510    1.2823    0.7881 H   0  0  0  0  0  0  0  0  0  0  0  0
    1.1264   -0.0322   -1.7863 H   0  0  0  0  0  0  0  0  0  0  0  0
   -1.0044   -0.4286   -2.1761 H   0  0  0  0  0  0  0  0  0  0  0  0
   -1.2543    1.3293   -2.0754 H   0  0  0  0  0  0  0  0  0  0  0  0
   -2.7184   -0.0781   -0.6280 H   0  0  0  0  0  0  0  0  0  0  0  0
   -2.7020    1.8590    0.1970 H   0  0  0  0  0  0  0  0  0  0  0  0
   -1.5696   -0.7158    1.6078 H   0  0  0  0  0  0  0  0  0  0  0  0
   -2.2346   -2.5238    0.7640 H   0  0  0  0  0  0  0  0  0  0  0  0
    0.7333   -1.6695    0.0620 H   0  0  0  0  0  0  0  0  0  0  0  0
    0.2505   -1.6794    2.4927 H   0  0  0  0  0  0  0  0  0  0  0  0
  1  2  1  0
  2  3  1  0
  3  4  1  0
  4  5  1  0
  5  6  1  0
  6  7  1  0
  6  8  1  0
  8  9  1  0
  8 10  1  0
 10 11  1  0
 10  3  1  0
  1 12  1  0
  2 13  1  0
  2 14  1  0
  3 15  1  1
  4 16  1  0
  5 17  1  0
  5 18  1  0
  6 19  1  6
  7 20  1  0
  8 21  1  1
  9 22  1  0
 10 23  1  6
 11 24  1  0
M  END
$$$$
