
     RDKit          3D

 61 65  0  0  0  0  0  0  0  0999 V2000
   10.1030    3.1210   -1.0527 C   0  0  0  0  0  0  0  0  0  0  0  0
   10.1172    2.1629   -2.5167 S   0  0  0  0  0  6  0  0  0  0  0  0
    9.3164    2.8247   -3.6269 O   0  0  0  0  0  0  0  0  0  0  0  0
   11.5396    2.0825   -3.0668 O   0  0  0  0  0  0  0  0  0  0  0  0
    9.4636    0.6092   -2.2772 N   0  0  0  0  0  0  0  0  0  0  0  0
    8.1276    0.4045   -1.8817 C   0  0  0  0  0  0  0  0  0  0  0  0
    7.4997    1.0418   -0.8178 C   0  0  0  0  0  0  0  0  0  0  0  0
    6.1787    0.7736   -0.5043 C   0  0  0  0  0  0  0  0  0  0  0  0
    5.4700   -0.1289   -1.2421 C   0  0  0  0  0  0  0  0  0  0  0  0
    4.0746   -0.4320   -1.0017 C   0  0  0  0  0  0  0  0  0  0  0  0
    3.2222   -0.7051   -2.0257 C   0  0  0  0  0  0  0  0  0  0  0  0
    1.9425   -0.9480   -1.8344 O   0  0  0  0  0  0  0  0  0  0  0  0
    1.4536   -0.9309   -0.6443 C   0  0  0  0  0  0  0  0  0  0  0  0
    0.0835   -1.1690   -0.4180 C   0  0  0  0  0  0  0  0  0  0  0  0
   -0.4582   -1.1433    0.7666 C   0  0  0  0  0  0  0  0  0  0  0  0
   -1.8912   -0.9869    1.0982 C   0  0  0  0  0  0  0  0  0  0  0  0
   -3.0576   -0.8542    1.3892 C   0  0  0  0  0  0  0  0  0  0  0  0
   -4.5434   -0.6670    1.7813 C   0  0  0  0  0  0  0  0  0  0  0  0
   -5.0622    0.1049    0.6475 C   0  0  0  0  0  0  0  0  0  0  0  0
   -6.5566    0.0853    0.5900 C   0  0  0  0  0  0  0  0  0  0  0  0
   -7.1931   -1.0607    1.1453 N   0  0  0  0  0  0  0  0  0  0  0  0
   -8.6201   -1.1219    1.2120 C   0  0  0  0  0  0  0  0  0  0  0  0
   -9.0700   -2.2418    1.7051 O   0  0  0  0  0  0  0  0  0  0  0  0
   -9.5901   -0.1536    0.8193 C   0  0  0  0  0  0  0  0  0  0  0  0
   -9.6795    1.1565    1.5792 C   0  0  0  0  0  0  0  0  0  0  0  0
   -9.5099    1.0897    0.0805 C   0  0  0  0  0  0  0  0  0  0  0  0
   -6.4911   -2.2281    1.6544 C   0  0  0  0  0  0  0  0  0  0  0  0
   -5.0736   -2.0482    1.9371 C   0  0  0  0  0  0  0  0  0  0  0  0
    0.3322   -0.8698    1.9701 C   0  0  0  0  0  0  0  0  0  0  0  0
    1.6829   -0.6437    1.7151 C   0  0  0  0  0  0  0  0  0  0  0  0
    2.1931   -0.6758    0.4756 C   0  0  0  0  0  0  0  0  0  0  0  0
    3.5718   -0.4160    0.2675 C   0  0  0  0  0  0  0  0  0  0  0  0
    4.2572   -0.1851    1.2761 O   0  0  0  0  0  0  0  0  0  0  0  0
    6.1023   -0.7735   -2.3175 C   0  0  0  0  0  0  0  0  0  0  0  0
    7.3932   -0.5107   -2.6238 C   0  0  0  0  0  0  0  0  0  0  0  0
    9.1305    3.6838   -0.9961 H   0  0  0  0  0  0  0  0  0  0  0  0
   10.2287    2.5772   -0.1188 H   0  0  0  0  0  0  0  0  0  0  0  0
   10.9416    3.8677   -1.1212 H   0  0  0  0  0  0  0  0  0  0  0  0
   10.0792   -0.2563   -2.4412 H   0  0  0  0  0  0  0  0  0  0  0  0
    8.0455    1.7414   -0.2249 H   0  0  0  0  0  0  0  0  0  0  0  0
    5.6967    1.2861    0.3309 H   0  0  0  0  0  0  0  0  0  0  0  0
    3.5929   -0.7319   -3.0518 H   0  0  0  0  0  0  0  0  0  0  0  0
   -0.5738   -1.3818   -1.2873 H   0  0  0  0  0  0  0  0  0  0  0  0
   -4.5386   -0.0649    2.7021 H   0  0  0  0  0  0  0  0  0  0  0  0
   -4.7843    1.1994    0.8122 H   0  0  0  0  0  0  0  0  0  0  0  0
   -4.6280   -0.1909   -0.3454 H   0  0  0  0  0  0  0  0  0  0  0  0
   -6.8485    0.1215   -0.5115 H   0  0  0  0  0  0  0  0  0  0  0  0
   -6.9688    0.9925    1.0575 H   0  0  0  0  0  0  0  0  0  0  0  0
  -10.6853   -0.6024    0.8138 H   0  0  0  0  0  0  0  0  0  0  0  0
  -10.6798    1.4899    1.9518 H   0  0  0  0  0  0  0  0  0  0  0  0
   -8.8625    1.5188    2.1964 H   0  0  0  0  0  0  0  0  0  0  0  0
   -8.6284    1.5116   -0.4115 H   0  0  0  0  0  0  0  0  0  0  0  0
  -10.4362    1.4371   -0.4983 H   0  0  0  0  0  0  0  0  0  0  0  0
   -6.6995   -3.0623    0.9140 H   0  0  0  0  0  0  0  0  0  0  0  0
   -6.9929   -2.5657    2.6191 H   0  0  0  0  0  0  0  0  0  0  0  0
   -4.4276   -2.7217    1.2696 H   0  0  0  0  0  0  0  0  0  0  0  0
   -4.8096   -2.4234    2.9975 H   0  0  0  0  0  0  0  0  0  0  0  0
   -0.1506   -0.8868    2.8941 H   0  0  0  0  0  0  0  0  0  0  0  0
    2.3110   -0.4351    2.5725 H   0  0  0  0  0  0  0  0  0  0  0  0
    5.5146   -1.4855   -2.9059 H   0  0  0  0  0  0  0  0  0  0  0  0
    7.8456   -1.0356   -3.4760 H   0  0  0  0  0  0  0  0  0  0  0  0
  1  2  1  0
  2  3  2  0
  2  4  2  0
  2  5  1  0
  5  6  1  0
  6  7  2  0
  7  8  1  0
  8  9  2  0
  9 10  1  0
 10 11  2  0
 11 12  1  0
 12 13  1  0
 13 14  2  0
 14 15  1  0
 15 16  1  0
 16 17  3  0
 17 18  1  0
 18 19  1  0
 19 20  1  0
 20 21  1  0
 21 22  1  0
 22 23  2  0
 22 24  1  0
 24 25  1  0
 25 26  1  0
 21 27  1  0
 27 28  1  0
 15 29  2  0
 29 30  1  0
 30 31  2  0
 31 32  1  0
 32 33  2  0
  9 34  1  0
 34 35  2  0
 35  6  1  0
 32 10  1  0
 31 13  1  0
 28 18  1  0
 26 24  1  0
  1 36  1  0
  1 37  1  0
  1 38  1  0
  5 39  1  0
  7 40  1  0
  8 41  1  0
 11 42  1  0
 14 43  1  0
 18 44  1  0
 19 45  1  0
 19 46  1  0
 20 47  1  0
 20 48  1  0
 24 49  1  0
 25 50  1  0
 25 51  1  0
 26 52  1  0
 26 53  1  0
 27 54  1  0
 27 55  1  0
 28 56  1  0
 28 57  1  0
 29 58  1  0
 30 59  1  0
 34 60  1  0
 35 61  1  0
M  END
$$$$
