@<TRIPOS>MOLECULE
*****
 61 65 0 0 0
SMALL
GASTEIGER

@<TRIPOS>ATOM
      1 C          10.1030    3.1210   -1.0527 C.3     1  UNL1        0.0736
      2 S          10.1172    2.1629   -2.5167 S.O2    1  UNL1        0.0403
      3 O           9.3164    2.8247   -3.6269 O.2     1  UNL1       -0.1555
      4 O          11.5396    2.0825   -3.0668 O.2     1  UNL1       -0.1555
      5 N           9.4636    0.6092   -2.2772 N.pl3   1  UNL1       -0.2209
      6 C           8.1276    0.4045   -1.8817 C.ar    1  UNL1        0.0477
      7 C           7.4997    1.0418   -0.8178 C.ar    1  UNL1       -0.0388
      8 C           6.1787    0.7736   -0.5043 C.ar    1  UNL1       -0.0520
      9 C           5.4700   -0.1289   -1.2421 C.ar    1  UNL1       -0.0112
     10 C           4.0746   -0.4320   -1.0017 C.ar    1  UNL1        0.0643
     11 C           3.2222   -0.7051   -2.0257 C.ar    1  UNL1        0.1038
     12 O           1.9425   -0.9480   -1.8344 O.2     1  UNL1       -0.4621
     13 C           1.4536   -0.9309   -0.6443 C.ar    1  UNL1        0.1396
     14 C           0.0835   -1.1690   -0.4180 C.ar    1  UNL1       -0.0032
     15 C          -0.4582   -1.1433    0.7666 C.ar    1  UNL1        0.0284
     16 C          -1.8912   -0.9869    1.0982 C.1     1  UNL1       -0.0659
     17 C          -3.0576   -0.8542    1.3892 C.1     1  UNL1       -0.0935
     18 C          -4.5434   -0.6670    1.7813 C.3     1  UNL1        0.0238
     19 C          -5.0622    0.1049    0.6475 C.3     1  UNL1       -0.0234
     20 C          -6.5566    0.0853    0.5900 C.3     1  UNL1        0.0158
     21 N          -7.1931   -1.0607    1.1453 N.am    1  UNL1       -0.3012
     22 C          -8.6201   -1.1219    1.2120 C.2     1  UNL1        0.2187
     23 O          -9.0700   -2.2418    1.7051 O.2     1  UNL1       -0.2753
     24 C          -9.5901   -0.1536    0.8193 C.3     1  UNL1        0.0358
     25 C          -9.6795    1.1565    1.5792 C.3     1  UNL1       -0.0412
     26 C          -9.5099    1.0897    0.0805 C.3     1  UNL1       -0.0412
     27 C          -6.4911   -2.2281    1.6544 C.3     1  UNL1        0.0158
     28 C          -5.0736   -2.0482    1.9371 C.3     1  UNL1       -0.0234
     29 C           0.3322   -0.8698    1.9701 C.ar    1  UNL1       -0.0454
     30 C           1.6829   -0.6437    1.7151 C.ar    1  UNL1       -0.0462
     31 C           2.1931   -0.6758    0.4756 C.ar    1  UNL1        0.0646
     32 C           3.5718   -0.4160    0.2675 C.ar    1  UNL1        0.2001
     33 O           4.2572   -0.1851    1.2761 O.2     1  UNL1       -0.2864
     34 C           6.1023   -0.7735   -2.3175 C.ar    1  UNL1       -0.0520
     35 C           7.3932   -0.5107   -2.6238 C.ar    1  UNL1       -0.0388
     36 H           9.1305    3.6838   -0.9961 H       1  UNL1        0.0482
     37 H          10.2287    2.5772   -0.1188 H       1  UNL1        0.0482
     38 H          10.9416    3.8677   -1.1212 H       1  UNL1        0.0482
     39 H          10.0792   -0.2563   -2.4412 H       1  UNL1        0.1733
     40 H           8.0455    1.7414   -0.2249 H       1  UNL1        0.0637
     41 H           5.6967    1.2861    0.3309 H       1  UNL1        0.0624
     42 H           3.5929   -0.7319   -3.0518 H       1  UNL1        0.1037
     43 H          -0.5738   -1.3818   -1.2873 H       1  UNL1        0.0667
     44 H          -4.5386   -0.0649    2.7021 H       1  UNL1        0.0434
     45 H          -4.7843    1.1994    0.8122 H       1  UNL1        0.0292
     46 H          -4.6280   -0.1909   -0.3454 H       1  UNL1        0.0292
     47 H          -6.8485    0.1215   -0.5115 H       1  UNL1        0.0465
     48 H          -6.9688    0.9925    1.0575 H       1  UNL1        0.0465
     49 H         -10.6853   -0.6024    0.8138 H       1  UNL1        0.0394
     50 H         -10.6798    1.4899    1.9518 H       1  UNL1        0.0273
     51 H          -8.8625    1.5188    2.1964 H       1  UNL1        0.0273
     52 H          -8.6284    1.5116   -0.4115 H       1  UNL1        0.0273
     53 H         -10.4362    1.4371   -0.4983 H       1  UNL1        0.0273
     54 H          -6.6995   -3.0623    0.9140 H       1  UNL1        0.0465
     55 H          -6.9929   -2.5657    2.6191 H       1  UNL1        0.0465
     56 H          -4.4276   -2.7217    1.2696 H       1  UNL1        0.0292
     57 H          -4.8096   -2.4234    2.9975 H       1  UNL1        0.0292
     58 H          -0.1506   -0.8868    2.8941 H       1  UNL1        0.0630
     59 H           2.3110   -0.4351    2.5725 H       1  UNL1        0.0626
     60 H           5.5146   -1.4855   -2.9059 H       1  UNL1        0.0624
     61 H           7.8456   -1.0356   -3.4760 H       1  UNL1        0.0637
@<TRIPOS>BOND
     1     1     2    1
     2     2     3    2
     3     2     4    2
     4     2     5    1
     5     5     6    1
     6     6     7   ar
     7     7     8   ar
     8     8     9   ar
     9     9    10    1
    10    10    11   ar
    11    11    12   ar
    12    12    13   ar
    13    13    14   ar
    14    14    15   ar
    15    15    16    1
    16    16    17    3
    17    17    18    1
    18    18    19    1
    19    19    20    1
    20    20    21    1
    21    21    22   am
    22    22    23    2
    23    22    24    1
    24    24    25    1
    25    25    26    1
    26    21    27    1
    27    27    28    1
    28    15    29   ar
    29    29    30   ar
    30    30    31   ar
    31    31    32   ar
    32    32    33    2
    33     9    34   ar
    34    34    35   ar
    35    35     6   ar
    36    32    10   ar
    37    31    13   ar
    38    28    18    1
    39    26    24    1
    40     1    36    1
    41     1    37    1
    42     1    38    1
    43     5    39    1
    44     7    40    1
    45     8    41    1
    46    11    42    1
    47    14    43    1
    48    18    44    1
    49    19    45    1
    50    19    46    1
    51    20    47    1
    52    20    48    1
    53    24    49    1
    54    25    50    1
    55    25    51    1
    56    26    52    1
    57    26    53    1
    58    27    54    1
    59    27    55    1
    60    28    56    1
    61    28    57    1
    62    29    58    1
    63    30    59    1
    64    34    60    1
    65    35    61    1
