
     RDKit          3D

 46 49  0  0  0  0  0  0  0  0999 V2000
    5.2678    1.5635   -1.4093 N   0  0  0  0  0  0  0  0  0  0  0  0
    3.9151    1.1875   -1.2097 C   0  0  0  0  0  0  0  0  0  0  0  0
    3.0803    1.4590   -2.0779 O   0  0  0  0  0  0  0  0  0  0  0  0
    3.5621    0.4932    0.0157 C   0  0  0  0  0  0  0  0  0  0  0  0
    4.3858    0.1289    1.0556 C   0  0  0  0  0  0  0  0  0  0  0  0
    3.6608   -0.4813    1.9791 N   0  0  0  0  0  0  0  0  0  0  0  0
    2.3928   -0.5187    1.5602 C   0  0  0  0  0  0  0  0  0  0  0  0
    1.2671   -1.0406    2.1623 C   0  0  0  0  0  0  0  0  0  0  0  0
    0.0473   -0.9398    1.4992 C   0  0  0  0  0  0  0  0  0  0  0  0
   -0.0552   -0.3343    0.2628 C   0  0  0  0  0  0  0  0  0  0  0  0
   -1.2979   -0.1825   -0.4793 C   0  0  0  0  0  0  0  0  0  0  0  0
   -1.9057    1.0687   -0.6491 C   0  0  0  0  0  0  0  0  0  0  0  0
   -1.3950    2.3057   -0.1094 C   0  0  0  0  0  0  0  0  0  0  0  0
   -1.2942    2.4987    1.2459 C   0  0  0  0  0  0  0  0  0  0  0  0
   -0.7895    3.6926    1.7676 C   0  0  0  0  0  0  0  0  0  0  0  0
   -0.3864    4.6922    0.9105 C   0  0  0  0  0  0  0  0  0  0  0  0
    0.1117    5.8711    1.3983 F   0  0  0  0  0  0  0  0  0  0  0  0
   -0.4941    4.4821   -0.4419 C   0  0  0  0  0  0  0  0  0  0  0  0
   -0.9882    3.3138   -0.9417 C   0  0  0  0  0  0  0  0  0  0  0  0
   -3.0074    0.8383   -1.3978 N   0  0  0  0  0  0  0  0  0  0  0  0
   -3.0636   -0.4826   -1.6668 C   0  0  0  0  0  0  0  0  0  0  0  0
   -2.0005   -1.1023   -1.0930 N   0  0  0  0  0  0  0  0  0  0  0  0
   -1.7869   -2.5117   -1.1962 C   0  0  0  0  0  0  0  0  0  0  0  0
   -2.5067   -3.2660   -0.1195 C   0  0  0  0  0  0  0  0  0  0  0  0
   -2.2375   -4.7619   -0.3071 C   0  0  0  0  0  0  0  0  0  0  0  0
   -2.9186   -5.4633    0.7115 O   0  0  0  0  0  0  0  0  0  0  0  0
    1.1398    0.1678   -0.2746 C   0  0  0  0  0  0  0  0  0  0  0  0
    2.3152    0.0713    0.3649 N   0  0  0  0  0  0  0  0  0  0  0  0
    5.5097    2.5777   -1.4027 H   0  0  0  0  0  0  0  0  0  0  0  0
    6.0497    0.8916   -1.5636 H   0  0  0  0  0  0  0  0  0  0  0  0
    5.4536    0.3192    1.0951 H   0  0  0  0  0  0  0  0  0  0  0  0
    1.3274   -1.5158    3.1256 H   0  0  0  0  0  0  0  0  0  0  0  0
   -0.8588   -1.3270    1.9400 H   0  0  0  0  0  0  0  0  0  0  0  0
   -1.5905    1.7592    1.9729 H   0  0  0  0  0  0  0  0  0  0  0  0
   -0.6996    3.8703    2.8248 H   0  0  0  0  0  0  0  0  0  0  0  0
   -0.1785    5.2653   -1.1212 H   0  0  0  0  0  0  0  0  0  0  0  0
   -1.0728    3.1501   -2.0295 H   0  0  0  0  0  0  0  0  0  0  0  0
   -3.8459   -0.9569   -2.2531 H   0  0  0  0  0  0  0  0  0  0  0  0
   -0.6953   -2.6982   -1.0935 H   0  0  0  0  0  0  0  0  0  0  0  0
   -2.1610   -2.9041   -2.1880 H   0  0  0  0  0  0  0  0  0  0  0  0
   -3.6058   -3.0611   -0.1799 H   0  0  0  0  0  0  0  0  0  0  0  0
   -2.1813   -2.9335    0.8713 H   0  0  0  0  0  0  0  0  0  0  0  0
   -1.1564   -4.9097   -0.2311 H   0  0  0  0  0  0  0  0  0  0  0  0
   -2.6231   -5.0967   -1.2881 H   0  0  0  0  0  0  0  0  0  0  0  0
   -3.7613   -5.8247    0.3410 H   0  0  0  0  0  0  0  0  0  0  0  0
    1.0715    0.6450   -1.2450 H   0  0  0  0  0  0  0  0  0  0  0  0
  1  2  1  0
  2  3  2  0
  2  4  1  0
  4  5  2  0
  5  6  1  0
  6  7  2  0
  7  8  1  0
  8  9  2  0
  9 10  1  0
 10 11  1  0
 11 12  2  0
 12 13  1  0
 13 14  2  0
 14 15  1  0
 15 16  2  0
 16 17  1  0
 16 18  1  0
 18 19  2  0
 12 20  1  0
 20 21  2  0
 21 22  1  0
 22 23  1  0
 23 24  1  0
 24 25  1  0
 25 26  1  0
 10 27  2  0
 27 28  1  0
 28  4  1  0
 28  7  1  0
 22 11  1  0
 19 13  1  0
  1 29  1  0
  1 30  1  0
  5 31  1  0
  8 32  1  0
  9 33  1  0
 14 34  1  0
 15 35  1  0
 18 36  1  0
 19 37  1  0
 21 38  1  0
 23 39  1  0
 23 40  1  0
 24 41  1  0
 24 42  1  0
 25 43  1  0
 25 44  1  0
 26 45  1  0
 27 46  1  0
M  END
$$$$
