@<TRIPOS>MOLECULE
*****
 46 49 0 0 0
SMALL
GASTEIGER

@<TRIPOS>ATOM
      1 N           5.2678    1.5635   -1.4093 N.am    1  UNL1       -0.3241
      2 C           3.9151    1.1875   -1.2097 C.2     1  UNL1        0.2599
      3 O           3.0803    1.4590   -2.0779 O.2     1  UNL1       -0.2687
      4 C           3.5621    0.4932    0.0157 C.ar    1  UNL1        0.1280
      5 C           4.3858    0.1289    1.0556 C.ar    1  UNL1        0.0588
      6 N           3.6608   -0.4813    1.9791 N.ar    1  UNL1       -0.2353
      7 C           2.3928   -0.5187    1.5602 C.ar    1  UNL1        0.1381
      8 C           1.2671   -1.0406    2.1623 C.ar    1  UNL1       -0.0182
      9 C           0.0473   -0.9398    1.4992 C.ar    1  UNL1       -0.0477
     10 C          -0.0552   -0.3343    0.2628 C.ar    1  UNL1        0.0173
     11 C          -1.2979   -0.1825   -0.4793 C.ar    1  UNL1        0.0778
     12 C          -1.9057    1.0687   -0.6491 C.ar    1  UNL1        0.0967
     13 C          -1.3950    2.3057   -0.1094 C.ar    1  UNL1        0.0026
     14 C          -1.2942    2.4987    1.2459 C.ar    1  UNL1       -0.0498
     15 C          -0.7895    3.6926    1.7676 C.ar    1  UNL1       -0.0258
     16 C          -0.3864    4.6922    0.9105 C.ar    1  UNL1        0.1234
     17 F           0.1117    5.8711    1.3983 F       1  UNL1       -0.2055
     18 C          -0.4941    4.4821   -0.4419 C.ar    1  UNL1       -0.0258
     19 C          -0.9882    3.3138   -0.9417 C.ar    1  UNL1       -0.0498
     20 N          -3.0074    0.8383   -1.3978 N.ar    1  UNL1       -0.2351
     21 C          -3.0636   -0.4826   -1.6668 C.ar    1  UNL1        0.0971
     22 N          -2.0005   -1.1023   -1.0930 N.ar    1  UNL1       -0.3295
     23 C          -1.7869   -2.5117   -1.1962 C.3     1  UNL1        0.0268
     24 C          -2.5067   -3.2660   -0.1195 C.3     1  UNL1       -0.0116
     25 C          -2.2375   -4.7619   -0.3071 C.3     1  UNL1        0.0458
     26 O          -2.9186   -5.4633    0.7115 O.3     1  UNL1       -0.3949
     27 C           1.1398    0.1678   -0.2746 C.ar    1  UNL1        0.0211
     28 N           2.3152    0.0713    0.3649 N.ar    1  UNL1       -0.2949
     29 H           5.5097    2.5777   -1.4027 H       1  UNL1        0.1453
     30 H           6.0497    0.8916   -1.5636 H       1  UNL1        0.1453
     31 H           5.4536    0.3192    1.0951 H       1  UNL1        0.0853
     32 H           1.3274   -1.5158    3.1256 H       1  UNL1        0.0654
     33 H          -0.8588   -1.3270    1.9400 H       1  UNL1        0.0626
     34 H          -1.5905    1.7592    1.9729 H       1  UNL1        0.0625
     35 H          -0.6996    3.8703    2.8248 H       1  UNL1        0.0646
     36 H          -0.1785    5.2653   -1.1212 H       1  UNL1        0.0646
     37 H          -1.0728    3.1501   -2.0295 H       1  UNL1        0.0625
     38 H          -3.8459   -0.9569   -2.2531 H       1  UNL1        0.1029
     39 H          -0.6953   -2.6982   -1.0935 H       1  UNL1        0.0493
     40 H          -2.1610   -2.9041   -2.1880 H       1  UNL1        0.0493
     41 H          -3.6058   -3.0611   -0.1799 H       1  UNL1        0.0304
     42 H          -2.1813   -2.9335    0.8713 H       1  UNL1        0.0304
     43 H          -1.1564   -4.9097   -0.2311 H       1  UNL1        0.0558
     44 H          -2.6231   -5.0967   -1.2881 H       1  UNL1        0.0558
     45 H          -3.7613   -5.8247    0.3410 H       1  UNL1        0.2094
     46 H           1.0715    0.6450   -1.2450 H       1  UNL1        0.0820
@<TRIPOS>BOND
     1     1     2   am
     2     2     3    2
     3     2     4    1
     4     4     5   ar
     5     5     6   ar
     6     6     7   ar
     7     7     8   ar
     8     8     9   ar
     9     9    10   ar
    10    10    11    1
    11    11    12   ar
    12    12    13    1
    13    13    14   ar
    14    14    15   ar
    15    15    16   ar
    16    16    17    1
    17    16    18   ar
    18    18    19   ar
    19    12    20   ar
    20    20    21   ar
    21    21    22   ar
    22    22    23    1
    23    23    24    1
    24    24    25    1
    25    25    26    1
    26    10    27   ar
    27    27    28   ar
    28    28     4   ar
    29    28     7   ar
    30    22    11   ar
    31    19    13   ar
    32     1    29    1
    33     1    30    1
    34     5    31    1
    35     8    32    1
    36     9    33    1
    37    14    34    1
    38    15    35    1
    39    18    36    1
    40    19    37    1
    41    21    38    1
    42    23    39    1
    43    23    40    1
    44    24    41    1
    45    24    42    1
    46    25    43    1
    47    25    44    1
    48    26    45    1
    49    27    46    1
