@<TRIPOS>MOLECULE
*****
 46 50 0 0 0
SMALL
GASTEIGER

@<TRIPOS>ATOM
      1 N          -3.4846    2.9921   -2.4314 N.1     1  UNL1       -0.1893
      2 C          -2.5450    3.2167   -1.7709 C.1     1  UNL1        0.1192
      3 C          -1.3919    3.4738   -0.9639 C.ar    1  UNL1        0.1438
      4 C          -0.8332    4.7050   -0.6583 C.ar    1  UNL1        0.0643
      5 N           0.2568    4.5243    0.1361 N.ar    1  UNL1       -0.2348
      6 C           0.3856    3.2102    0.3289 C.ar    1  UNL1        0.1385
      7 C           1.3327    2.4922    1.0608 C.ar    1  UNL1       -0.0181
      8 C           1.1989    1.1252    1.0687 C.ar    1  UNL1       -0.0477
      9 C           0.1953    0.4469    0.4024 C.ar    1  UNL1        0.0173
     10 C           0.0905   -0.9988    0.4371 C.ar    1  UNL1        0.0781
     11 C          -0.9927   -1.6608    1.0003 C.ar    1  UNL1        0.0967
     12 C          -2.1491   -1.0512    1.6146 C.ar    1  UNL1        0.0026
     13 C          -3.4049   -1.3017    1.1374 C.ar    1  UNL1       -0.0498
     14 C          -4.5181   -0.7006    1.7434 C.ar    1  UNL1       -0.0258
     15 C          -4.3179    0.1404    2.8212 C.ar    1  UNL1        0.1234
     16 F          -5.3608    0.7556    3.4553 F       1  UNL1       -0.2055
     17 C          -3.0552    0.4025    3.3138 C.ar    1  UNL1       -0.0258
     18 C          -1.9913   -0.2128    2.6835 C.ar    1  UNL1       -0.0498
     19 N          -0.7255   -2.9885    0.8435 N.ar    1  UNL1       -0.2351
     20 C           0.4801   -3.1065    0.2062 C.ar    1  UNL1        0.0973
     21 N           0.9826   -1.8849   -0.0441 N.ar    1  UNL1       -0.3265
     22 C           2.2009   -1.4898   -0.6805 C.3     1  UNL1        0.0360
     23 C           1.9941   -0.6369   -1.9157 C.3     1  UNL1       -0.0321
     24 C           3.3739   -0.7369   -2.5339 C.3     1  UNL1       -0.0511
     25 C           3.7066   -2.1897   -2.4323 C.3     1  UNL1       -0.0511
     26 C           3.0183   -2.6571   -1.1915 C.3     1  UNL1       -0.0321
     27 C          -0.7120    1.2317   -0.3061 C.ar    1  UNL1        0.0216
     28 N          -0.5959    2.5681   -0.3245 N.ar    1  UNL1       -0.2906
     29 H          -1.2213    5.6442   -1.0088 H       1  UNL1        0.0859
     30 H           2.1222    3.0232    1.5853 H       1  UNL1        0.0654
     31 H           1.9485    0.5647    1.6469 H       1  UNL1        0.0626
     32 H          -3.6302   -1.9469    0.3014 H       1  UNL1        0.0625
     33 H          -5.5129   -0.8631    1.4105 H       1  UNL1        0.0646
     34 H          -2.8534    1.0499    4.1496 H       1  UNL1        0.0646
     35 H          -0.9989   -0.0053    3.0721 H       1  UNL1        0.0625
     36 H           0.9625   -4.0383   -0.0577 H       1  UNL1        0.1029
     37 H           2.8754   -0.9040   -0.0166 H       1  UNL1        0.0528
     38 H           1.7757    0.4208   -1.6716 H       1  UNL1        0.0285
     39 H           1.2413   -1.1006   -2.5608 H       1  UNL1        0.0285
     40 H           3.3871   -0.3685   -3.5798 H       1  UNL1        0.0266
     41 H           4.1041   -0.1825   -1.8956 H       1  UNL1        0.0266
     42 H           4.7993   -2.3813   -2.3657 H       1  UNL1        0.0266
     43 H           3.3200   -2.7781   -3.3040 H       1  UNL1        0.0266
     44 H           2.2998   -3.4818   -1.4426 H       1  UNL1        0.0285
     45 H           3.7409   -3.0274   -0.4344 H       1  UNL1        0.0285
     46 H          -1.4984    0.7063   -0.8282 H       1  UNL1        0.0820
@<TRIPOS>BOND
     1     1     2    3
     2     2     3    1
     3     3     4   ar
     4     4     5   ar
     5     5     6   ar
     6     6     7   ar
     7     7     8   ar
     8     8     9   ar
     9     9    10    1
    10    10    11   ar
    11    11    12    1
    12    12    13   ar
    13    13    14   ar
    14    14    15   ar
    15    15    16    1
    16    15    17   ar
    17    17    18   ar
    18    11    19   ar
    19    19    20   ar
    20    20    21   ar
    21    21    22    1
    22    22    23    1
    23    23    24    1
    24    24    25    1
    25    25    26    1
    26     9    27   ar
    27    27    28   ar
    28    28     3   ar
    29    28     6   ar
    30    21    10   ar
    31    26    22    1
    32    18    12   ar
    33     4    29    1
    34     7    30    1
    35     8    31    1
    36    13    32    1
    37    14    33    1
    38    17    34    1
    39    18    35    1
    40    20    36    1
    41    22    37    1
    42    23    38    1
    43    23    39    1
    44    24    40    1
    45    24    41    1
    46    25    42    1
    47    25    43    1
    48    26    44    1
    49    26    45    1
    50    27    46    1
