
     RDKit          3D

 47 49  0  0  0  0  0  0  0  0999 V2000
    1.1618    0.0381   -0.8886 C   0  0  1  0  0  0  0  0  0  0  0  0
    2.5416    0.3988   -0.4438 C   0  0  0  0  0  0  0  0  0  0  0  0
    2.6185    1.2951    0.5938 O   0  0  0  0  0  0  0  0  0  0  0  0
    4.2917    1.5173    0.8834 P   0  0  0  0  0  0  0  0  0  0  0  0
    5.1446    1.5973   -0.5824 O   0  0  0  0  0  0  0  0  0  0  0  0
    4.4870    2.8300    1.5862 O   0  0  0  0  0  0  0  0  0  0  0  0
    4.9049    0.2418    1.8094 O   0  0  0  0  0  0  0  0  0  0  0  0
    6.1904   -0.5468    1.0805 P   0  0  0  0  0  0  0  0  0  0  0  0
    7.1300    0.4832    0.1591 O   0  0  0  0  0  0  0  0  0  0  0  0
    7.1537   -1.1967    2.3194 O   0  0  0  0  0  0  0  0  0  0  0  0
    5.7008   -1.7138    0.2453 O   0  0  0  0  0  0  0  0  0  0  0  0
    0.3612   -0.5405    0.0677 O   0  0  0  0  0  0  0  0  0  0  0  0
   -0.8383   -0.6595   -0.6738 C   0  0  1  0  0  0  0  0  0  0  0  0
   -1.8707   -1.3045    0.0663 N   0  0  0  0  0  0  0  0  0  0  0  0
   -1.9579   -2.6641    0.0722 C   0  0  0  0  0  0  0  0  0  0  0  0
   -3.0059   -2.9964    0.8373 N   0  0  0  0  0  0  0  0  0  0  0  0
   -3.6120   -1.9130    1.3352 C   0  0  0  0  0  0  0  0  0  0  0  0
   -4.6938   -1.6445    2.1517 C   0  0  0  0  0  0  0  0  0  0  0  0
   -5.4139   -2.7543    2.6391 N   0  0  0  0  0  0  0  0  0  0  0  0
   -4.9885   -0.3644    2.4265 N   0  0  0  0  0  0  0  0  0  0  0  0
   -4.2622    0.6717    1.9312 C   0  0  0  0  0  0  0  0  0  0  0  0
   -3.2071    0.4075    1.1348 N   0  0  0  0  0  0  0  0  0  0  0  0
   -2.8699   -0.8588    0.8289 C   0  0  0  0  0  0  0  0  0  0  0  0
   -1.0973    0.7582   -1.0584 C   0  0  2  0  0  0  0  0  0  0  0  0
   -1.8500    0.7840   -2.2200 O   0  0  0  0  0  0  0  0  0  0  0  0
   -3.2257    1.7115   -2.1664 P   0  0  0  0  0  0  0  0  0  0  0  0
   -3.2263    2.8493   -0.9203 O   0  0  0  0  0  0  0  0  0  0  0  0
   -4.5297    0.6529   -1.8371 O   0  0  0  0  0  0  0  0  0  0  0  0
   -3.5735    2.4093   -3.4404 O   0  0  0  0  0  0  0  0  0  0  0  0
    0.3435    1.2163   -1.3324 C   0  0  2  0  0  0  0  0  0  0  0  0
    0.5537    1.3584   -2.7161 O   0  0  0  0  0  0  0  0  0  0  0  0
    1.2766   -0.7080   -1.7033 H   0  0  0  0  0  0  0  0  0  0  0  0
    3.0290   -0.5380   -0.0910 H   0  0  0  0  0  0  0  0  0  0  0  0
    3.1031    0.7174   -1.3439 H   0  0  0  0  0  0  0  0  0  0  0  0
    5.1151    0.6920   -1.0072 H   0  0  0  0  0  0  0  0  0  0  0  0
    7.6007    0.0209   -0.5715 H   0  0  0  0  0  0  0  0  0  0  0  0
    8.0571   -0.7671    2.3279 H   0  0  0  0  0  0  0  0  0  0  0  0
   -0.5300   -1.2198   -1.5852 H   0  0  0  0  0  0  0  0  0  0  0  0
   -1.3775   -3.4657   -0.3943 H   0  0  0  0  0  0  0  0  0  0  0  0
   -5.1106   -2.7308    3.6165 H   0  0  0  0  0  0  0  0  0  0  0  0
   -6.0879   -3.4700    2.2347 H   0  0  0  0  0  0  0  0  0  0  0  0
   -4.5838    1.6754    2.2141 H   0  0  0  0  0  0  0  0  0  0  0  0
   -1.5134    1.3647   -0.2321 H   0  0  0  0  0  0  0  0  0  0  0  0
   -4.1861    3.1413   -0.8038 H   0  0  0  0  0  0  0  0  0  0  0  0
   -4.9406    0.3466   -2.6991 H   0  0  0  0  0  0  0  0  0  0  0  0
    0.5769    2.1322   -0.7650 H   0  0  0  0  0  0  0  0  0  0  0  0
    1.2105    0.7457   -3.0850 H   0  0  0  0  0  0  0  0  0  0  0  0
  1  2  1  0
  2  3  1  0
  3  4  1  0
  4  5  1  0
  4  6  2  0
  4  7  1  0
  7  8  1  0
  8  9  1  0
  8 10  1  0
  8 11  2  0
  1 12  1  0
 12 13  1  0
 13 14  1  0
 14 15  1  0
 15 16  2  0
 16 17  1  0
 17 18  2  0
 18 19  1  0
 18 20  1  0
 20 21  2  0
 21 22  1  0
 22 23  2  0
 13 24  1  0
 24 25  1  0
 25 26  1  0
 26 27  1  0
 26 28  1  0
 26 29  2  0
 24 30  1  0
 30 31  1  0
 30  1  1  0
 23 14  1  0
 23 17  1  0
  1 32  1  6
  2 33  1  0
  2 34  1  0
  5 35  1  0
  9 36  1  0
 10 37  1  0
 13 38  1  6
 15 39  1  0
 19 40  1  0
 19 41  1  0
 21 42  1  0
 24 43  1  1
 27 44  1  0
 28 45  1  0
 30 46  1  1
 31 47  1  0
M  END
$$$$
