@<TRIPOS>MOLECULE
*****
 52 56 0 0 0
SMALL
GASTEIGER

@<TRIPOS>ATOM
      1 C          -4.4990   -1.9246   -1.7174 C.3     1  UNL1        0.0122
      2 N          -4.2490   -0.8861   -0.7220 N.ar    1  UNL1       -0.3454
      3 C          -5.1959   -0.2094   -0.0666 C.ar    1  UNL1        0.0366
      4 C          -4.5749    0.6966    0.7995 C.ar    1  UNL1       -0.0165
      5 C          -3.2177    0.5383    0.6394 C.ar    1  UNL1        0.0035
      6 C          -2.1600    1.1835    1.2526 C.ar    1  UNL1       -0.0504
      7 C          -0.8911    0.8276    0.9033 C.ar    1  UNL1       -0.0371
      8 C          -0.6605   -0.1547   -0.0412 C.ar    1  UNL1        0.0514
      9 N           0.6907   -0.4707   -0.3526 N.ar    1  UNL1       -0.2839
     10 C           1.5843    0.4894   -0.6369 C.ar    1  UNL1        0.0167
     11 C           2.8870    0.1967   -0.9380 C.ar    1  UNL1       -0.0031
     12 C           3.3332   -1.1048   -0.9603 C.ar    1  UNL1        0.1275
     13 O           4.5957   -1.4643   -1.2453 O.3     1  UNL1       -0.4872
     14 C           5.7801   -0.8977   -1.5630 C.3     1  UNL1        0.1146
     15 C           6.4001    0.0182   -0.5788 C.ar    1  UNL1       -0.0104
     16 C           6.2982    1.3694   -0.5974 C.ar    1  UNL1       -0.0554
     17 C           6.9079    2.1660    0.3804 C.ar    1  UNL1       -0.0614
     18 C           7.6274    1.6041    1.3869 C.ar    1  UNL1       -0.0617
     19 C           7.7501    0.2180    1.4321 C.ar    1  UNL1       -0.0614
     20 C           7.1453   -0.5433    0.4653 C.ar    1  UNL1       -0.0554
     21 C           2.3659   -2.0870   -0.6567 C.ar    1  UNL1        0.0450
     22 C           1.0903   -1.7440   -0.3658 C.ar    1  UNL1        0.2592
     23 O           0.2538   -2.6798   -0.0974 O.2     1  UNL1       -0.2672
     24 C          -1.7355   -0.7874   -0.6422 C.ar    1  UNL1       -0.0136
     25 C          -3.0290   -0.4506   -0.3111 C.ar    1  UNL1        0.0513
     26 C          -5.4341    1.5483    1.6220 C.3     1  UNL1       -0.0128
     27 C          -6.6924    0.9186    2.0965 C.3     1  UNL1        0.0003
     28 N          -7.1974   -0.1471    1.3058 N.3     1  UNL1       -0.3103
     29 C          -6.6826   -0.1945   -0.0432 C.3     1  UNL1        0.0369
     30 H          -3.5172   -2.3926   -1.9975 H       1  UNL1        0.0456
     31 H          -4.9517   -1.4576   -2.6242 H       1  UNL1        0.0456
     32 H          -5.1859   -2.6739   -1.2837 H       1  UNL1        0.0456
     33 H          -2.3927    1.9516    1.9913 H       1  UNL1        0.0625
     34 H          -0.0436    1.3338    1.3842 H       1  UNL1        0.0638
     35 H           1.2211    1.5290   -0.6171 H       1  UNL1        0.0815
     36 H           3.5510    1.0382   -1.1665 H       1  UNL1        0.0669
     37 H           5.7462   -0.3288   -2.5548 H       1  UNL1        0.0748
     38 H           6.5644   -1.7123   -1.7127 H       1  UNL1        0.0748
     39 H           5.7511    1.8522   -1.3710 H       1  UNL1        0.0621
     40 H           6.7902    3.2466    0.3127 H       1  UNL1        0.0618
     41 H           8.1129    2.1735    2.1592 H       1  UNL1        0.0618
     42 H           8.3250   -0.2327    2.2358 H       1  UNL1        0.0618
     43 H           7.2405   -1.6234    0.4999 H       1  UNL1        0.0621
     44 H           2.6945   -3.1282   -0.6678 H       1  UNL1        0.0709
     45 H          -1.5642   -1.5586   -1.3836 H       1  UNL1        0.0659
     46 H          -4.8040    1.9267    2.4745 H       1  UNL1        0.0326
     47 H          -5.7094    2.4722    1.0494 H       1  UNL1        0.0326
     48 H          -7.4875    1.6987    2.2763 H       1  UNL1        0.0427
     49 H          -6.4913    0.5070    3.1291 H       1  UNL1        0.0427
     50 H          -8.2355   -0.0528    1.2359 H       1  UNL1        0.1223
     51 H          -7.0067   -1.1805   -0.4666 H       1  UNL1        0.0488
     52 H          -7.0980    0.5834   -0.6967 H       1  UNL1        0.0488
@<TRIPOS>BOND
     1     1     2    1
     2     2     3   ar
     3     3     4   ar
     4     4     5   ar
     5     5     6   ar
     6     6     7   ar
     7     7     8   ar
     8     8     9    1
     9     9    10   ar
    10    10    11   ar
    11    11    12   ar
    12    12    13    1
    13    13    14    1
    14    14    15    1
    15    15    16   ar
    16    16    17   ar
    17    17    18   ar
    18    18    19   ar
    19    19    20   ar
    20    12    21   ar
    21    21    22   ar
    22    22    23    2
    23     8    24   ar
    24    24    25   ar
    25     4    26    1
    26    26    27    1
    27    27    28    1
    28    28    29    1
    29    25     2   ar
    30    29     3    1
    31    25     5   ar
    32    22     9   ar
    33    20    15   ar
    34     1    30    1
    35     1    31    1
    36     1    32    1
    37     6    33    1
    38     7    34    1
    39    10    35    1
    40    11    36    1
    41    14    37    1
    42    14    38    1
    43    16    39    1
    44    17    40    1
    45    18    41    1
    46    19    42    1
    47    20    43    1
    48    21    44    1
    49    24    45    1
    50    26    46    1
    51    26    47    1
    52    27    48    1
    53    27    49    1
    54    28    50    1
    55    29    51    1
    56    29    52    1
