@<TRIPOS>MOLECULE
*****
 52 53 0 0 0
SMALL
GASTEIGER

@<TRIPOS>ATOM
      1 C           5.8683   -2.2116    2.6006 C.3     1  UNL1       -0.0306
      2 C           5.0263   -2.9509    1.5892 C.3     1  UNL1        0.0901
      3 O           4.3269   -2.0768    0.7274 O.3     1  UNL1       -0.4592
      4 C           3.4303   -1.1815    1.2809 C.2     1  UNL1        0.3802
      5 O           3.2735   -1.1800    2.5208 O.2     1  UNL1       -0.2413
      6 C           2.6837   -0.2587    0.4371 C.ar    1  UNL1        0.2794
      7 N           2.7670   -0.1663   -0.9087 N.ar    1  UNL1       -0.0492
      8 O           1.9581    0.7649   -1.3178 O.2     1  UNL1       -0.3372
      9 C           1.3231    1.3157   -0.3118 C.ar    1  UNL1        0.2314
     10 C           0.3123    2.4156   -0.3543 C.3     1  UNL1        0.0464
     11 C          -0.9048    1.9208   -1.1028 C.3     1  UNL1       -0.0413
     12 C          -1.5137    0.7122   -0.4172 C.3     1  UNL1       -0.0521
     13 C          -2.7024    0.2874   -1.2125 C.3     1  UNL1       -0.0502
     14 C          -3.4146   -0.9127   -0.6461 C.3     1  UNL1       -0.0410
     15 C          -2.5656   -2.1347   -0.5525 C.3     1  UNL1       -0.0502
     16 C          -2.4336   -2.6375    0.8815 C.3     1  UNL1       -0.0528
     17 C          -3.7524   -2.8420    1.5470 C.3     1  UNL1       -0.0530
     18 C          -4.8140   -1.8589    1.1010 C.3     1  UNL1       -0.0528
     19 C          -4.0995   -0.5963    0.6661 C.3     1  UNL1       -0.0502
     20 C           0.8439    3.7002   -0.8838 C.3     1  UNL1        0.0372
     21 C           1.3636    3.6649   -2.2488 C.2     1  UNL1        0.2362
     22 O           1.4015    2.6874   -3.0133 O.2     1  UNL1       -0.2737
     23 N           1.8899    4.8985   -2.7657 N.am    1  UNL1       -0.1975
     24 O           2.3903    4.9537   -4.0196 O.3     1  UNL1       -0.2952
     25 N           1.7808    0.6705    0.7912 N.ar    1  UNL1       -0.1856
     26 H           6.8216   -2.7842    2.7831 H       1  UNL1        0.0262
     27 H           5.3083   -2.0639    3.5464 H       1  UNL1        0.0262
     28 H           6.1519   -1.1946    2.2461 H       1  UNL1        0.0262
     29 H           4.3396   -3.6590    2.1114 H       1  UNL1        0.0695
     30 H           5.7034   -3.5883    0.9820 H       1  UNL1        0.0695
     31 H          -0.0184    2.6113    0.6981 H       1  UNL1        0.0401
     32 H          -1.6537    2.7439   -1.1509 H       1  UNL1        0.0273
     33 H          -0.5958    1.7057   -2.1264 H       1  UNL1        0.0273
     34 H          -1.7246    0.8984    0.6377 H       1  UNL1        0.0266
     35 H          -0.7504   -0.1135   -0.5042 H       1  UNL1        0.0266
     36 H          -2.4351    0.1629   -2.2683 H       1  UNL1        0.0268
     37 H          -3.4412    1.1327   -1.1791 H       1  UNL1        0.0268
     38 H          -4.2471   -1.1467   -1.3709 H       1  UNL1        0.0301
     39 H          -1.5337   -1.9928   -0.9283 H       1  UNL1        0.0268
     40 H          -2.9869   -3.0021   -1.1295 H       1  UNL1        0.0268
     41 H          -1.9140   -3.6179    0.8211 H       1  UNL1        0.0265
     42 H          -1.7677   -1.9624    1.4724 H       1  UNL1        0.0265
     43 H          -3.5992   -2.6763    2.6483 H       1  UNL1        0.0265
     44 H          -4.1375   -3.8782    1.4567 H       1  UNL1        0.0265
     45 H          -5.3088   -2.3142    0.2035 H       1  UNL1        0.0265
     46 H          -5.5569   -1.6597    1.8991 H       1  UNL1        0.0265
     47 H          -3.2914   -0.3381    1.3988 H       1  UNL1        0.0268
     48 H          -4.8010    0.2475    0.5020 H       1  UNL1        0.0268
     49 H           0.0748    4.4811   -0.7382 H       1  UNL1        0.0366
     50 H           1.6945    4.0008   -0.2151 H       1  UNL1        0.0366
     51 H           1.8969    5.7685   -2.1906 H       1  UNL1        0.1822
     52 H           3.3335    5.2549   -3.9933 H       1  UNL1        0.2414
@<TRIPOS>BOND
     1     1     2    1
     2     2     3    1
     3     3     4    1
     4     4     5    2
     5     4     6    1
     6     6     7   ar
     7     7     8   ar
     8     8     9   ar
     9     9    10    1
    10    10    11    1
    11    11    12    1
    12    12    13    1
    13    13    14    1
    14    14    15    1
    15    15    16    1
    16    16    17    1
    17    17    18    1
    18    18    19    1
    19    10    20    1
    20    20    21    1
    21    21    22    2
    22    21    23   am
    23    23    24    1
    24     9    25   ar
    25    25     6   ar
    26    19    14    1
    27     1    26    1
    28     1    27    1
    29     1    28    1
    30     2    29    1
    31     2    30    1
    32    10    31    1
    33    11    32    1
    34    11    33    1
    35    12    34    1
    36    12    35    1
    37    13    36    1
    38    13    37    1
    39    14    38    1
    40    15    39    1
    41    15    40    1
    42    16    41    1
    43    16    42    1
    44    17    43    1
    45    17    44    1
    46    18    45    1
    47    18    46    1
    48    19    47    1
    49    19    48    1
    50    20    49    1
    51    20    50    1
    52    23    51    1
    53    24    52    1
