@<TRIPOS>MOLECULE
*****
 58 63 0 0 0
SMALL
GASTEIGER

@<TRIPOS>ATOM
      1 C           5.2977   -3.1270    1.3904 C.3     1  UNL1        0.0805
      2 O           4.5925   -2.2755    0.5395 O.3     1  UNL1       -0.4782
      3 C           5.1915   -1.5472   -0.4898 C.ar    1  UNL1        0.2407
      4 N           6.5093   -1.6236   -0.7281 N.ar    1  UNL1       -0.2195
      5 C           7.1029   -0.9210   -1.7250 C.ar    1  UNL1        0.0315
      6 C           6.3523   -0.0898   -2.5401 C.ar    1  UNL1       -0.0413
      7 C           5.0135   -0.0054   -2.3062 C.ar    1  UNL1       -0.0296
      8 C           4.4206   -0.7272   -1.2862 C.ar    1  UNL1        0.1270
      9 N           3.0070   -0.6451   -1.0310 N.ar    1  UNL1       -0.2308
     10 N           2.0399   -1.2002   -1.7317 N.ar    1  UNL1       -0.1609
     11 C           0.8258   -0.9177   -1.2083 C.ar    1  UNL1        0.1535
     12 C           1.0407   -0.1296   -0.1006 C.ar    1  UNL1        0.0310
     13 C           2.4088    0.0170   -0.0241 C.ar    1  UNL1        0.0481
     14 C           3.0922    0.7969    1.0259 C.3     1  UNL1       -0.0219
     15 C          -0.2726    0.2241    0.5310 C.3     1  UNL1        0.0881
     16 C          -0.4693    1.6910    0.5238 C.ar    1  UNL1        0.0132
     17 C          -0.3523    2.3432   -0.6758 C.ar    1  UNL1       -0.0510
     18 C          -0.5194    3.7094   -0.7635 C.ar    1  UNL1       -0.0259
     19 C          -0.8064    4.3773    0.4009 C.ar    1  UNL1        0.1261
     20 F          -0.9773    5.7203    0.3530 F       1  UNL1       -0.2054
     21 C          -0.9243    3.7350    1.5974 C.ar    1  UNL1        0.0091
     22 C          -0.7550    2.3509    1.6867 C.ar    1  UNL1        0.1314
     23 F          -0.8680    1.6965    2.8642 F       1  UNL1       -0.2050
     24 N          -1.2714   -0.4085   -0.2680 N.am    1  UNL1       -0.2530
     25 C          -2.6598   -0.3784   -0.0730 C.ar    1  UNL1        0.0545
     26 C          -3.4400    0.5968   -0.6546 C.ar    1  UNL1       -0.0324
     27 C          -4.8064    0.6388   -0.4716 C.ar    1  UNL1       -0.0041
     28 C          -5.6497    1.6891   -1.0976 C.3     1  UNL1       -0.0361
     29 C          -5.4087   -0.3127    0.3088 C.ar    1  UNL1        0.1641
     30 N          -6.6619   -0.5772    0.6949 N.ar    1  UNL1       -0.1292
     31 N          -6.6879   -1.6438    1.4682 N.ar    1  UNL1       -0.1340
     32 C          -5.4355   -2.0880    1.5932 C.ar    1  UNL1        0.1347
     33 C          -4.9828   -3.2718    2.3764 C.3     1  UNL1       -0.0041
     34 N          -4.6365   -1.2763    0.8833 N.ar    1  UNL1       -0.2846
     35 C          -3.3141   -1.3171    0.7062 C.ar    1  UNL1        0.0344
     36 C          -0.6131   -1.0950   -1.3183 C.2     1  UNL1        0.2721
     37 O          -1.1613   -1.7677   -2.2279 O.2     1  UNL1       -0.2679
     38 H           6.3656   -2.8179    1.4007 H       1  UNL1        0.0660
     39 H           5.2369   -4.1973    1.0628 H       1  UNL1        0.0660
     40 H           4.8418   -3.0387    2.4107 H       1  UNL1        0.0660
     41 H           8.1585   -0.9752   -1.9245 H       1  UNL1        0.0831
     42 H           6.7927    0.4898   -3.3503 H       1  UNL1        0.0633
     43 H           4.4140    0.6511   -2.9483 H       1  UNL1        0.0641
     44 H           4.1974    0.5975    1.0012 H       1  UNL1        0.0293
     45 H           2.6898    0.4692    2.0283 H       1  UNL1        0.0293
     46 H           2.8929    1.8827    0.9501 H       1  UNL1        0.0293
     47 H          -0.2001   -0.1855    1.5587 H       1  UNL1        0.0607
     48 H          -0.1261    1.8128   -1.5902 H       1  UNL1        0.0623
     49 H          -0.4315    4.2431   -1.6990 H       1  UNL1        0.0646
     50 H          -1.1500    4.2369    2.5314 H       1  UNL1        0.0675
     51 H          -3.0083    1.3662   -1.2779 H       1  UNL1        0.0640
     52 H          -6.2902    2.1041   -0.2855 H       1  UNL1        0.0279
     53 H          -6.3217    1.3031   -1.8761 H       1  UNL1        0.0279
     54 H          -5.0290    2.5313   -1.4632 H       1  UNL1        0.0279
     55 H          -3.8775   -3.3229    2.3819 H       1  UNL1        0.0308
     56 H          -5.3147   -3.1434    3.4047 H       1  UNL1        0.0308
     57 H          -5.3561   -4.1682    1.8638 H       1  UNL1        0.0308
     58 H          -2.7058   -2.0793    1.1611 H       1  UNL1        0.0833
@<TRIPOS>BOND
     1     1     2    1
     2     2     3    1
     3     3     4   ar
     4     4     5   ar
     5     5     6   ar
     6     6     7   ar
     7     7     8   ar
     8     8     9    1
     9     9    10   ar
    10    10    11   ar
    11    11    12   ar
    12    12    13   ar
    13    13    14    1
    14    12    15    1
    15    15    16    1
    16    16    17   ar
    17    17    18   ar
    18    18    19   ar
    19    19    20    1
    20    19    21   ar
    21    21    22   ar
    22    22    23    1
    23    15    24    1
    24    24    25    1
    25    25    26   ar
    26    26    27   ar
    27    27    28    1
    28    27    29   ar
    29    29    30   ar
    30    30    31   ar
    31    31    32   ar
    32    32    33    1
    33    32    34   ar
    34    34    35   ar
    35    24    36   am
    36    36    37    2
    37     8     3   ar
    38    13     9   ar
    39    22    16   ar
    40    35    25   ar
    41    36    11    1
    42    34    29   ar
    43     1    38    1
    44     1    39    1
    45     1    40    1
    46     5    41    1
    47     6    42    1
    48     7    43    1
    49    14    44    1
    50    14    45    1
    51    14    46    1
    52    15    47    1
    53    17    48    1
    54    18    49    1
    55    21    50    1
    56    26    51    1
    57    28    52    1
    58    28    53    1
    59    28    54    1
    60    33    55    1
    61    33    56    1
    62    33    57    1
    63    35    58    1
