
     RDKit          3D

 58 63  0  0  0  0  0  0  0  0999 V2000
    5.2977   -3.1270    1.3904 C   0  0  0  0  0  0  0  0  0  0  0  0
    4.5925   -2.2755    0.5395 O   0  0  0  0  0  0  0  0  0  0  0  0
    5.1915   -1.5472   -0.4898 C   0  0  0  0  0  0  0  0  0  0  0  0
    6.5093   -1.6236   -0.7281 N   0  0  0  0  0  0  0  0  0  0  0  0
    7.1029   -0.9210   -1.7250 C   0  0  0  0  0  0  0  0  0  0  0  0
    6.3523   -0.0898   -2.5401 C   0  0  0  0  0  0  0  0  0  0  0  0
    5.0135   -0.0054   -2.3062 C   0  0  0  0  0  0  0  0  0  0  0  0
    4.4206   -0.7272   -1.2862 C   0  0  0  0  0  0  0  0  0  0  0  0
    3.0070   -0.6451   -1.0310 N   0  0  0  0  0  0  0  0  0  0  0  0
    2.0399   -1.2002   -1.7317 N   0  0  0  0  0  0  0  0  0  0  0  0
    0.8258   -0.9177   -1.2083 C   0  0  0  0  0  0  0  0  0  0  0  0
    1.0407   -0.1296   -0.1006 C   0  0  0  0  0  0  0  0  0  0  0  0
    2.4088    0.0170   -0.0241 C   0  0  0  0  0  0  0  0  0  0  0  0
    3.0922    0.7969    1.0259 C   0  0  0  0  0  0  0  0  0  0  0  0
   -0.2726    0.2241    0.5310 C   0  0  0  0  0  0  0  0  0  0  0  0
   -0.4693    1.6910    0.5238 C   0  0  0  0  0  0  0  0  0  0  0  0
   -0.3523    2.3432   -0.6758 C   0  0  0  0  0  0  0  0  0  0  0  0
   -0.5194    3.7094   -0.7635 C   0  0  0  0  0  0  0  0  0  0  0  0
   -0.8064    4.3773    0.4009 C   0  0  0  0  0  0  0  0  0  0  0  0
   -0.9773    5.7203    0.3530 F   0  0  0  0  0  0  0  0  0  0  0  0
   -0.9243    3.7350    1.5974 C   0  0  0  0  0  0  0  0  0  0  0  0
   -0.7550    2.3509    1.6867 C   0  0  0  0  0  0  0  0  0  0  0  0
   -0.8680    1.6965    2.8642 F   0  0  0  0  0  0  0  0  0  0  0  0
   -1.2714   -0.4085   -0.2680 N   0  0  0  0  0  0  0  0  0  0  0  0
   -2.6598   -0.3784   -0.0730 C   0  0  0  0  0  0  0  0  0  0  0  0
   -3.4400    0.5968   -0.6546 C   0  0  0  0  0  0  0  0  0  0  0  0
   -4.8064    0.6388   -0.4716 C   0  0  0  0  0  0  0  0  0  0  0  0
   -5.6497    1.6891   -1.0976 C   0  0  0  0  0  0  0  0  0  0  0  0
   -5.4087   -0.3127    0.3088 C   0  0  0  0  0  0  0  0  0  0  0  0
   -6.6619   -0.5772    0.6949 N   0  0  0  0  0  0  0  0  0  0  0  0
   -6.6879   -1.6438    1.4682 N   0  0  0  0  0  0  0  0  0  0  0  0
   -5.4355   -2.0880    1.5932 C   0  0  0  0  0  0  0  0  0  0  0  0
   -4.9828   -3.2718    2.3764 C   0  0  0  0  0  0  0  0  0  0  0  0
   -4.6365   -1.2763    0.8833 N   0  0  0  0  0  0  0  0  0  0  0  0
   -3.3141   -1.3171    0.7062 C   0  0  0  0  0  0  0  0  0  0  0  0
   -0.6131   -1.0950   -1.3183 C   0  0  0  0  0  0  0  0  0  0  0  0
   -1.1613   -1.7677   -2.2279 O   0  0  0  0  0  0  0  0  0  0  0  0
    6.3656   -2.8179    1.4007 H   0  0  0  0  0  0  0  0  0  0  0  0
    5.2369   -4.1973    1.0628 H   0  0  0  0  0  0  0  0  0  0  0  0
    4.8418   -3.0387    2.4107 H   0  0  0  0  0  0  0  0  0  0  0  0
    8.1585   -0.9752   -1.9245 H   0  0  0  0  0  0  0  0  0  0  0  0
    6.7927    0.4898   -3.3503 H   0  0  0  0  0  0  0  0  0  0  0  0
    4.4140    0.6511   -2.9483 H   0  0  0  0  0  0  0  0  0  0  0  0
    4.1974    0.5975    1.0012 H   0  0  0  0  0  0  0  0  0  0  0  0
    2.6898    0.4692    2.0283 H   0  0  0  0  0  0  0  0  0  0  0  0
    2.8929    1.8827    0.9501 H   0  0  0  0  0  0  0  0  0  0  0  0
   -0.2001   -0.1855    1.5587 H   0  0  0  0  0  0  0  0  0  0  0  0
   -0.1261    1.8128   -1.5902 H   0  0  0  0  0  0  0  0  0  0  0  0
   -0.4315    4.2431   -1.6990 H   0  0  0  0  0  0  0  0  0  0  0  0
   -1.1500    4.2369    2.5314 H   0  0  0  0  0  0  0  0  0  0  0  0
   -3.0083    1.3662   -1.2779 H   0  0  0  0  0  0  0  0  0  0  0  0
   -6.2902    2.1041   -0.2855 H   0  0  0  0  0  0  0  0  0  0  0  0
   -6.3217    1.3031   -1.8761 H   0  0  0  0  0  0  0  0  0  0  0  0
   -5.0290    2.5313   -1.4632 H   0  0  0  0  0  0  0  0  0  0  0  0
   -3.8775   -3.3229    2.3819 H   0  0  0  0  0  0  0  0  0  0  0  0
   -5.3147   -3.1434    3.4047 H   0  0  0  0  0  0  0  0  0  0  0  0
   -5.3561   -4.1682    1.8638 H   0  0  0  0  0  0  0  0  0  0  0  0
   -2.7058   -2.0793    1.1611 H   0  0  0  0  0  0  0  0  0  0  0  0
  1  2  1  0
  2  3  1  0
  3  4  2  0
  4  5  1  0
  5  6  2  0
  6  7  1  0
  7  8  2  0
  8  9  1  0
  9 10  1  0
 10 11  2  0
 11 12  1  0
 12 13  2  0
 13 14  1  0
 12 15  1  0
 15 16  1  0
 16 17  2  0
 17 18  1  0
 18 19  2  0
 19 20  1  0
 19 21  1  0
 21 22  2  0
 22 23  1  0
 15 24  1  0
 24 25  1  0
 25 26  1  0
 26 27  2  0
 27 28  1  0
 27 29  1  0
 29 30  2  0
 30 31  1  0
 31 32  2  0
 32 33  1  0
 32 34  1  0
 34 35  1  0
 24 36  1  0
 36 37  2  0
  8  3  1  0
 13  9  1  0
 22 16  1  0
 35 25  2  0
 36 11  1  0
 34 29  1  0
  1 38  1  0
  1 39  1  0
  1 40  1  0
  5 41  1  0
  6 42  1  0
  7 43  1  0
 14 44  1  0
 14 45  1  0
 14 46  1  0
 15 47  1  0
 17 48  1  0
 18 49  1  0
 21 50  1  0
 26 51  1  0
 28 52  1  0
 28 53  1  0
 28 54  1  0
 33 55  1  0
 33 56  1  0
 33 57  1  0
 35 58  1  0
M  END
$$$$
