
     RDKit          3D

 28 29  0  0  0  0  0  0  0  0999 V2000
   -4.9896    1.0201   -0.4987 N   0  0  0  0  0  0  0  0  0  0  0  0
   -3.6538    0.5322   -0.3721 C   0  0  0  0  0  0  0  0  0  0  0  0
   -2.7599    1.5601   -0.4492 N   0  0  0  0  0  0  0  0  0  0  0  0
   -1.4306    1.2828   -0.3481 C   0  0  0  0  0  0  0  0  0  0  0  0
   -0.5664    2.2084   -0.4145 O   0  0  0  0  0  0  0  0  0  0  0  0
   -1.0685    0.0215   -0.1788 N   0  0  0  0  0  0  0  0  0  0  0  0
   -1.9089   -1.0264   -0.0966 C   0  0  0  0  0  0  0  0  0  0  0  0
   -3.2702   -0.7794   -0.1958 C   0  0  0  0  0  0  0  0  0  0  0  0
    0.3211   -0.2612   -0.0739 C   0  0  1  0  0  0  0  0  0  0  0  0
    1.0962   -0.1922   -1.3579 C   0  0  0  0  0  0  0  0  0  0  0  0
    2.4960    0.1208   -0.8399 C   0  0  0  0  0  0  0  0  0  0  0  0
    2.2954    0.0793    0.6441 C   0  0  1  0  0  0  0  0  0  0  0  0
    3.3340    0.8290    1.4316 C   0  0  0  0  0  0  0  0  0  0  0  0
    4.5580    0.1879    1.2252 O   0  0  0  0  0  0  0  0  0  0  0  0
    1.0054    0.6386    0.7752 O   0  0  0  0  0  0  0  0  0  0  0  0
   -5.4658    0.6136    0.3603 H   0  0  0  0  0  0  0  0  0  0  0  0
   -5.9467    1.0445   -0.0829 H   0  0  0  0  0  0  0  0  0  0  0  0
   -1.6244   -2.0584    0.0413 H   0  0  0  0  0  0  0  0  0  0  0  0
   -4.0752   -1.5014   -0.1507 H   0  0  0  0  0  0  0  0  0  0  0  0
    0.5287   -1.2640    0.3832 H   0  0  0  0  0  0  0  0  0  0  0  0
    0.7076    0.5994   -2.0275 H   0  0  0  0  0  0  0  0  0  0  0  0
    1.1525   -1.1815   -1.8562 H   0  0  0  0  0  0  0  0  0  0  0  0
    3.2378   -0.6332   -1.1970 H   0  0  0  0  0  0  0  0  0  0  0  0
    2.7936    1.1472   -1.1594 H   0  0  0  0  0  0  0  0  0  0  0  0
    2.2263   -0.9538    1.0134 H   0  0  0  0  0  0  0  0  0  0  0  0
    3.0761    0.6893    2.5011 H   0  0  0  0  0  0  0  0  0  0  0  0
    3.3837    1.8917    1.1192 H   0  0  0  0  0  0  0  0  0  0  0  0
    4.5477   -0.6375    1.8046 H   0  0  0  0  0  0  0  0  0  0  0  0
  1  2  1  0
  2  3  2  0
  3  4  1  0
  4  5  2  0
  4  6  1  0
  6  7  1  0
  7  8  2  0
  6  9  1  0
  9 10  1  0
 10 11  1  0
 11 12  1  0
 12 13  1  0
 13 14  1  0
 12 15  1  0
  8  2  1  0
 15  9  1  0
  1 16  1  0
  1 17  1  0
  7 18  1  0
  8 19  1  0
  9 20  1  1
 10 21  1  0
 10 22  1  0
 11 23  1  0
 11 24  1  0
 12 25  1  1
 13 26  1  0
 13 27  1  0
 14 28  1  0
M  END
$$$$
