@<TRIPOS>MOLECULE
*****
 28 29 0 0 0
SMALL
GASTEIGER

@<TRIPOS>ATOM
      1 N          -4.9896    1.0201   -0.4987 N.pl3   1  UNL1       -0.3430
      2 C          -3.6538    0.5322   -0.3721 C.ar    1  UNL1        0.1230
      3 N          -2.7599    1.5601   -0.4492 N.ar    1  UNL1       -0.1783
      4 C          -1.4306    1.2828   -0.3481 C.ar    1  UNL1        0.3521
      5 O          -0.5664    2.2084   -0.4145 O.2     1  UNL1       -0.2444
      6 N          -1.0685    0.0215   -0.1788 N.ar    1  UNL1       -0.2726
      7 C          -1.9089   -1.0264   -0.0966 C.ar    1  UNL1        0.0151
      8 C          -3.2702   -0.7794   -0.1958 C.ar    1  UNL1       -0.0056
      9 C           0.3211   -0.2612   -0.0739 C.3     1  UNL1        0.1398
     10 C           1.0962   -0.1922   -1.3579 C.3     1  UNL1       -0.0048
     11 C           2.4960    0.1208   -0.8399 C.3     1  UNL1       -0.0203
     12 C           2.2954    0.0793    0.6441 C.3     1  UNL1        0.0843
     13 C           3.3340    0.8290    1.4316 C.3     1  UNL1        0.0705
     14 O           4.5580    0.1879    1.2252 O.3     1  UNL1       -0.3925
     15 O           1.0054    0.6386    0.7752 O.3     1  UNL1       -0.3510
     16 H          -5.4658    0.6136    0.3603 H       1  UNL1        0.1437
     17 H          -5.9467    1.0445   -0.0829 H       1  UNL1        0.1437
     18 H          -1.6244   -2.0584    0.0413 H       1  UNL1        0.0812
     19 H          -4.0752   -1.5014   -0.1507 H       1  UNL1        0.0666
     20 H           0.5287   -1.2640    0.3832 H       1  UNL1        0.0839
     21 H           0.7076    0.5994   -2.0275 H       1  UNL1        0.0309
     22 H           1.1525   -1.1815   -1.8562 H       1  UNL1        0.0309
     23 H           3.2378   -0.6332   -1.1970 H       1  UNL1        0.0292
     24 H           2.7936    1.1472   -1.1594 H       1  UNL1        0.0292
     25 H           2.2263   -0.9538    1.0134 H       1  UNL1        0.0620
     26 H           3.0761    0.6893    2.5011 H       1  UNL1        0.0583
     27 H           3.3837    1.8917    1.1192 H       1  UNL1        0.0583
     28 H           4.5477   -0.6375    1.8046 H       1  UNL1        0.2095
@<TRIPOS>BOND
     1     1     2    1
     2     2     3   ar
     3     3     4   ar
     4     4     5    2
     5     4     6   ar
     6     6     7   ar
     7     7     8   ar
     8     6     9    1
     9     9    10    1
    10    10    11    1
    11    11    12    1
    12    12    13    1
    13    13    14    1
    14    12    15    1
    15     8     2   ar
    16    15     9    1
    17     1    16    1
    18     1    17    1
    19     7    18    1
    20     8    19    1
    21     9    20    1
    22    10    21    1
    23    10    22    1
    24    11    23    1
    25    11    24    1
    26    12    25    1
    27    13    26    1
    28    13    27    1
    29    14    28    1
