
     RDKit          3D

 45 48  0  0  0  0  0  0  0  0999 V2000
    2.4973   -1.3386   -2.2196 C   0  0  0  0  0  0  0  0  0  0  0  0
    2.2484   -0.6401   -0.8874 C   0  0  1  0  0  0  0  0  0  0  0  0
    0.9479   -0.6896   -0.5992 O   0  0  0  0  0  0  0  0  0  0  0  0
   -0.1883   -0.0780   -0.3515 C   0  0  0  0  0  0  0  0  0  0  0  0
   -1.3694   -0.8208   -0.0854 C   0  0  0  0  0  0  0  0  0  0  0  0
   -2.5716   -0.2556    0.1772 C   0  0  0  0  0  0  0  0  0  0  0  0
   -3.7893   -1.0021    0.4515 C   0  0  0  0  0  0  0  0  0  0  0  0
   -3.7715   -2.3743    0.4562 C   0  0  0  0  0  0  0  0  0  0  0  0
   -4.9384   -3.0902    0.7190 C   0  0  0  0  0  0  0  0  0  0  0  0
   -6.1011   -2.4290    0.9723 C   0  0  0  0  0  0  0  0  0  0  0  0
   -7.2460   -3.0984    1.2300 F   0  0  0  0  0  0  0  0  0  0  0  0
   -6.0948   -1.0490    0.9623 C   0  0  0  0  0  0  0  0  0  0  0  0
   -4.9560   -0.3905    0.7060 N   0  0  0  0  0  0  0  0  0  0  0  0
   -2.6722    1.1248    0.1909 C   0  0  0  0  0  0  0  0  0  0  0  0
   -1.5689    1.9040   -0.0582 C   0  0  0  0  0  0  0  0  0  0  0  0
   -1.3891    3.2421   -0.1064 N   0  0  0  0  0  0  0  0  0  0  0  0
   -0.1368    3.5292   -0.3854 N   0  0  0  0  0  0  0  0  0  0  0  0
    0.4355    4.8864   -0.5206 C   0  0  0  0  0  0  0  0  0  0  0  0
    0.5084    2.3690   -0.5210 C   0  0  0  0  0  0  0  0  0  0  0  0
   -0.3452    1.3215   -0.3255 C   0  0  0  0  0  0  0  0  0  0  0  0
    3.0333   -1.3198    0.2275 C   0  0  1  0  0  0  0  0  0  0  0  0
    4.5016   -1.3080   -0.0034 C   0  0  0  0  0  0  0  0  0  0  0  0
    4.8458    0.0781    0.1837 N   0  0  0  0  0  0  0  0  0  0  0  0
    4.0074    0.5316    1.2424 C   0  0  0  0  0  0  0  0  0  0  0  0
    4.1868    1.6193    1.8882 O   0  0  0  0  0  0  0  0  0  0  0  0
    2.9051   -0.4572    1.4675 C   0  0  0  0  0  0  0  0  0  0  0  0
    2.6033   -2.4247   -2.1147 H   0  0  0  0  0  0  0  0  0  0  0  0
    3.4660   -0.9574   -2.6055 H   0  0  0  0  0  0  0  0  0  0  0  0
    1.7123   -1.0648   -2.9243 H   0  0  0  0  0  0  0  0  0  0  0  0
    2.6580    0.3846   -0.9842 H   0  0  0  0  0  0  0  0  0  0  0  0
   -1.2521   -1.8942   -0.1046 H   0  0  0  0  0  0  0  0  0  0  0  0
   -2.8938   -2.9686    0.2656 H   0  0  0  0  0  0  0  0  0  0  0  0
   -4.9357   -4.1732    0.7252 H   0  0  0  0  0  0  0  0  0  0  0  0
   -7.0260   -0.5381    1.1652 H   0  0  0  0  0  0  0  0  0  0  0  0
   -3.6048    1.6055    0.3944 H   0  0  0  0  0  0  0  0  0  0  0  0
    1.3820    4.8440   -1.0944 H   0  0  0  0  0  0  0  0  0  0  0  0
    0.6534    5.3039    0.4669 H   0  0  0  0  0  0  0  0  0  0  0  0
   -0.2871    5.4736   -1.0997 H   0  0  0  0  0  0  0  0  0  0  0  0
    1.5489    2.3130   -0.7510 H   0  0  0  0  0  0  0  0  0  0  0  0
    2.6395   -2.3262    0.4479 H   0  0  0  0  0  0  0  0  0  0  0  0
    4.9820   -1.9011    0.7900 H   0  0  0  0  0  0  0  0  0  0  0  0
    4.8277   -1.7227   -0.9656 H   0  0  0  0  0  0  0  0  0  0  0  0
    5.5333    0.6918   -0.2947 H   0  0  0  0  0  0  0  0  0  0  0  0
    1.9497    0.1126    1.4791 H   0  0  0  0  0  0  0  0  0  0  0  0
    3.0647   -1.0224    2.3932 H   0  0  0  0  0  0  0  0  0  0  0  0
  1  2  1  0
  2  3  1  0
  3  4  1  0
  4  5  2  0
  5  6  1  0
  6  7  1  0
  7  8  2  0
  8  9  1  0
  9 10  2  0
 10 11  1  0
 10 12  1  0
 12 13  2  0
  6 14  2  0
 14 15  1  0
 15 16  2  0
 16 17  1  0
 17 18  1  0
 17 19  1  0
 19 20  2  0
  2 21  1  0
 21 22  1  0
 22 23  1  0
 23 24  1  0
 24 25  2  0
 24 26  1  0
 20  4  1  0
 26 21  1  0
 13  7  1  0
 20 15  1  0
  1 27  1  0
  1 28  1  0
  1 29  1  0
  2 30  1  6
  5 31  1  0
  8 32  1  0
  9 33  1  0
 12 34  1  0
 14 35  1  0
 18 36  1  0
 18 37  1  0
 18 38  1  0
 19 39  1  0
 21 40  1  1
 22 41  1  0
 22 42  1  0
 23 43  1  0
 26 44  1  0
 26 45  1  0
M  END
$$$$
