@<TRIPOS>MOLECULE
*****
 45 48 0 0 0
SMALL
GASTEIGER

@<TRIPOS>ATOM
      1 C           2.4973   -1.3386   -2.2196 C.3     1  UNL1       -0.0275
      2 C           2.2484   -0.6401   -0.8874 C.3     1  UNL1        0.1021
      3 O           0.9479   -0.6896   -0.5992 O.3     1  UNL1       -0.4880
      4 C          -0.1883   -0.0780   -0.3515 C.ar    1  UNL1        0.1322
      5 C          -1.3694   -0.8208   -0.0854 C.ar    1  UNL1       -0.0100
      6 C          -2.5716   -0.2556    0.1772 C.ar    1  UNL1        0.0059
      7 C          -3.7893   -1.0021    0.4515 C.ar    1  UNL1        0.0713
      8 C          -3.7715   -2.3743    0.4562 C.ar    1  UNL1       -0.0330
      9 C          -4.9384   -3.0902    0.7190 C.ar    1  UNL1       -0.0229
     10 C          -6.1011   -2.4290    0.9723 C.ar    1  UNL1        0.1414
     11 F          -7.2460   -3.0984    1.2300 F       1  UNL1       -0.2039
     12 C          -6.0948   -1.0490    0.9623 C.ar    1  UNL1        0.0634
     13 N          -4.9560   -0.3905    0.7060 N.ar    1  UNL1       -0.2521
     14 C          -2.6722    1.1248    0.1909 C.ar    1  UNL1       -0.0246
     15 C          -1.5689    1.9040   -0.0582 C.ar    1  UNL1        0.0968
     16 N          -1.3891    3.2421   -0.1064 N.ar    1  UNL1       -0.1713
     17 N          -0.1368    3.5292   -0.3854 N.ar    1  UNL1       -0.2732
     18 C           0.4355    4.8864   -0.5206 C.3     1  UNL1        0.0302
     19 C           0.5084    2.3690   -0.5210 C.ar    1  UNL1        0.0364
     20 C          -0.3452    1.3215   -0.3255 C.ar    1  UNL1        0.0614
     21 C           3.0333   -1.3198    0.2275 C.3     1  UNL1        0.0195
     22 C           4.5016   -1.3080   -0.0034 C.3     1  UNL1        0.0182
     23 N           4.8458    0.0781    0.1837 N.am    1  UNL1       -0.3149
     24 C           4.0074    0.5316    1.2424 C.2     1  UNL1        0.2135
     25 O           4.1868    1.6193    1.8882 O.2     1  UNL1       -0.2758
     26 C           2.9051   -0.4572    1.4675 C.3     1  UNL1        0.0315
     27 H           2.6033   -2.4247   -2.1147 H       1  UNL1        0.0265
     28 H           3.4660   -0.9574   -2.6055 H       1  UNL1        0.0265
     29 H           1.7123   -1.0648   -2.9243 H       1  UNL1        0.0265
     30 H           2.6580    0.3846   -0.9842 H       1  UNL1        0.0733
     31 H          -1.2521   -1.8942   -0.1046 H       1  UNL1        0.0661
     32 H          -2.8938   -2.9686    0.2656 H       1  UNL1        0.0640
     33 H          -4.9357   -4.1732    0.7252 H       1  UNL1        0.0647
     34 H          -7.0260   -0.5381    1.1652 H       1  UNL1        0.0859
     35 H          -3.6048    1.6055    0.3944 H       1  UNL1        0.0646
     36 H           1.3820    4.8440   -1.0944 H       1  UNL1        0.0473
     37 H           0.6534    5.3039    0.4669 H       1  UNL1        0.0473
     38 H          -0.2871    5.4736   -1.0997 H       1  UNL1        0.0473
     39 H           1.5489    2.3130   -0.7510 H       1  UNL1        0.0833
     40 H           2.6395   -2.3262    0.4479 H       1  UNL1        0.0356
     41 H           4.9820   -1.9011    0.7900 H       1  UNL1        0.0466
     42 H           4.8277   -1.7227   -0.9656 H       1  UNL1        0.0466
     43 H           5.5333    0.6918   -0.2947 H       1  UNL1        0.1487
     44 H           1.9497    0.1126    1.4791 H       1  UNL1        0.0363
     45 H           3.0647   -1.0224    2.3932 H       1  UNL1        0.0363
@<TRIPOS>BOND
     1     1     2    1
     2     2     3    1
     3     3     4    1
     4     4     5   ar
     5     5     6   ar
     6     6     7    1
     7     7     8   ar
     8     8     9   ar
     9     9    10   ar
    10    10    11    1
    11    10    12   ar
    12    12    13   ar
    13     6    14   ar
    14    14    15   ar
    15    15    16   ar
    16    16    17   ar
    17    17    18    1
    18    17    19   ar
    19    19    20   ar
    20     2    21    1
    21    21    22    1
    22    22    23    1
    23    23    24   am
    24    24    25    2
    25    24    26    1
    26    20     4   ar
    27    26    21    1
    28    13     7   ar
    29    20    15   ar
    30     1    27    1
    31     1    28    1
    32     1    29    1
    33     2    30    1
    34     5    31    1
    35     8    32    1
    36     9    33    1
    37    12    34    1
    38    14    35    1
    39    18    36    1
    40    18    37    1
    41    18    38    1
    42    19    39    1
    43    21    40    1
    44    22    41    1
    45    22    42    1
    46    23    43    1
    47    26    44    1
    48    26    45    1
