@<TRIPOS>MOLECULE
*****
 63 67 0 0 0
SMALL
GASTEIGER

@<TRIPOS>ATOM
      1 C          -3.3508   -0.0213    2.9137 C.3     1  UNL1       -0.0443
      2 C          -2.6369    0.5472    1.7159 C.3     1  UNL1        0.0667
      3 N          -3.4770    1.1638    0.7514 N.3     1  UNL1       -0.1876
      4 S          -3.3214    2.8344    0.5507 S.O2    1  UNL1        0.0326
      5 O          -4.3408    3.2603   -0.4993 O.2     1  UNL1       -0.1579
      6 O          -3.7414    3.5749    1.8127 O.2     1  UNL1       -0.1579
      7 C          -1.7308    3.3463    0.0088 C.3     1  UNL1        0.0929
      8 C          -1.4736    3.4532   -1.5046 C.3     1  UNL1       -0.0275
      9 C          -1.6347    4.6900   -0.6332 C.3     1  UNL1       -0.0275
     10 C          -1.6866   -0.4486    1.1663 C.3     1  UNL1        0.1417
     11 O          -0.7991    0.1233    0.2544 O.3     1  UNL1       -0.4826
     12 C           0.5460    0.2903    0.3160 C.ar    1  UNL1        0.1222
     13 C           1.2679    0.8791   -0.7204 C.ar    1  UNL1       -0.0179
     14 C           2.6310    1.0523   -0.6646 C.ar    1  UNL1       -0.0322
     15 C           3.3501    0.6482    0.4267 C.ar    1  UNL1        0.0748
     16 C           2.6696    0.0620    1.4703 C.ar    1  UNL1        0.0236
     17 C           3.6092   -0.2491    2.4314 C.ar    1  UNL1        0.0576
     18 N           4.7913    0.1548    1.9358 N.ar    1  UNL1       -0.1737
     19 N           4.6571    0.6944    0.7370 N.ar    1  UNL1       -0.2321
     20 C           5.6591    1.2383   -0.1150 C.ar    1  UNL1        0.0662
     21 C           5.8874    0.7785   -1.3949 C.ar    1  UNL1       -0.0335
     22 C           6.8708    1.3299   -2.1983 C.ar    1  UNL1       -0.0244
     23 C           7.6638    2.3645   -1.7488 C.ar    1  UNL1        0.1235
     24 F           8.6237    2.8885   -2.5595 F       1  UNL1       -0.2055
     25 C           7.4442    2.8317   -0.4713 C.ar    1  UNL1       -0.0244
     26 C           6.4530    2.2739    0.3347 C.ar    1  UNL1       -0.0335
     27 C           1.2812   -0.1093    1.4027 C.ar    1  UNL1       -0.0092
     28 C          -2.3108   -1.6836    0.6388 C.ar    1  UNL1       -0.0057
     29 C          -3.6343   -1.9900    0.6414 C.ar    1  UNL1       -0.0532
     30 C          -4.1006   -3.1901    0.1211 C.ar    1  UNL1       -0.0365
     31 C          -3.2401   -4.1182   -0.4188 C.ar    1  UNL1        0.0879
     32 S          -3.8104   -5.6414   -1.0815 S.O2    1  UNL1       -0.0059
     33 C          -4.1655   -5.4145   -2.8068 C.3     1  UNL1        0.0596
     34 O          -2.7101   -6.6357   -0.9338 O.2     1  UNL1       -0.1696
     35 O          -5.0080   -6.1231   -0.3467 O.2     1  UNL1       -0.1696
     36 C          -1.8999   -3.8056   -0.4205 C.ar    1  UNL1       -0.0365
     37 C          -1.4246   -2.6163    0.0937 C.ar    1  UNL1       -0.0532
     38 H          -2.9577    0.4769    3.8289 H       1  UNL1        0.0246
     39 H          -4.4333    0.1474    2.9336 H       1  UNL1        0.0246
     40 H          -3.1385   -1.1045    3.0913 H       1  UNL1        0.0246
     41 H          -1.9917    1.3943    2.1196 H       1  UNL1        0.0514
     42 H          -3.4935    0.6167   -0.1251 H       1  UNL1        0.1481
     43 H          -0.8566    3.0808    0.6571 H       1  UNL1        0.0551
     44 H          -0.4842    3.2148   -1.8945 H       1  UNL1        0.0285
     45 H          -2.3490    3.1485   -2.1454 H       1  UNL1        0.0285
     46 H          -2.5897    5.2389   -0.8187 H       1  UNL1        0.0285
     47 H          -0.7197    5.3014   -0.5676 H       1  UNL1        0.0285
     48 H          -1.0806   -0.8073    2.0514 H       1  UNL1        0.0801
     49 H           0.7358    1.1984   -1.5800 H       1  UNL1        0.0655
     50 H           3.1764    1.5108   -1.4769 H       1  UNL1        0.0640
     51 H           3.3637   -0.7223    3.3687 H       1  UNL1        0.0854
     52 H           5.2688   -0.0327   -1.7533 H       1  UNL1        0.0640
     53 H           7.0496    0.9604   -3.2183 H       1  UNL1        0.0647
     54 H           8.0703    3.6439   -0.1251 H       1  UNL1        0.0647
     55 H           6.2923    2.6466    1.3267 H       1  UNL1        0.0640
     56 H           0.8311   -0.5825    2.2772 H       1  UNL1        0.0661
     57 H          -4.3260   -1.2931    1.0460 H       1  UNL1        0.0622
     58 H          -5.1667   -3.4003    0.1408 H       1  UNL1        0.0637
     59 H          -3.2001   -5.1040   -3.3005 H       1  UNL1        0.0468
     60 H          -4.8886   -4.6121   -2.9777 H       1  UNL1        0.0468
     61 H          -4.4327   -6.3770   -3.2769 H       1  UNL1        0.0468
     62 H          -1.2333   -4.5508   -0.8513 H       1  UNL1        0.0637
     63 H          -0.3543   -2.4259    0.0641 H       1  UNL1        0.0622
@<TRIPOS>BOND
     1     1     2    1
     2     2     3    1
     3     3     4    1
     4     4     5    2
     5     4     6    2
     6     4     7    1
     7     7     8    1
     8     8     9    1
     9     2    10    1
    10    10    11    1
    11    11    12    1
    12    12    13   ar
    13    13    14   ar
    14    14    15   ar
    15    15    16   ar
    16    16    17   ar
    17    17    18   ar
    18    18    19   ar
    19    19    20    1
    20    20    21   ar
    21    21    22   ar
    22    22    23   ar
    23    23    24    1
    24    23    25   ar
    25    25    26   ar
    26    16    27   ar
    27    10    28    1
    28    28    29   ar
    29    29    30   ar
    30    30    31   ar
    31    31    32    1
    32    32    33    1
    33    32    34    2
    34    32    35    2
    35    31    36   ar
    36    36    37   ar
    37     9     7    1
    38    27    12   ar
    39    37    28   ar
    40    19    15   ar
    41    26    20   ar
    42     1    38    1
    43     1    39    1
    44     1    40    1
    45     2    41    1
    46     3    42    1
    47     7    43    1
    48     8    44    1
    49     8    45    1
    50     9    46    1
    51     9    47    1
    52    10    48    1
    53    13    49    1
    54    14    50    1
    55    17    51    1
    56    21    52    1
    57    22    53    1
    58    25    54    1
    59    26    55    1
    60    27    56    1
    61    29    57    1
    62    30    58    1
    63    33    59    1
    64    33    60    1
    65    33    61    1
    66    36    62    1
    67    37    63    1
