@<TRIPOS>MOLECULE
*****
 29 29 0 0 0
SMALL
GASTEIGER

@<TRIPOS>ATOM
      1 C          -1.6152   -1.1537    1.5791 C.3     1  UNL1       -0.0613
      2 C          -1.4871   -0.6989    0.1617 C.3     1  UNL1       -0.0240
      3 C          -2.4967    0.3966   -0.0568 C.3     1  UNL1       -0.0613
      4 C          -0.0678   -0.2636   -0.1840 C.3     1  UNL1        0.1290
      5 C           0.8179   -1.4764    0.0452 C.3     1  UNL1       -0.0123
      6 C           2.2568   -1.1580   -0.2687 C.2     1  UNL1       -0.0897
      7 C           3.2488   -1.2461    0.6189 C.2     1  UNL1       -0.1026
      8 C           0.3646    0.7578    0.8048 C.2     1  UNL1        0.2360
      9 O           0.7258    0.5491    1.9941 O.2     1  UNL1       -0.2742
     10 N           0.4137    2.1619    0.4767 N.am    1  UNL1       -0.2390
     11 C           0.2676    2.5689   -0.8862 C.2     1  UNL1        0.3122
     12 O           0.3066    3.7978   -1.2049 O.2     1  UNL1       -0.2520
     13 N           0.0719    1.6383   -1.9567 N.am    1  UNL1       -0.2390
     14 C           0.0365    0.2692   -1.5375 C.2     1  UNL1        0.2360
     15 O           0.1039   -0.6194   -2.4529 O.2     1  UNL1       -0.2742
     16 H          -2.7178   -1.3628    1.7168 H       1  UNL1        0.0233
     17 H          -1.3927   -0.3761    2.3337 H       1  UNL1        0.0233
     18 H          -1.1462   -2.1407    1.8009 H       1  UNL1        0.0233
     19 H          -1.8069   -1.5535   -0.4707 H       1  UNL1        0.0310
     20 H          -3.4993   -0.0531   -0.3111 H       1  UNL1        0.0233
     21 H          -2.6680    0.9578    0.8938 H       1  UNL1        0.0233
     22 H          -2.2437    1.1211   -0.8255 H       1  UNL1        0.0233
     23 H           0.7417   -1.8429    1.0897 H       1  UNL1        0.0322
     24 H           0.5550   -2.3394   -0.6023 H       1  UNL1        0.0322
     25 H           2.3023   -0.8559   -1.3268 H       1  UNL1        0.0567
     26 H           4.2042   -0.9637    0.1555 H       1  UNL1        0.0532
     27 H           4.2081   -0.9733    0.1924 H       1  UNL1        0.0532
     28 H           0.5497    2.9329    1.1571 H       1  UNL1        0.1591
     29 H          -0.0335    1.9261   -2.9364 H       1  UNL1        0.1591
@<TRIPOS>BOND
     1     1     2    1
     2     2     3    1
     3     2     4    1
     4     4     5    1
     5     5     6    1
     6     6     7    2
     7     4     8    1
     8     8     9    2
     9     8    10   am
    10    10    11   am
    11    11    12    2
    12    11    13   am
    13    13    14   am
    14    14    15    2
    15    14     4    1
    16     1    16    1
    17     1    17    1
    18     1    18    1
    19     2    19    1
    20     3    20    1
    21     3    21    1
    22     3    22    1
    23     5    23    1
    24     5    24    1
    25     6    25    1
    26     7    26    1
    27     7    27    1
    28    10    28    1
    29    13    29    1
