
     RDKit          3D

 40 43  0  0  0  0  0  0  0  0999 V2000
    2.9309   -3.7142    0.8456 N   0  0  0  0  0  0  0  0  0  0  0  0
    2.7773   -3.0160   -0.0403 C   0  0  0  0  0  0  0  0  0  0  0  0
    2.5687   -2.1492   -1.1738 C   0  0  0  0  0  0  0  0  0  0  0  0
    3.1268   -2.2531   -2.4218 C   0  0  0  0  0  0  0  0  0  0  0  0
    2.6641   -1.2492   -3.1755 N   0  0  0  0  0  0  0  0  0  0  0  0
    1.8273   -0.5254   -2.4115 C   0  0  0  0  0  0  0  0  0  0  0  0
    1.1220    0.6027   -2.7811 C   0  0  0  0  0  0  0  0  0  0  0  0
    0.3170    1.1789   -1.8147 C   0  0  0  0  0  0  0  0  0  0  0  0
    0.2463    0.6288   -0.5562 C   0  0  0  0  0  0  0  0  0  0  0  0
   -0.6057    1.2520    0.4658 C   0  0  0  0  0  0  0  0  0  0  0  0
   -1.6854    0.6070    1.0737 C   0  0  0  0  0  0  0  0  0  0  0  0
   -2.1442   -0.7592    0.8146 C   0  0  0  0  0  0  0  0  0  0  0  0
   -2.6187   -1.0893   -0.4239 C   0  0  0  0  0  0  0  0  0  0  0  0
   -3.0713   -2.3781   -0.7397 C   0  0  0  0  0  0  0  0  0  0  0  0
   -3.0288   -3.3446    0.2560 C   0  0  0  0  0  0  0  0  0  0  0  0
   -3.4679   -4.5840   -0.0583 F   0  0  0  0  0  0  0  0  0  0  0  0
   -2.5569   -3.0402    1.5094 C   0  0  0  0  0  0  0  0  0  0  0  0
   -2.5370   -4.3146    2.7038 Cl  0  0  0  0  0  0  0  0  0  0  0  0
   -2.1210   -1.7584    1.7778 C   0  0  0  0  0  0  0  0  0  0  0  0
   -2.1910    1.5029    1.9360 N   0  0  0  0  0  0  0  0  0  0  0  0
   -1.5075    2.6585    1.9116 C   0  0  0  0  0  0  0  0  0  0  0  0
   -0.5280    2.4823    0.9930 N   0  0  0  0  0  0  0  0  0  0  0  0
    0.4497    3.5000    0.6532 C   0  0  0  0  0  0  0  0  0  0  0  0
    1.6780    3.3601    1.5422 C   0  0  0  0  0  0  0  0  0  0  0  0
    2.1894    2.0808    1.2990 O   0  0  0  0  0  0  0  0  0  0  0  0
    0.9807   -0.5093   -0.2444 C   0  0  0  0  0  0  0  0  0  0  0  0
    1.7732   -1.0808   -1.1879 N   0  0  0  0  0  0  0  0  0  0  0  0
    3.8141   -3.0043   -2.7476 H   0  0  0  0  0  0  0  0  0  0  0  0
    1.1593    1.0544   -3.7567 H   0  0  0  0  0  0  0  0  0  0  0  0
   -0.2771    2.0718   -2.0227 H   0  0  0  0  0  0  0  0  0  0  0  0
   -2.6623   -0.3555   -1.2189 H   0  0  0  0  0  0  0  0  0  0  0  0
   -3.4379   -2.6221   -1.7021 H   0  0  0  0  0  0  0  0  0  0  0  0
   -1.7532   -1.5399    2.7667 H   0  0  0  0  0  0  0  0  0  0  0  0
   -1.6916    3.5684    2.5054 H   0  0  0  0  0  0  0  0  0  0  0  0
    0.0544    4.5285    0.8947 H   0  0  0  0  0  0  0  0  0  0  0  0
    0.7538    3.4844   -0.3989 H   0  0  0  0  0  0  0  0  0  0  0  0
    2.4593    4.0630    1.1889 H   0  0  0  0  0  0  0  0  0  0  0  0
    1.4930    3.5691    2.5900 H   0  0  0  0  0  0  0  0  0  0  0  0
    2.5927    2.0112    0.4046 H   0  0  0  0  0  0  0  0  0  0  0  0
    0.9077   -0.9172    0.7440 H   0  0  0  0  0  0  0  0  0  0  0  0
  1  2  3  0
  2  3  1  0
  3  4  2  0
  4  5  1  0
  5  6  2  0
  6  7  1  0
  7  8  2  0
  8  9  1  0
  9 10  1  0
 10 11  2  0
 11 12  1  0
 12 13  2  0
 13 14  1  0
 14 15  2  0
 15 16  1  0
 15 17  1  0
 17 18  1  0
 17 19  2  0
 11 20  1  0
 20 21  2  0
 21 22  1  0
 22 23  1  0
 23 24  1  0
 24 25  1  0
  9 26  2  0
 26 27  1  0
 27  3  1  0
 27  6  1  0
 22 10  1  0
 19 12  1  0
  4 28  1  0
  7 29  1  0
  8 30  1  0
 13 31  1  0
 14 32  1  0
 19 33  1  0
 21 34  1  0
 23 35  1  0
 23 36  1  0
 24 37  1  0
 24 38  1  0
 25 39  1  0
 26 40  1  0
M  END
$$$$
