@<TRIPOS>MOLECULE
*****
 40 43 0 0 0
SMALL
GASTEIGER

@<TRIPOS>ATOM
      1 N           2.9309   -3.7142    0.8456 N.1     1  UNL1       -0.1893
      2 C           2.7773   -3.0160   -0.0403 C.1     1  UNL1        0.1192
      3 C           2.5687   -2.1492   -1.1738 C.ar    1  UNL1        0.1438
      4 C           3.1268   -2.2531   -2.4218 C.ar    1  UNL1        0.0643
      5 N           2.6641   -1.2492   -3.1755 N.ar    1  UNL1       -0.2348
      6 C           1.8273   -0.5254   -2.4115 C.ar    1  UNL1        0.1385
      7 C           1.1220    0.6027   -2.7811 C.ar    1  UNL1       -0.0181
      8 C           0.3170    1.1789   -1.8147 C.ar    1  UNL1       -0.0477
      9 C           0.2463    0.6288   -0.5562 C.ar    1  UNL1        0.0173
     10 C          -0.6057    1.2520    0.4658 C.ar    1  UNL1        0.0779
     11 C          -1.6854    0.6070    1.0737 C.ar    1  UNL1        0.0968
     12 C          -2.1442   -0.7592    0.8146 C.ar    1  UNL1        0.0040
     13 C          -2.6187   -1.0893   -0.4239 C.ar    1  UNL1       -0.0497
     14 C          -3.0713   -2.3781   -0.7397 C.ar    1  UNL1       -0.0244
     15 C          -3.0288   -3.3446    0.2560 C.ar    1  UNL1        0.1417
     16 F          -3.4679   -4.5840   -0.0583 F       1  UNL1       -0.2040
     17 C          -2.5569   -3.0402    1.5094 C.ar    1  UNL1        0.0767
     18 CL         -2.5370   -4.3146    2.7038 Cl      1  UNL1       -0.0806
     19 C          -2.1210   -1.7584    1.7778 C.ar    1  UNL1       -0.0313
     20 N          -2.1910    1.5029    1.9360 N.ar    1  UNL1       -0.2351
     21 C          -1.5075    2.6585    1.9116 C.ar    1  UNL1        0.0971
     22 N          -0.5280    2.4823    0.9930 N.ar    1  UNL1       -0.3274
     23 C           0.4497    3.5000    0.6532 C.3     1  UNL1        0.0479
     24 C           1.6780    3.3601    1.5422 C.3     1  UNL1        0.0622
     25 O           2.1894    2.0808    1.2990 O.3     1  UNL1       -0.3933
     26 C           0.9807   -0.5093   -0.2444 C.ar    1  UNL1        0.0216
     27 N           1.7732   -1.0808   -1.1879 N.ar    1  UNL1       -0.2906
     28 H           3.8141   -3.0043   -2.7476 H       1  UNL1        0.0859
     29 H           1.1593    1.0544   -3.7567 H       1  UNL1        0.0654
     30 H          -0.2771    2.0718   -2.0227 H       1  UNL1        0.0626
     31 H          -2.6623   -0.3555   -1.2189 H       1  UNL1        0.0625
     32 H          -3.4379   -2.6221   -1.7021 H       1  UNL1        0.0647
     33 H          -1.7532   -1.5399    2.7667 H       1  UNL1        0.0640
     34 H          -1.6916    3.5684    2.5054 H       1  UNL1        0.1029
     35 H           0.0544    4.5285    0.8947 H       1  UNL1        0.0515
     36 H           0.7538    3.4844   -0.3989 H       1  UNL1        0.0515
     37 H           2.4593    4.0630    1.1889 H       1  UNL1        0.0575
     38 H           1.4930    3.5691    2.5900 H       1  UNL1        0.0575
     39 H           2.5927    2.0112    0.4046 H       1  UNL1        0.2095
     40 H           0.9077   -0.9172    0.7440 H       1  UNL1        0.0820
@<TRIPOS>BOND
     1     1     2    3
     2     2     3    1
     3     3     4   ar
     4     4     5   ar
     5     5     6   ar
     6     6     7   ar
     7     7     8   ar
     8     8     9   ar
     9     9    10    1
    10    10    11   ar
    11    11    12    1
    12    12    13   ar
    13    13    14   ar
    14    14    15   ar
    15    15    16    1
    16    15    17   ar
    17    17    18    1
    18    17    19   ar
    19    11    20   ar
    20    20    21   ar
    21    21    22   ar
    22    22    23    1
    23    23    24    1
    24    24    25    1
    25     9    26   ar
    26    26    27   ar
    27    27     3   ar
    28    27     6   ar
    29    22    10   ar
    30    19    12   ar
    31     4    28    1
    32     7    29    1
    33     8    30    1
    34    13    31    1
    35    14    32    1
    36    19    33    1
    37    21    34    1
    38    23    35    1
    39    23    36    1
    40    24    37    1
    41    24    38    1
    42    25    39    1
    43    26    40    1
