
     RDKit          3D

 57 59  0  0  0  0  0  0  0  0999 V2000
   -7.4542   -0.6352    2.7699 C   0  0  0  0  0  0  0  0  0  0  0  0
   -5.9591   -0.5343    2.6237 C   0  0  0  0  0  0  0  0  0  0  0  0
   -5.5835   -0.6485    1.0972 C   0  0  0  0  0  0  0  0  0  0  0  0
   -6.3109    0.5149    0.5056 C   0  0  0  0  0  0  0  0  0  0  0  0
   -6.2132    0.7418   -0.9508 C   0  0  0  0  0  0  0  0  0  0  0  0
   -4.0969   -0.5595    1.1176 C   0  0  0  0  0  0  0  0  0  0  0  0
   -3.4149   -0.6828   -0.1842 C   0  0  0  0  0  0  0  0  0  0  0  0
   -3.9005   -0.9656   -1.3009 O   0  0  0  0  0  0  0  0  0  0  0  0
   -2.0221   -0.4436   -0.1353 N   0  0  0  0  0  0  0  0  0  0  0  0
   -1.0742   -0.4758   -1.1837 C   0  0  0  0  0  0  0  0  0  0  0  0
    0.2570   -0.2249   -0.9253 C   0  0  0  0  0  0  0  0  0  0  0  0
    1.2443   -0.2330   -1.8783 C   0  0  0  0  0  0  0  0  0  0  0  0
    2.6291    0.0508   -1.4613 C   0  0  0  0  0  0  0  0  0  0  0  0
    3.6599    0.0731   -2.2802 C   0  0  0  0  0  0  0  0  0  0  0  0
    4.9657    0.3707   -1.7070 C   0  0  0  0  0  0  0  0  0  0  0  0
    5.4429    0.6243   -0.6276 N   0  0  0  0  0  0  0  0  0  0  0  0
    6.7284    0.8570   -0.4228 C   0  0  0  0  0  0  0  0  0  0  0  0
    7.6017    0.8028   -1.5573 C   0  0  0  0  0  0  0  0  0  0  0  0
    6.4158    0.3940   -2.9115 S   0  0  0  0  0  0  0  0  0  0  0  0
    7.3374    1.1735    0.9196 C   0  0  0  0  0  0  0  0  0  0  0  0
    8.5374    0.2935    1.2150 C   0  0  0  0  0  0  0  0  0  0  0  0
    9.4314    1.5176    1.3259 C   0  0  0  0  0  0  0  0  0  0  0  0
    8.2566    2.3693    0.8932 C   0  0  0  0  0  0  0  0  0  0  0  0
    0.9462   -0.5001   -3.1800 C   0  0  0  0  0  0  0  0  0  0  0  0
   -0.3663   -0.7583   -3.4985 C   0  0  0  0  0  0  0  0  0  0  0  0
   -1.3199   -0.7392   -2.5120 C   0  0  0  0  0  0  0  0  0  0  0  0
   -6.0632   -1.9376    0.6047 C   0  0  0  0  0  0  0  0  0  0  0  0
   -5.5413   -3.0649    1.2342 O   0  0  0  0  0  0  0  0  0  0  0  0
   -6.8834   -2.1327   -0.3119 O   0  0  0  0  0  0  0  0  0  0  0  0
   -7.9381    0.3459    2.7060 H   0  0  0  0  0  0  0  0  0  0  0  0
   -7.6638   -1.0179    3.8096 H   0  0  0  0  0  0  0  0  0  0  0  0
   -7.8339   -1.3570    2.0181 H   0  0  0  0  0  0  0  0  0  0  0  0
   -5.6029    0.4608    2.9613 H   0  0  0  0  0  0  0  0  0  0  0  0
   -5.4086   -1.3215    3.1362 H   0  0  0  0  0  0  0  0  0  0  0  0
   -7.3964    0.3504    0.7401 H   0  0  0  0  0  0  0  0  0  0  0  0
   -6.0292    1.4398    1.0750 H   0  0  0  0  0  0  0  0  0  0  0  0
   -6.4479   -0.1776   -1.5203 H   0  0  0  0  0  0  0  0  0  0  0  0
   -7.0721    1.4578   -1.2011 H   0  0  0  0  0  0  0  0  0  0  0  0
   -5.3277    1.2967   -1.2852 H   0  0  0  0  0  0  0  0  0  0  0  0
   -3.6846   -1.2721    1.8739 H   0  0  0  0  0  0  0  0  0  0  0  0
   -3.8555    0.4490    1.5548 H   0  0  0  0  0  0  0  0  0  0  0  0
   -1.6156   -0.2038    0.8195 H   0  0  0  0  0  0  0  0  0  0  0  0
    0.5634   -0.0016    0.1094 H   0  0  0  0  0  0  0  0  0  0  0  0
    2.8351    0.2594   -0.4059 H   0  0  0  0  0  0  0  0  0  0  0  0
    3.4919   -0.1279   -3.3263 H   0  0  0  0  0  0  0  0  0  0  0  0
    8.6506    0.9610   -1.5803 H   0  0  0  0  0  0  0  0  0  0  0  0
    6.5867    1.1804    1.7315 H   0  0  0  0  0  0  0  0  0  0  0  0
    8.7908   -0.3688    0.3544 H   0  0  0  0  0  0  0  0  0  0  0  0
    8.4258   -0.2855    2.1629 H   0  0  0  0  0  0  0  0  0  0  0  0
    9.7584    1.7296    2.3708 H   0  0  0  0  0  0  0  0  0  0  0  0
   10.2745    1.4810    0.5795 H   0  0  0  0  0  0  0  0  0  0  0  0
    8.0039    3.1193    1.6723 H   0  0  0  0  0  0  0  0  0  0  0  0
    8.3518    2.7845   -0.1215 H   0  0  0  0  0  0  0  0  0  0  0  0
    1.6631   -0.5232   -3.9733 H   0  0  0  0  0  0  0  0  0  0  0  0
   -0.6219   -0.9741   -4.5375 H   0  0  0  0  0  0  0  0  0  0  0  0
   -2.3044   -0.9476   -2.8394 H   0  0  0  0  0  0  0  0  0  0  0  0
   -5.8438   -3.9843    0.9627 H   0  0  0  0  0  0  0  0  0  0  0  0
  1  2  1  0
  2  3  1  0
  3  4  1  0
  4  5  1  0
  3  6  1  0
  6  7  1  0
  7  8  2  0
  7  9  1  0
  9 10  1  0
 10 11  2  0
 11 12  1  0
 12 13  1  0
 13 14  2  0
 14 15  1  0
 15 16  2  0
 16 17  1  0
 17 18  2  0
 18 19  1  0
 17 20  1  0
 20 21  1  0
 21 22  1  0
 22 23  1  0
 12 24  2  0
 24 25  1  0
 25 26  2  0
  3 27  1  0
 27 28  1  0
 27 29  2  0
 26 10  1  0
 19 15  1  0
 23 20  1  0
  1 30  1  0
  1 31  1  0
  1 32  1  0
  2 33  1  0
  2 34  1  0
  4 35  1  0
  4 36  1  0
  5 37  1  0
  5 38  1  0
  5 39  1  0
  6 40  1  0
  6 41  1  0
  9 42  1  0
 11 43  1  0
 13 44  1  0
 14 45  1  0
 18 46  1  0
 20 47  1  0
 21 48  1  0
 21 49  1  0
 22 50  1  0
 22 51  1  0
 23 52  1  0
 23 53  1  0
 24 54  1  0
 25 55  1  0
 26 56  1  0
 28 57  1  0
M  END
$$$$
