
     RDKit          3D

 55 58  0  0  0  0  0  0  0  0999 V2000
   -5.7219   -1.2518   -0.8028 C   0  0  1  0  0  0  0  0  0  0  0  0
   -4.6335   -2.1992   -1.0307 C   0  0  0  0  0  0  0  0  0  0  0  0
   -4.2771   -0.8632   -0.4772 C   0  0  1  0  0  0  0  0  0  0  0  0
   -3.5573    0.0337   -1.4312 C   0  0  0  0  0  0  0  0  0  0  0  0
   -2.1893    0.2870   -0.9296 C   0  0  0  0  0  0  0  0  0  0  0  0
   -1.2142   -0.6421   -1.2857 C   0  0  0  0  0  0  0  0  0  0  0  0
    0.1190   -0.5830   -0.9293 C   0  0  0  0  0  0  0  0  0  0  0  0
    0.5109    0.4831   -0.1592 C   0  0  0  0  0  0  0  0  0  0  0  0
    1.8413    0.5816    0.2219 O   0  0  0  0  0  0  0  0  0  0  0  0
    2.7228   -0.4386   -0.2145 C   0  0  0  0  0  0  0  0  0  0  0  0
    4.1114   -0.1892    0.2773 C   0  0  0  0  0  0  0  0  0  0  0  0
    4.5537   -0.9624    1.3393 C   0  0  0  0  0  0  0  0  0  0  0  0
    5.8339   -0.7227    1.7816 C   0  0  0  0  0  0  0  0  0  0  0  0
    6.4138   -1.4948    2.9185 C   0  0  0  0  0  0  0  0  0  0  0  0
    6.6105    0.2129    1.2105 N   0  0  0  0  0  0  0  0  0  0  0  0
    6.1268    0.9434    0.1713 C   0  0  0  0  0  0  0  0  0  0  0  0
    4.8507    0.7881   -0.3583 C   0  0  0  0  0  0  0  0  0  0  0  0
    4.3856    1.5323   -1.4019 C   0  0  0  0  0  0  0  0  0  0  0  0
    5.2371    2.4663   -1.9304 C   0  0  0  0  0  0  0  0  0  0  0  0
    6.5218    2.6417   -1.4173 C   0  0  0  0  0  0  0  0  0  0  0  0
    6.9814    1.8838   -0.3620 C   0  0  0  0  0  0  0  0  0  0  0  0
   -0.4189    1.4150    0.2092 C   0  0  0  0  0  0  0  0  0  0  0  0
   -1.7482    1.3536   -0.1480 C   0  0  0  0  0  0  0  0  0  0  0  0
   -4.0099   -0.7082    0.9567 C   0  0  0  0  0  0  0  0  0  0  0  0
   -4.6478   -1.4873    1.7450 O   0  0  0  0  0  0  0  0  0  0  0  0
   -3.2372    0.0620    1.7820 O   0  0  0  0  0  0  0  0  0  0  0  0
   -3.2122   -0.0451    3.1863 C   0  0  0  0  0  0  0  0  0  0  0  0
   -6.3113   -0.4362   -1.8755 C   0  0  0  0  0  0  0  0  0  0  0  0
   -5.8086   -0.0103   -2.9700 O   0  0  0  0  0  0  0  0  0  0  0  0
   -7.6757    0.0241   -1.8011 N   0  0  0  0  0  0  0  0  0  0  0  0
   -8.2825    0.7793   -2.7548 O   0  0  0  0  0  0  0  0  0  0  0  0
   -6.4038   -1.4726    0.0430 H   0  0  0  0  0  0  0  0  0  0  0  0
   -4.3421   -2.4557   -2.0475 H   0  0  0  0  0  0  0  0  0  0  0  0
   -4.5316   -3.0623   -0.3212 H   0  0  0  0  0  0  0  0  0  0  0  0
   -3.4665   -0.4016   -2.4597 H   0  0  0  0  0  0  0  0  0  0  0  0
   -4.0773    1.0211   -1.5184 H   0  0  0  0  0  0  0  0  0  0  0  0
   -1.4871   -1.5121   -1.9032 H   0  0  0  0  0  0  0  0  0  0  0  0
    0.8151   -1.3361   -1.2409 H   0  0  0  0  0  0  0  0  0  0  0  0
    2.3239   -1.4092    0.1567 H   0  0  0  0  0  0  0  0  0  0  0  0
    2.7570   -0.5215   -1.3203 H   0  0  0  0  0  0  0  0  0  0  0  0
    3.9205   -1.7110    1.7891 H   0  0  0  0  0  0  0  0  0  0  0  0
    7.0729   -0.8677    3.5642 H   0  0  0  0  0  0  0  0  0  0  0  0
    5.5858   -1.8819    3.5220 H   0  0  0  0  0  0  0  0  0  0  0  0
    6.9370   -2.3791    2.4926 H   0  0  0  0  0  0  0  0  0  0  0  0
    3.3933    1.3639   -1.7636 H   0  0  0  0  0  0  0  0  0  0  0  0
    4.8951    3.0841   -2.7729 H   0  0  0  0  0  0  0  0  0  0  0  0
    7.1714    3.3766   -1.8438 H   0  0  0  0  0  0  0  0  0  0  0  0
    7.9658    2.0145    0.0354 H   0  0  0  0  0  0  0  0  0  0  0  0
   -0.1059    2.2661    0.8240 H   0  0  0  0  0  0  0  0  0  0  0  0
   -2.5170    2.0698    0.1131 H   0  0  0  0  0  0  0  0  0  0  0  0
   -2.4422   -0.7532    3.5701 H   0  0  0  0  0  0  0  0  0  0  0  0
   -4.2199   -0.3713    3.5155 H   0  0  0  0  0  0  0  0  0  0  0  0
   -3.0811    0.9748    3.6500 H   0  0  0  0  0  0  0  0  0  0  0  0
   -8.2900   -0.2154   -0.9670 H   0  0  0  0  0  0  0  0  0  0  0  0
   -7.7485    0.7258   -3.5995 H   0  0  0  0  0  0  0  0  0  0  0  0
  1  2  1  0
  2  3  1  0
  3  4  1  6
  4  5  1  0
  5  6  2  0
  6  7  1  0
  7  8  2  0
  8  9  1  0
  9 10  1  0
 10 11  1  0
 11 12  2  0
 12 13  1  0
 13 14  1  0
 13 15  2  0
 15 16  1  0
 16 17  2  0
 17 18  1  0
 18 19  2  0
 19 20  1  0
 20 21  2  0
  8 22  1  0
 22 23  2  0
  3 24  1  0
 24 25  2  0
 24 26  1  0
 26 27  1  0
  1 28  1  0
 28 29  2  0
 28 30  1  0
 30 31  1  0
  3  1  1  0
 23  5  1  0
 17 11  1  0
 21 16  1  0
  1 32  1  1
  2 33  1  0
  2 34  1  0
  4 35  1  0
  4 36  1  0
  6 37  1  0
  7 38  1  0
 10 39  1  0
 10 40  1  0
 12 41  1  0
 14 42  1  0
 14 43  1  0
 14 44  1  0
 18 45  1  0
 19 46  1  0
 20 47  1  0
 21 48  1  0
 22 49  1  0
 23 50  1  0
 27 51  1  0
 27 52  1  0
 27 53  1  0
 30 54  1  0
 31 55  1  0
M  END
$$$$
