@<TRIPOS>MOLECULE
*****
 55 58 0 0 0
SMALL
GASTEIGER

@<TRIPOS>ATOM
      1 C          -5.7219   -1.2518   -0.8028 C.3     1  UNL1        0.0546
      2 C          -4.6335   -2.1992   -1.0307 C.3     1  UNL1       -0.0240
      3 C          -4.2771   -0.8632   -0.4772 C.3     1  UNL1        0.0835
      4 C          -3.5573    0.0337   -1.4312 C.3     1  UNL1       -0.0111
      5 C          -2.1893    0.2870   -0.9296 C.ar    1  UNL1       -0.0461
      6 C          -1.2142   -0.6421   -1.2857 C.ar    1  UNL1       -0.0551
      7 C           0.1190   -0.5830   -0.9293 C.ar    1  UNL1       -0.0197
      8 C           0.5109    0.4831   -0.1592 C.ar    1  UNL1        0.1210
      9 O           1.8413    0.5816    0.2219 O.3     1  UNL1       -0.4874
     10 C           2.7228   -0.4386   -0.2145 C.3     1  UNL1        0.1153
     11 C           4.1114   -0.1892    0.2773 C.ar    1  UNL1        0.0004
     12 C           4.5537   -0.9624    1.3393 C.ar    1  UNL1       -0.0337
     13 C           5.8339   -0.7227    1.7816 C.ar    1  UNL1        0.0393
     14 C           6.4138   -1.4948    2.9185 C.3     1  UNL1       -0.0223
     15 N           6.6105    0.2129    1.2105 N.ar    1  UNL1       -0.2519
     16 C           6.1268    0.9434    0.1713 C.ar    1  UNL1        0.0716
     17 C           4.8507    0.7881   -0.3583 C.ar    1  UNL1        0.0068
     18 C           4.3856    1.5323   -1.4019 C.ar    1  UNL1       -0.0522
     19 C           5.2371    2.4663   -1.9304 C.ar    1  UNL1       -0.0611
     20 C           6.5218    2.6417   -1.4173 C.ar    1  UNL1       -0.0597
     21 C           6.9814    1.8838   -0.3620 C.ar    1  UNL1       -0.0357
     22 C          -0.4189    1.4150    0.2092 C.ar    1  UNL1       -0.0197
     23 C          -1.7482    1.3536   -0.1480 C.ar    1  UNL1       -0.0551
     24 C          -4.0099   -0.7082    0.9567 C.2     1  UNL1        0.3141
     25 O          -4.6478   -1.4873    1.7450 O.2     1  UNL1       -0.2502
     26 O          -3.2372    0.0620    1.7820 O.3     1  UNL1       -0.4675
     27 C          -3.2122   -0.0451    3.1863 C.3     1  UNL1        0.0817
     28 C          -6.3113   -0.4362   -1.8755 C.2     1  UNL1        0.2396
     29 O          -5.8086   -0.0103   -2.9700 O.2     1  UNL1       -0.2734
     30 N          -7.6757    0.0241   -1.8011 N.am    1  UNL1       -0.1972
     31 O          -8.2825    0.7793   -2.7548 O.3     1  UNL1       -0.2952
     32 H          -6.4038   -1.4726    0.0430 H       1  UNL1        0.0406
     33 H          -4.3421   -2.4557   -2.0475 H       1  UNL1        0.0284
     34 H          -4.5316   -3.0623   -0.3212 H       1  UNL1        0.0284
     35 H          -3.4665   -0.4016   -2.4597 H       1  UNL1        0.0324
     36 H          -4.0773    1.0211   -1.5184 H       1  UNL1        0.0324
     37 H          -1.4871   -1.5121   -1.9032 H       1  UNL1        0.0621
     38 H           0.8151   -1.3361   -1.2409 H       1  UNL1        0.0654
     39 H           2.3239   -1.4092    0.1567 H       1  UNL1        0.0748
     40 H           2.7570   -0.5215   -1.3203 H       1  UNL1        0.0748
     41 H           3.9205   -1.7110    1.7891 H       1  UNL1        0.0639
     42 H           7.0729   -0.8677    3.5642 H       1  UNL1        0.0292
     43 H           5.5858   -1.8819    3.5220 H       1  UNL1        0.0292
     44 H           6.9370   -2.3791    2.4926 H       1  UNL1        0.0292
     45 H           3.3933    1.3639   -1.7636 H       1  UNL1        0.0624
     46 H           4.8951    3.0841   -2.7729 H       1  UNL1        0.0618
     47 H           7.1714    3.3766   -1.8438 H       1  UNL1        0.0618
     48 H           7.9658    2.0145    0.0354 H       1  UNL1        0.0639
     49 H          -0.1059    2.2661    0.8240 H       1  UNL1        0.0654
     50 H          -2.5170    2.0698    0.1131 H       1  UNL1        0.0621
     51 H          -2.4422   -0.7532    3.5701 H       1  UNL1        0.0661
     52 H          -4.2199   -0.3713    3.5155 H       1  UNL1        0.0661
     53 H          -3.0811    0.9748    3.6500 H       1  UNL1        0.0661
     54 H          -8.2900   -0.2154   -0.9670 H       1  UNL1        0.1822
     55 H          -7.7485    0.7258   -3.5995 H       1  UNL1        0.2414
@<TRIPOS>BOND
     1     1     2    1
     2     2     3    1
     3     3     4    1
     4     4     5    1
     5     5     6   ar
     6     6     7   ar
     7     7     8   ar
     8     8     9    1
     9     9    10    1
    10    10    11    1
    11    11    12   ar
    12    12    13   ar
    13    13    14    1
    14    13    15   ar
    15    15    16   ar
    16    16    17   ar
    17    17    18   ar
    18    18    19   ar
    19    19    20   ar
    20    20    21   ar
    21     8    22   ar
    22    22    23   ar
    23     3    24    1
    24    24    25    2
    25    24    26    1
    26    26    27    1
    27     1    28    1
    28    28    29    2
    29    28    30   am
    30    30    31    1
    31     3     1    1
    32    23     5   ar
    33    17    11   ar
    34    21    16   ar
    35     1    32    1
    36     2    33    1
    37     2    34    1
    38     4    35    1
    39     4    36    1
    40     6    37    1
    41     7    38    1
    42    10    39    1
    43    10    40    1
    44    12    41    1
    45    14    42    1
    46    14    43    1
    47    14    44    1
    48    18    45    1
    49    19    46    1
    50    20    47    1
    51    21    48    1
    52    22    49    1
    53    23    50    1
    54    27    51    1
    55    27    52    1
    56    27    53    1
    57    30    54    1
    58    31    55    1
