
     RDKit          3D

126133  0  0  0  0  0  0  0  0999 V2000
   -4.4235   -0.0302    1.4018 C   0  0  0  0  0  0  0  0  0  0  0  0
   -5.8636   -0.1298    1.1613 C   0  0  0  0  0  0  0  0  0  0  0  0
   -6.4152    0.1073   -0.0822 C   0  0  0  0  0  0  0  0  0  0  0  0
   -5.4818    0.4224   -1.0956 N   0  0  0  0  0  0  0  0  0  0  0  0
   -4.7481    1.3283   -1.8921 C   0  0  0  0  0  0  0  0  0  0  0  0
   -4.9550    2.5629   -1.6973 O   0  0  0  0  0  0  0  0  0  0  0  0
   -3.8075    0.8076   -2.8851 C   0  0  0  0  0  0  0  0  0  0  0  0
   -3.1511   -0.4117   -2.7265 C   0  0  0  0  0  0  0  0  0  0  0  0
   -2.3008   -0.9739   -3.6858 C   0  0  0  0  0  0  0  0  0  0  0  0
   -1.7753   -2.2102   -3.1727 N   0  0  0  0  0  0  0  0  0  0  0  0
   -0.4505   -2.0160   -2.7434 C   0  0  0  0  0  0  0  0  0  0  0  0
    0.0192   -0.8465   -2.9482 O   0  0  0  0  0  0  0  0  0  0  0  0
    0.4239   -2.9517   -2.1161 N   0  0  0  0  0  0  0  0  0  0  0  0
    1.7754   -2.7180   -1.7724 C   0  0  0  0  0  0  0  0  0  0  0  0
    2.5789   -3.4019   -2.6905 C   0  0  0  0  0  0  0  0  0  0  0  0
    3.9696   -3.3208   -2.6091 C   0  0  0  0  0  0  0  0  0  0  0  0
    4.4653   -2.5467   -1.5977 C   0  0  0  0  0  0  0  0  0  0  0  0
    3.7190   -1.8359   -0.6458 C   0  0  0  0  0  0  0  0  0  0  0  0
    2.3523   -1.9629   -0.7863 C   0  0  0  0  0  0  0  0  0  0  0  0
    4.2554   -1.0003    0.4221 C   0  0  0  0  0  0  0  0  0  0  0  0
    3.4541   -0.2027    0.9545 O   0  0  0  0  0  0  0  0  0  0  0  0
    5.6337   -1.1390    0.7821 N   0  0  0  0  0  0  0  0  0  0  0  0
    6.3551   -0.4158    1.7689 C   0  0  0  0  0  0  0  0  0  0  0  0
    6.0853    0.0726    3.0446 C   0  0  0  0  0  0  0  0  0  0  0  0
    4.7618   -0.3068    3.5670 C   0  0  0  0  0  0  0  0  0  0  0  0
    7.0098    0.8124    3.7368 C   0  0  0  0  0  0  0  0  0  0  0  0
    8.2540    1.1247    3.2394 C   0  0  0  0  0  0  0  0  0  0  0  0
    8.5899    0.6654    1.9719 C   0  0  0  0  0  0  0  0  0  0  0  0
    7.6259   -0.0652    1.3321 C   0  0  0  0  0  0  0  0  0  0  0  0
    9.9054    0.9990    1.4291 C   0  0  0  0  0  0  0  0  0  0  0  0
   10.5674    1.9689    1.8667 O   0  0  0  0  0  0  0  0  0  0  0  0
   10.5344    0.2245    0.3473 N   0  0  0  0  0  0  0  0  0  0  0  0
   11.7951    0.7943    0.0251 C   0  0  0  0  0  0  0  0  0  0  0  0
   13.0902    0.4388    0.3054 C   0  0  0  0  0  0  0  0  0  0  0  0
   14.1178    1.2633   -0.0789 C   0  0  0  0  0  0  0  0  0  0  0  0
   15.4230    0.9073    0.1734 C   0  0  0  0  0  0  0  0  0  0  0  0
   15.6581   -0.2923    0.8194 C   0  0  0  0  0  0  0  0  0  0  0  0
   14.5713   -1.0390    1.1570 C   0  0  0  0  0  0  0  0  0  0  0  0
   13.2010   -0.7738    0.9469 C   0  0  0  0  0  0  0  0  0  0  0  0
   11.9879   -1.8867    1.4175 S   0  0  0  0  0  0  0  0  0  0  0  0
   10.9027   -1.4625    2.5657 O   0  0  0  0  0  0  0  0  0  0  0  0
   12.7605   -3.0094    2.1367 O   0  0  0  0  0  0  0  0  0  0  0  0
   11.4292   -2.6943    0.2609 O   0  0  0  0  0  0  0  0  0  0  0  0
   17.2854   -0.7839    1.1687 S   0  0  0  0  0  0  0  0  0  0  0  0
   17.9241   -1.6556   -0.1395 O   0  0  0  0  0  0  0  0  0  0  0  0
   18.1815    0.3341    1.5703 O   0  0  0  0  0  0  0  0  0  0  0  0
   17.2078   -1.7240    2.3607 O   0  0  0  0  0  0  0  0  0  0  0  0
   13.9106    2.4631   -0.7559 C   0  0  0  0  0  0  0  0  0  0  0  0
   12.6089    2.8036   -1.0314 C   0  0  0  0  0  0  0  0  0  0  0  0
   11.5535    2.0017   -0.6591 C   0  0  0  0  0  0  0  0  0  0  0  0
   15.2633    3.4523   -1.2129 S   0  0  0  0  0  0  0  0  0  0  0  0
   16.3160    2.6296   -2.2328 O   0  0  0  0  0  0  0  0  0  0  0  0
   14.7904    4.7106   -1.8571 O   0  0  0  0  0  0  0  0  0  0  0  0
   15.9982    3.8134    0.0430 O   0  0  0  0  0  0  0  0  0  0  0  0
   -2.1124   -0.2584   -4.8588 C   0  0  0  0  0  0  0  0  0  0  0  0
   -2.7690    0.9339   -4.9837 C   0  0  0  0  0  0  0  0  0  0  0  0
   -3.6036    1.4926   -4.0500 C   0  0  0  0  0  0  0  0  0  0  0  0
   -7.7693    0.0402   -0.3884 C   0  0  0  0  0  0  0  0  0  0  0  0
   -8.5550   -0.2980    0.6824 C   0  0  0  0  0  0  0  0  0  0  0  0
   -8.0357   -0.5407    1.9272 C   0  0  0  0  0  0  0  0  0  0  0  0
   -6.7095   -0.4715    2.2272 C   0  0  0  0  0  0  0  0  0  0  0  0
  -10.0312   -0.4035    0.5466 C   0  0  0  0  0  0  0  0  0  0  0  0
  -11.0616   -0.9697    0.9445 O   0  0  0  0  0  0  0  0  0  0  0  0
  -10.6497    0.5182   -0.4639 N   0  0  0  0  0  0  0  0  0  0  0  0
  -12.0594    0.1599   -0.3924 C   0  0  0  0  0  0  0  0  0  0  0  0
  -13.1519    0.6673    0.2830 C   0  0  0  0  0  0  0  0  0  0  0  0
  -14.2920   -0.0574    0.1746 C   0  0  0  0  0  0  0  0  0  0  0  0
  -15.3445    0.5292    0.8809 C   0  0  0  0  0  0  0  0  0  0  0  0
  -15.2597    1.7084    1.6128 C   0  0  0  0  0  0  0  0  0  0  0  0
  -13.9807    2.2813    1.5748 C   0  0  0  0  0  0  0  0  0  0  0  0
  -12.8316    1.8115    0.9105 C   0  0  0  0  0  0  0  0  0  0  0  0
  -11.4577    2.8017    1.0206 S   0  0  0  0  0  0  0  0  0  0  0  0
  -11.7983    4.2520    1.8643 O   0  0  0  0  0  0  0  0  0  0  0  0
  -11.2032    3.3635   -0.3656 O   0  0  0  0  0  0  0  0  0  0  0  0
  -10.1731    2.2768    1.4827 O   0  0  0  0  0  0  0  0  0  0  0  0
  -16.6261    2.3324    2.4877 S   0  0  0  0  0  0  0  0  0  0  0  0
  -17.5027    3.3421    1.4940 O   0  0  0  0  0  0  0  0  0  0  0  0
  -16.1985    3.0305    3.7521 O   0  0  0  0  0  0  0  0  0  0  0  0
  -17.5114    1.1876    2.9313 O   0  0  0  0  0  0  0  0  0  0  0  0
  -14.4926   -1.2064   -0.5162 C   0  0  0  0  0  0  0  0  0  0  0  0
  -13.4057   -1.6930   -1.1838 C   0  0  0  0  0  0  0  0  0  0  0  0
  -12.1646   -1.0385   -1.1483 C   0  0  0  0  0  0  0  0  0  0  0  0
  -16.0378   -1.9985   -0.5341 S   0  0  0  0  0  0  0  0  0  0  0  0
  -16.3966   -2.4218    1.0616 O   0  0  0  0  0  0  0  0  0  0  0  0
  -15.9448   -3.2038   -1.4201 O   0  0  0  0  0  0  0  0  0  0  0  0
  -17.1358   -1.1449   -1.1059 O   0  0  0  0  0  0  0  0  0  0  0  0
   -4.1463    1.0458    1.3141 H   0  0  0  0  0  0  0  0  0  0  0  0
   -4.2011   -0.3035    2.4759 H   0  0  0  0  0  0  0  0  0  0  0  0
   -3.8118   -0.6786    0.7578 H   0  0  0  0  0  0  0  0  0  0  0  0
   -5.2705   -0.5908   -1.3533 H   0  0  0  0  0  0  0  0  0  0  0  0
   -3.3699   -0.8762   -1.7622 H   0  0  0  0  0  0  0  0  0  0  0  0
   -2.1581   -3.1727   -3.0620 H   0  0  0  0  0  0  0  0  0  0  0  0
   -0.0551   -3.8598   -1.9265 H   0  0  0  0  0  0  0  0  0  0  0  0
    2.2466   -4.0390   -3.5198 H   0  0  0  0  0  0  0  0  0  0  0  0
    4.6459   -3.8277   -3.2914 H   0  0  0  0  0  0  0  0  0  0  0  0
    5.5393   -2.4736   -1.5303 H   0  0  0  0  0  0  0  0  0  0  0  0
    1.6257   -1.5013   -0.1594 H   0  0  0  0  0  0  0  0  0  0  0  0
    6.1596   -1.8679    0.2562 H   0  0  0  0  0  0  0  0  0  0  0  0
    4.0711    0.5311    3.4372 H   0  0  0  0  0  0  0  0  0  0  0  0
    4.3815   -1.2764    3.2338 H   0  0  0  0  0  0  0  0  0  0  0  0
    4.8860   -0.4310    4.6849 H   0  0  0  0  0  0  0  0  0  0  0  0
    6.6657    1.1302    4.7228 H   0  0  0  0  0  0  0  0  0  0  0  0
    8.9514    1.7086    3.8149 H   0  0  0  0  0  0  0  0  0  0  0  0
    7.9873   -0.3785    0.3401 H   0  0  0  0  0  0  0  0  0  0  0  0
    9.9516   -0.5653    0.0228 H   0  0  0  0  0  0  0  0  0  0  0  0
   16.2633    1.5120   -0.1058 H   0  0  0  0  0  0  0  0  0  0  0  0
   14.8442   -1.9682    1.6677 H   0  0  0  0  0  0  0  0  0  0  0  0
   11.3323   -0.8002    3.1632 H   0  0  0  0  0  0  0  0  0  0  0  0
   17.3713   -2.4906   -0.2345 H   0  0  0  0  0  0  0  0  0  0  0  0
   12.5119    3.7440   -1.5642 H   0  0  0  0  0  0  0  0  0  0  0  0
   10.6037    2.4342   -0.9624 H   0  0  0  0  0  0  0  0  0  0  0  0
   15.9353    1.7603   -2.5252 H   0  0  0  0  0  0  0  0  0  0  0  0
   -1.4433   -0.7965   -5.5036 H   0  0  0  0  0  0  0  0  0  0  0  0
   -2.5610    1.4370   -5.9302 H   0  0  0  0  0  0  0  0  0  0  0  0
   -4.0975    2.4386   -4.1958 H   0  0  0  0  0  0  0  0  0  0  0  0
   -8.1683    0.2282   -1.3614 H   0  0  0  0  0  0  0  0  0  0  0  0
   -8.6889   -0.8013    2.7459 H   0  0  0  0  0  0  0  0  0  0  0  0
   -6.3305   -0.6656    3.2179 H   0  0  0  0  0  0  0  0  0  0  0  0
  -10.0546    1.1794   -1.0144 H   0  0  0  0  0  0  0  0  0  0  0  0
  -16.3227    0.0387    0.8745 H   0  0  0  0  0  0  0  0  0  0  0  0
  -13.9731    3.2160    2.1746 H   0  0  0  0  0  0  0  0  0  0  0  0
  -11.0194    4.8378    1.6677 H   0  0  0  0  0  0  0  0  0  0  0  0
  -18.4457    3.0381    1.4411 H   0  0  0  0  0  0  0  0  0  0  0  0
  -13.5641   -2.6170   -1.7494 H   0  0  0  0  0  0  0  0  0  0  0  0
  -11.4357   -1.5633   -1.7120 H   0  0  0  0  0  0  0  0  0  0  0  0
  -15.5300   -2.6587    1.4884 H   0  0  0  0  0  0  0  0  0  0  0  0
  1  2  1  0
  2  3  2  0
  3  4  1  0
  4  5  1  0
  5  6  2  0
  5  7  1  0
  7  8  2  0
  8  9  1  0
  9 10  1  0
 10 11  1  0
 11 12  2  0
 11 13  1  0
 13 14  1  0
 14 15  2  0
 15 16  1  0
 16 17  2  0
 17 18  1  0
 18 19  2  0
 18 20  1  0
 20 21  2  0
 20 22  1  0
 22 23  1  0
 23 24  2  0
 24 25  1  0
 24 26  1  0
 26 27  2  0
 27 28  1  0
 28 29  2  0
 28 30  1  0
 30 31  2  0
 30 32  1  0
 32 33  1  0
 33 34  1  0
 34 35  1  0
 35 36  2  0
 36 37  1  0
 37 38  2  0
 38 39  1  0
 39 40  1  0
 40 41  1  0
 40 42  2  0
 40 43  2  0
 37 44  1  0
 44 45  1  0
 44 46  2  0
 44 47  2  0
 35 48  1  0
 48 49  2  0
 49 50  1  0
 48 51  1  0
 51 52  1  0
 51 53  2  0
 51 54  2  0
  9 55  2  0
 55 56  1  0
 56 57  2  0
  3 58  1  0
 58 59  2  0
 59 60  1  0
 60 61  2  0
 59 62  1  0
 62 63  2  0
 62 64  1  0
 64 65  1  0
 65 66  1  0
 66 67  1  0
 67 68  2  0
 68 69  1  0
 69 70  2  0
 70 71  1  0
 71 72  1  0
 72 73  1  0
 72 74  2  0
 72 75  2  0
 69 76  1  0
 76 77  1  0
 76 78  2  0
 76 79  2  0
 67 80  1  0
 80 81  2  0
 81 82  1  0
 80 83  1  0
 83 84  1  0
 83 85  2  0
 83 86  2  0
 61  2  1  0
 82 65  2  0
 57  7  1  0
 71 66  2  0
 19 14  1  0
 29 23  1  0
 50 33  2  0
 39 34  2  0
  1 87  1  0
  1 88  1  0
  1 89  1  0
  4 90  1  0
  8 91  1  0
 10 92  1  0
 13 93  1  0
 15 94  1  0
 16 95  1  0
 17 96  1  0
 19 97  1  0
 22 98  1  0
 25 99  1  0
 25100  1  0
 25101  1  0
 26102  1  0
 27103  1  0
 29104  1  0
 32105  1  0
 36106  1  0
 38107  1  0
 41108  1  0
 45109  1  0
 49110  1  0
 50111  1  0
 52112  1  0
 55113  1  0
 56114  1  0
 57115  1  0
 58116  1  0
 60117  1  0
 61118  1  0
 64119  1  0
 68120  1  0
 70121  1  0
 73122  1  0
 77123  1  0
 81124  1  0
 82125  1  0
 84126  1  0
M  END
$$$$
