@<TRIPOS>MOLECULE
*****
 126 133 0 0 0
SMALL
GASTEIGER

@<TRIPOS>ATOM
      1 C          -4.4235   -0.0302    1.4018 C.3     1  UNL1       -0.0380
      2 C          -5.8636   -0.1298    1.1613 C.ar    1  UNL1       -0.0292
      3 C          -6.4152    0.1073   -0.0822 C.ar    1  UNL1        0.0373
      4 N          -5.4818    0.4224   -1.0956 N.am    1  UNL1       -0.2813
      5 C          -4.7481    1.3283   -1.8921 C.2     1  UNL1        0.2483
      6 O          -4.9550    2.5629   -1.6973 O.2     1  UNL1       -0.2699
      7 C          -3.8075    0.8076   -2.8851 C.ar    1  UNL1        0.0388
      8 C          -3.1511   -0.4117   -2.7265 C.ar    1  UNL1       -0.0283
      9 C          -2.3008   -0.9739   -3.6858 C.ar    1  UNL1        0.0355
     10 N          -1.7753   -2.2102   -3.1727 N.am    1  UNL1       -0.2692
     11 C          -0.4505   -2.0160   -2.7434 C.2     1  UNL1        0.3081
     12 O           0.0192   -0.8465   -2.9482 O.2     1  UNL1       -0.2522
     13 N           0.4239   -2.9517   -2.1161 N.am    1  UNL1       -0.2692
     14 C           1.7754   -2.7180   -1.7724 C.ar    1  UNL1        0.0355
     15 C           2.5789   -3.4019   -2.6905 C.ar    1  UNL1       -0.0404
     16 C           3.9696   -3.3208   -2.6091 C.ar    1  UNL1       -0.0593
     17 C           4.4653   -2.5467   -1.5977 C.ar    1  UNL1       -0.0495
     18 C           3.7190   -1.8359   -0.6458 C.ar    1  UNL1        0.0388
     19 C           2.3523   -1.9629   -0.7863 C.ar    1  UNL1       -0.0283
     20 C           4.2554   -1.0003    0.4221 C.2     1  UNL1        0.2483
     21 O           3.4541   -0.2027    0.9545 O.2     1  UNL1       -0.2699
     22 N           5.6337   -1.1390    0.7821 N.am    1  UNL1       -0.2813
     23 C           6.3551   -0.4158    1.7689 C.ar    1  UNL1        0.0373
     24 C           6.0853    0.0726    3.0446 C.ar    1  UNL1       -0.0292
     25 C           4.7618   -0.3068    3.5670 C.3     1  UNL1       -0.0380
     26 C           7.0098    0.8124    3.7368 C.ar    1  UNL1       -0.0564
     27 C           8.2540    1.1247    3.2394 C.ar    1  UNL1       -0.0493
     28 C           8.5899    0.6654    1.9719 C.ar    1  UNL1        0.0388
     29 C           7.6259   -0.0652    1.3321 C.ar    1  UNL1       -0.0281
     30 C           9.9054    0.9990    1.4291 C.2     1  UNL1        0.2483
     31 O          10.5674    1.9689    1.8667 O.2     1  UNL1       -0.2699
     32 N          10.5344    0.2245    0.3473 N.am    1  UNL1       -0.2809
     33 C          11.7951    0.7943    0.0251 C.ar    1  UNL1        0.0434
     34 C          13.0902    0.4388    0.3054 C.ar    1  UNL1        0.0326
     35 C          14.1178    1.2633   -0.0789 C.ar    1  UNL1        0.0150
     36 C          15.4230    0.9073    0.1734 C.ar    1  UNL1       -0.0246
     37 C          15.6581   -0.2923    0.8194 C.ar    1  UNL1        0.1194
     38 C          14.5713   -1.0390    1.1570 C.ar    1  UNL1       -0.0064
     39 C          13.2010   -0.7738    0.9469 C.ar    1  UNL1        0.1282
     40 S          11.9879   -1.8867    1.4175 S.O2    1  UNL1        0.1103
     41 O          10.9027   -1.4625    2.5657 O.3     1  UNL1       -0.2498
     42 O          12.7605   -3.0094    2.1367 O.2     1  UNL1       -0.1421
     43 O          11.4292   -2.6943    0.2609 O.2     1  UNL1       -0.1421
     44 S          17.2854   -0.7839    1.1687 S.O2    1  UNL1        0.1097
     45 O          17.9241   -1.6556   -0.1395 O.3     1  UNL1       -0.2498
     46 O          18.1815    0.3341    1.5703 O.2     1  UNL1       -0.1421
     47 O          17.2078   -1.7240    2.3607 O.2     1  UNL1       -0.1421
     48 C          13.9106    2.4631   -0.7559 C.ar    1  UNL1        0.1247
     49 C          12.6089    2.8036   -1.0314 C.ar    1  UNL1       -0.0320
     50 C          11.5535    2.0017   -0.6591 C.ar    1  UNL1       -0.0379
     51 S          15.2633    3.4523   -1.2129 S.O2    1  UNL1        0.1102
     52 O          16.3160    2.6296   -2.2328 O.3     1  UNL1       -0.2498
     53 O          14.7904    4.7106   -1.8571 O.2     1  UNL1       -0.1421
     54 O          15.9982    3.8134    0.0430 O.2     1  UNL1       -0.1421
     55 C          -2.1124   -0.2584   -4.8588 C.ar    1  UNL1       -0.0404
     56 C          -2.7690    0.9339   -4.9837 C.ar    1  UNL1       -0.0593
     57 C          -3.6036    1.4926   -4.0500 C.ar    1  UNL1       -0.0495
     58 C          -7.7693    0.0402   -0.3884 C.ar    1  UNL1       -0.0281
     59 C          -8.5550   -0.2980    0.6824 C.ar    1  UNL1        0.0388
     60 C          -8.0357   -0.5407    1.9272 C.ar    1  UNL1       -0.0493
     61 C          -6.7095   -0.4715    2.2272 C.ar    1  UNL1       -0.0564
     62 C         -10.0312   -0.4035    0.5466 C.2     1  UNL1        0.2483
     63 O         -11.0616   -0.9697    0.9445 O.2     1  UNL1       -0.2699
     64 N         -10.6497    0.5182   -0.4639 N.am    1  UNL1       -0.2809
     65 C         -12.0594    0.1599   -0.3924 C.ar    1  UNL1        0.0434
     66 C         -13.1519    0.6673    0.2830 C.ar    1  UNL1        0.0326
     67 C         -14.2920   -0.0574    0.1746 C.ar    1  UNL1        0.0150
     68 C         -15.3445    0.5292    0.8809 C.ar    1  UNL1       -0.0246
     69 C         -15.2597    1.7084    1.6128 C.ar    1  UNL1        0.1194
     70 C         -13.9807    2.2813    1.5748 C.ar    1  UNL1       -0.0064
     71 C         -12.8316    1.8115    0.9105 C.ar    1  UNL1        0.1282
     72 S         -11.4577    2.8017    1.0206 S.O2    1  UNL1        0.1103
     73 O         -11.7983    4.2520    1.8643 O.3     1  UNL1       -0.2498
     74 O         -11.2032    3.3635   -0.3656 O.2     1  UNL1       -0.1421
     75 O         -10.1731    2.2768    1.4827 O.2     1  UNL1       -0.1421
     76 S         -16.6261    2.3324    2.4877 S.O2    1  UNL1        0.1097
     77 O         -17.5027    3.3421    1.4940 O.3     1  UNL1       -0.2498
     78 O         -16.1985    3.0305    3.7521 O.2     1  UNL1       -0.1421
     79 O         -17.5114    1.1876    2.9313 O.2     1  UNL1       -0.1421
     80 C         -14.4926   -1.2064   -0.5162 C.ar    1  UNL1        0.1247
     81 C         -13.4057   -1.6930   -1.1838 C.ar    1  UNL1       -0.0320
     82 C         -12.1646   -1.0385   -1.1483 C.ar    1  UNL1       -0.0379
     83 S         -16.0378   -1.9985   -0.5341 S.O2    1  UNL1        0.1102
     84 O         -16.3966   -2.4218    1.0616 O.3     1  UNL1       -0.2498
     85 O         -15.9448   -3.2038   -1.4201 O.2     1  UNL1       -0.1421
     86 O         -17.1358   -1.1449   -1.1059 O.2     1  UNL1       -0.1421
     87 H          -4.1463    1.0458    1.3141 H       1  UNL1        0.0278
     88 H          -4.2011   -0.3035    2.4759 H       1  UNL1        0.0278
     89 H          -3.8118   -0.6786    0.7578 H       1  UNL1        0.0278
     90 H          -5.2705   -0.5908   -1.3533 H       1  UNL1        0.1551
     91 H          -3.3699   -0.8762   -1.7622 H       1  UNL1        0.0644
     92 H          -2.1581   -3.1727   -3.0620 H       1  UNL1        0.1564
     93 H          -0.0551   -3.8598   -1.9265 H       1  UNL1        0.1564
     94 H           2.2466   -4.0390   -3.5198 H       1  UNL1        0.0636
     95 H           4.6459   -3.8277   -3.2914 H       1  UNL1        0.0618
     96 H           5.5393   -2.4736   -1.5303 H       1  UNL1        0.0625
     97 H           1.6257   -1.5013   -0.1594 H       1  UNL1        0.0644
     98 H           6.1596   -1.8679    0.2562 H       1  UNL1        0.1551
     99 H           4.0711    0.5311    3.4372 H       1  UNL1        0.0278
    100 H           4.3815   -1.2764    3.2338 H       1  UNL1        0.0278
    101 H           4.8860   -0.4310    4.6849 H       1  UNL1        0.0278
    102 H           6.6657    1.1302    4.7228 H       1  UNL1        0.0621
    103 H           8.9514    1.7086    3.8149 H       1  UNL1        0.0625
    104 H           7.9873   -0.3785    0.3401 H       1  UNL1        0.0644
    105 H           9.9516   -0.5653    0.0228 H       1  UNL1        0.1552
    106 H          16.2633    1.5120   -0.1058 H       1  UNL1        0.0644
    107 H          14.8442   -1.9682    1.6677 H       1  UNL1        0.0657
    108 H          11.3323   -0.8002    3.1632 H       1  UNL1        0.2449
    109 H          17.3713   -2.4906   -0.2345 H       1  UNL1        0.2449
    110 H          12.5119    3.7440   -1.5642 H       1  UNL1        0.0638
    111 H          10.6037    2.4342   -0.9624 H       1  UNL1        0.0637
    112 H          15.9353    1.7603   -2.5252 H       1  UNL1        0.2449
    113 H          -1.4433   -0.7965   -5.5036 H       1  UNL1        0.0636
    114 H          -2.5610    1.4370   -5.9302 H       1  UNL1        0.0618
    115 H          -4.0975    2.4386   -4.1958 H       1  UNL1        0.0625
    116 H          -8.1683    0.2282   -1.3614 H       1  UNL1        0.0644
    117 H          -8.6889   -0.8013    2.7459 H       1  UNL1        0.0625
    118 H          -6.3305   -0.6656    3.2179 H       1  UNL1        0.0621
    119 H         -10.0546    1.1794   -1.0144 H       1  UNL1        0.1552
    120 H         -16.3227    0.0387    0.8745 H       1  UNL1        0.0644
    121 H         -13.9731    3.2160    2.1746 H       1  UNL1        0.0657
    122 H         -11.0194    4.8378    1.6677 H       1  UNL1        0.2449
    123 H         -18.4457    3.0381    1.4411 H       1  UNL1        0.2449
    124 H         -13.5641   -2.6170   -1.7494 H       1  UNL1        0.0638
    125 H         -11.4357   -1.5633   -1.7120 H       1  UNL1        0.0637
    126 H         -15.5300   -2.6587    1.4884 H       1  UNL1        0.2449
@<TRIPOS>BOND
     1     1     2    1
     2     2     3   ar
     3     3     4    1
     4     4     5   am
     5     5     6    2
     6     5     7    1
     7     7     8   ar
     8     8     9   ar
     9     9    10    1
    10    10    11   am
    11    11    12    2
    12    11    13   am
    13    13    14    1
    14    14    15   ar
    15    15    16   ar
    16    16    17   ar
    17    17    18   ar
    18    18    19   ar
    19    18    20    1
    20    20    21    2
    21    20    22   am
    22    22    23    1
    23    23    24   ar
    24    24    25    1
    25    24    26   ar
    26    26    27   ar
    27    27    28   ar
    28    28    29   ar
    29    28    30    1
    30    30    31    2
    31    30    32   am
    32    32    33    1
    33    33    34   ar
    34    34    35   ar
    35    35    36   ar
    36    36    37   ar
    37    37    38   ar
    38    38    39   ar
    39    39    40    1
    40    40    41    1
    41    40    42    2
    42    40    43    2
    43    37    44    1
    44    44    45    1
    45    44    46    2
    46    44    47    2
    47    35    48   ar
    48    48    49   ar
    49    49    50   ar
    50    48    51    1
    51    51    52    1
    52    51    53    2
    53    51    54    2
    54     9    55   ar
    55    55    56   ar
    56    56    57   ar
    57     3    58   ar
    58    58    59   ar
    59    59    60   ar
    60    60    61   ar
    61    59    62    1
    62    62    63    2
    63    62    64   am
    64    64    65    1
    65    65    66   ar
    66    66    67   ar
    67    67    68   ar
    68    68    69   ar
    69    69    70   ar
    70    70    71   ar
    71    71    72    1
    72    72    73    1
    73    72    74    2
    74    72    75    2
    75    69    76    1
    76    76    77    1
    77    76    78    2
    78    76    79    2
    79    67    80   ar
    80    80    81   ar
    81    81    82   ar
    82    80    83    1
    83    83    84    1
    84    83    85    2
    85    83    86    2
    86    61     2   ar
    87    82    65   ar
    88    57     7   ar
    89    71    66   ar
    90    19    14   ar
    91    29    23   ar
    92    50    33   ar
    93    39    34   ar
    94     1    87    1
    95     1    88    1
    96     1    89    1
    97     4    90    1
    98     8    91    1
    99    10    92    1
   100    13    93    1
   101    15    94    1
   102    16    95    1
   103    17    96    1
   104    19    97    1
   105    22    98    1
   106    25    99    1
   107    25   100    1
   108    25   101    1
   109    26   102    1
   110    27   103    1
   111    29   104    1
   112    32   105    1
   113    36   106    1
   114    38   107    1
   115    41   108    1
   116    45   109    1
   117    49   110    1
   118    50   111    1
   119    52   112    1
   120    55   113    1
   121    56   114    1
   122    57   115    1
   123    58   116    1
   124    60   117    1
   125    61   118    1
   126    64   119    1
   127    68   120    1
   128    70   121    1
   129    73   122    1
   130    77   123    1
   131    81   124    1
   132    82   125    1
   133    84   126    1
