
     RDKit          3D

 35 37  0  0  0  0  0  0  0  0999 V2000
   -0.5520    2.6927   -1.1869 C   0  0  0  0  0  0  0  0  0  0  0  0
   -0.4503    2.3124    0.3154 C   0  0  0  0  0  0  0  0  0  0  0  0
    0.5005    1.1800    0.3541 C   0  0  0  0  0  0  0  0  0  0  0  0
    0.2259   -0.1174    0.0238 C   0  0  0  0  0  0  0  0  0  0  0  0
   -1.0989   -0.5413   -0.3494 C   0  0  0  0  0  0  0  0  0  0  0  0
   -1.3524   -1.1138   -1.6072 C   0  0  0  0  0  0  0  0  0  0  0  0
   -2.5833   -1.6122   -1.9505 C   0  0  0  0  0  0  0  0  0  0  0  0
   -3.5892   -1.5387   -1.0164 C   0  0  0  0  0  0  0  0  0  0  0  0
   -3.3896   -0.9883    0.2317 C   0  0  0  0  0  0  0  0  0  0  0  0
   -2.1255   -0.4895    0.5563 C   0  0  0  0  0  0  0  0  0  0  0  0
   -1.9943   -0.0173    1.9729 C   0  0  0  0  0  0  0  0  0  0  0  0
    1.2731   -0.9983   -0.0097 N   0  0  0  0  0  0  0  0  0  0  0  0
    2.5341   -0.6879    0.2585 C   0  0  0  0  0  0  0  0  0  0  0  0
    3.7295   -1.4147    0.2846 C   0  0  0  0  0  0  0  0  0  0  0  0
    3.8476   -2.8088   -0.0121 C   0  0  0  0  0  0  0  0  0  0  0  0
    3.9436   -3.9470   -0.2338 N   0  0  0  0  0  0  0  0  0  0  0  0
    4.6950   -0.5066    0.6421 C   0  0  0  0  0  0  0  0  0  0  0  0
    4.0962    0.6736    0.8126 N   0  0  0  0  0  0  0  0  0  0  0  0
    2.7984    0.5826    0.5862 N   0  0  0  0  0  0  0  0  0  0  0  0
    1.8372    1.5053    0.6404 C   0  0  0  0  0  0  0  0  0  0  0  0
    2.0897    2.7193    0.9533 O   0  0  0  0  0  0  0  0  0  0  0  0
    0.4248    2.5722   -1.6839 H   0  0  0  0  0  0  0  0  0  0  0  0
   -0.8784    3.7410   -1.3020 H   0  0  0  0  0  0  0  0  0  0  0  0
   -1.2881    2.0301   -1.6788 H   0  0  0  0  0  0  0  0  0  0  0  0
   -0.0258    3.2268    0.7796 H   0  0  0  0  0  0  0  0  0  0  0  0
   -1.4321    2.1740    0.6916 H   0  0  0  0  0  0  0  0  0  0  0  0
   -0.5174   -1.1426   -2.3016 H   0  0  0  0  0  0  0  0  0  0  0  0
   -2.7283   -2.0474   -2.9414 H   0  0  0  0  0  0  0  0  0  0  0  0
   -4.5615   -1.9304   -1.2874 H   0  0  0  0  0  0  0  0  0  0  0  0
   -4.1876   -0.9340    0.9623 H   0  0  0  0  0  0  0  0  0  0  0  0
   -2.7464    0.7766    2.1163 H   0  0  0  0  0  0  0  0  0  0  0  0
   -0.9802    0.2438    2.2566 H   0  0  0  0  0  0  0  0  0  0  0  0
   -2.3233   -0.8559    2.6348 H   0  0  0  0  0  0  0  0  0  0  0  0
    1.0535   -2.0018   -0.2705 H   0  0  0  0  0  0  0  0  0  0  0  0
    5.7559   -0.7367    0.7587 H   0  0  0  0  0  0  0  0  0  0  0  0
  1  2  1  0
  2  3  1  0
  3  4  2  0
  4  5  1  0
  5  6  2  0
  6  7  1  0
  7  8  2  0
  8  9  1  0
  9 10  2  0
 10 11  1  0
  4 12  1  0
 12 13  1  0
 13 14  2  0
 14 15  1  0
 15 16  3  0
 14 17  1  0
 17 18  2  0
 18 19  1  0
 19 20  1  0
 20 21  2  0
 20  3  1  0
 10  5  1  0
 19 13  1  0
  1 22  1  0
  1 23  1  0
  1 24  1  0
  2 25  1  0
  2 26  1  0
  6 27  1  0
  7 28  1  0
  8 29  1  0
  9 30  1  0
 11 31  1  0
 11 32  1  0
 11 33  1  0
 12 34  1  0
 17 35  1  0
M  END
$$$$
