@<TRIPOS>MOLECULE
*****
 35 37 0 0 0
SMALL
GASTEIGER

@<TRIPOS>ATOM
      1 C          -0.5520    2.6927   -1.1869 C.3     1  UNL1       -0.0610
      2 C          -0.4503    2.3124    0.3154 C.3     1  UNL1       -0.0233
      3 C           0.5005    1.1800    0.3541 C.ar    1  UNL1        0.0425
      4 C           0.2259   -0.1174    0.0238 C.ar    1  UNL1        0.0566
      5 C          -1.0989   -0.5413   -0.3494 C.ar    1  UNL1        0.0017
      6 C          -1.3524   -1.1138   -1.6072 C.ar    1  UNL1       -0.0524
      7 C          -2.5833   -1.6122   -1.9505 C.ar    1  UNL1       -0.0611
      8 C          -3.5892   -1.5387   -1.0164 C.ar    1  UNL1       -0.0615
      9 C          -3.3896   -0.9883    0.2317 C.ar    1  UNL1       -0.0582
     10 C          -2.1255   -0.4895    0.5563 C.ar    1  UNL1       -0.0413
     11 C          -1.9943   -0.0173    1.9729 C.3     1  UNL1       -0.0391
     12 N           1.2731   -0.9983   -0.0097 N.ar    1  UNL1       -0.3380
     13 C           2.5341   -0.6879    0.2585 C.ar    1  UNL1        0.1557
     14 C           3.7295   -1.4147    0.2846 C.ar    1  UNL1        0.1137
     15 C           3.8476   -2.8088   -0.0121 C.1     1  UNL1        0.1044
     16 N           3.9436   -3.9470   -0.2338 N.1     1  UNL1       -0.1907
     17 C           4.6950   -0.5066    0.6421 C.ar    1  UNL1        0.0694
     18 N           4.0962    0.6736    0.8126 N.ar    1  UNL1       -0.1689
     19 N           2.7984    0.5826    0.5862 N.ar    1  UNL1       -0.1786
     20 C           1.8372    1.5053    0.6404 C.ar    1  UNL1        0.2783
     21 O           2.0897    2.7193    0.9533 O.2     1  UNL1       -0.2654
     22 H           0.4248    2.5722   -1.6839 H       1  UNL1        0.0233
     23 H          -0.8784    3.7410   -1.3020 H       1  UNL1        0.0233
     24 H          -1.2881    2.0301   -1.6788 H       1  UNL1        0.0233
     25 H          -0.0258    3.2268    0.7796 H       1  UNL1        0.0313
     26 H          -1.4321    2.1740    0.6916 H       1  UNL1        0.0313
     27 H          -0.5174   -1.1426   -2.3016 H       1  UNL1        0.0624
     28 H          -2.7283   -2.0474   -2.9414 H       1  UNL1        0.0618
     29 H          -4.5615   -1.9304   -1.2874 H       1  UNL1        0.0618
     30 H          -4.1876   -0.9340    0.9623 H       1  UNL1        0.0620
     31 H          -2.7464    0.7766    2.1163 H       1  UNL1        0.0278
     32 H          -0.9802    0.2438    2.2566 H       1  UNL1        0.0278
     33 H          -2.3233   -0.8559    2.6348 H       1  UNL1        0.0278
     34 H           1.0535   -2.0018   -0.2705 H       1  UNL1        0.1674
     35 H           5.7559   -0.7367    0.7587 H       1  UNL1        0.0862
@<TRIPOS>BOND
     1     1     2    1
     2     2     3    1
     3     3     4   ar
     4     4     5    1
     5     5     6   ar
     6     6     7   ar
     7     7     8   ar
     8     8     9   ar
     9     9    10   ar
    10    10    11    1
    11     4    12   ar
    12    12    13   ar
    13    13    14   ar
    14    14    15    1
    15    15    16    3
    16    14    17   ar
    17    17    18   ar
    18    18    19   ar
    19    19    20   ar
    20    20    21    2
    21    20     3   ar
    22    10     5   ar
    23    19    13   ar
    24     1    22    1
    25     1    23    1
    26     1    24    1
    27     2    25    1
    28     2    26    1
    29     6    27    1
    30     7    28    1
    31     8    29    1
    32     9    30    1
    33    11    31    1
    34    11    32    1
    35    11    33    1
    36    12    34    1
    37    17    35    1
