@<TRIPOS>MOLECULE
*****
 30 32 0 0 0
SMALL
GASTEIGER

@<TRIPOS>ATOM
      1 O           2.0860    0.4836    2.8575 O.2     1  UNL1       -0.2872
      2 C           1.9976    0.3025    1.5472 C.2     1  UNL1        0.1875
      3 C           0.6353    0.1914    1.1336 C.2     1  UNL1       -0.0137
      4 C           0.1386   -0.0390   -0.0463 C.2     1  UNL1       -0.0508
      5 C          -1.3179   -0.1244   -0.3326 C.ar    1  UNL1       -0.0212
      6 C          -1.7031   -0.3778   -1.6518 C.ar    1  UNL1       -0.0509
      7 C          -3.0246   -0.4768   -2.0278 C.ar    1  UNL1       -0.0156
      8 C          -4.0058   -0.3255   -1.0960 C.ar    1  UNL1        0.1663
      9 C          -3.6448   -0.0771    0.1993 C.ar    1  UNL1        0.1668
     10 C          -2.3021    0.0250    0.5890 C.ar    1  UNL1       -0.0090
     11 O          -4.8129    0.0319    0.9257 O.3     1  UNL1       -0.4526
     12 C          -5.9442   -0.0871    0.1140 C.3     1  UNL1        0.2332
     13 O          -5.3945   -0.3693   -1.1663 O.3     1  UNL1       -0.4526
     14 C           3.2473    0.2615    0.8900 C.ar    1  UNL1        0.0397
     15 C           3.4738    0.3375   -0.4525 C.ar    1  UNL1       -0.0480
     16 C           4.7644    0.2098   -0.9293 C.ar    1  UNL1       -0.0429
     17 C           5.8470    0.0105   -0.1266 C.ar    1  UNL1        0.0276
     18 N           5.6306   -0.0627    1.1886 N.ar    1  UNL1       -0.2626
     19 C           4.3951    0.0560    1.6804 C.ar    1  UNL1        0.0383
     20 H          -0.1643    0.3174    1.9215 H       1  UNL1        0.0656
     21 H           0.8269   -0.2069   -0.8565 H       1  UNL1        0.0625
     22 H          -0.9581   -0.5053   -2.4275 H       1  UNL1        0.0625
     23 H          -3.3154   -0.6729   -3.0493 H       1  UNL1        0.0655
     24 H          -2.0553    0.2210    1.6155 H       1  UNL1        0.0661
     25 H          -6.4800    0.8730    0.0172 H       1  UNL1        0.1166
     26 H          -6.6412   -0.8924    0.4329 H       1  UNL1        0.1166
     27 H           2.6658    0.5355   -1.1750 H       1  UNL1        0.0626
     28 H           4.8926    0.2772   -2.0217 H       1  UNL1        0.0633
     29 H           6.8438   -0.0855   -0.5315 H       1  UNL1        0.0829
     30 H           4.3196   -0.0205    2.7783 H       1  UNL1        0.0837
@<TRIPOS>BOND
     1     1     2    2
     2     2     3    1
     3     3     4    2
     4     4     5    1
     5     5     6   ar
     6     6     7   ar
     7     7     8   ar
     8     8     9   ar
     9     9    10   ar
    10     9    11    1
    11    11    12    1
    12    12    13    1
    13     2    14    1
    14    14    15   ar
    15    15    16   ar
    16    16    17   ar
    17    17    18   ar
    18    18    19   ar
    19    10     5   ar
    20    19    14   ar
    21    13     8    1
    22     3    20    1
    23     4    21    1
    24     6    22    1
    25     7    23    1
    26    10    24    1
    27    12    25    1
    28    12    26    1
    29    15    27    1
    30    16    28    1
    31    17    29    1
    32    19    30    1
