@<TRIPOS>MOLECULE
*****
 58 61 0 0 0
SMALL
GASTEIGER

@<TRIPOS>ATOM
      1 C          -5.4897    2.3366    1.1897 C.3     1  UNL1       -0.0410
      2 N          -4.5951    1.8525    0.1613 N.4     1  UNL1        0.2444
      3 C          -3.2758    2.3285    0.4196 C.3     1  UNL1       -0.0044
      4 C          -2.2091    1.3922    0.0664 C.ar    1  UNL1       -0.0028
      5 C          -1.7465    0.4793    0.9808 C.ar    1  UNL1       -0.0528
      6 C          -0.7232   -0.4182    0.6460 C.ar    1  UNL1       -0.0492
      7 C          -0.1758   -0.3871   -0.6064 C.ar    1  UNL1        0.0370
      8 C           0.9048   -1.3120   -0.9990 C.2     1  UNL1        0.2483
      9 O           1.3766   -1.2456   -2.1695 O.2     1  UNL1       -0.2699
     10 N           1.4565   -2.2791   -0.1469 N.am    1  UNL1       -0.2808
     11 C           2.4976   -3.1574   -0.5490 C.ar    1  UNL1        0.0459
     12 C           2.2229   -4.3991   -1.1316 C.ar    1  UNL1       -0.0384
     13 C           3.2573   -5.2322   -1.5132 C.ar    1  UNL1       -0.0416
     14 C           4.5497   -4.8510   -1.3251 C.ar    1  UNL1        0.0418
     15 CL          5.9041   -5.8576   -1.7857 Cl      1  UNL1       -0.0835
     16 C           4.8092   -3.6090   -0.7424 C.ar    1  UNL1       -0.0295
     17 C           3.7977   -2.7600   -0.3532 C.ar    1  UNL1        0.0596
     18 C           4.0575   -1.4744    0.2513 C.2     1  UNL1        0.2511
     19 O           3.0771   -0.7301    0.5982 O.2     1  UNL1       -0.2697
     20 N           5.3466   -0.9397    0.5060 N.am    1  UNL1       -0.2663
     21 C           5.4591    0.3395    1.1070 C.ar    1  UNL1        0.1252
     22 C           5.5142    0.4795    2.4743 C.ar    1  UNL1       -0.0201
     23 C           5.6226    1.7055    3.0871 C.ar    1  UNL1       -0.0387
     24 C           5.6769    2.8269    2.2837 C.ar    1  UNL1        0.0592
     25 CL          5.8141    4.4107    2.9954 Cl      1  UNL1       -0.0820
     26 C           5.6217    2.6829    0.9213 C.ar    1  UNL1        0.0480
     27 N           5.5161    1.4677    0.3702 N.ar    1  UNL1       -0.2387
     28 C          -0.6424    0.5261   -1.5133 C.ar    1  UNL1       -0.0492
     29 C          -1.6466    1.4069   -1.1851 C.ar    1  UNL1       -0.0528
     30 C          -4.6845    0.4078    0.1000 C.3     1  UNL1       -0.0298
     31 C          -6.0841    0.1891   -0.4460 C.3     1  UNL1       -0.0076
     32 C          -6.4927    1.5131   -1.0849 C.3     1  UNL1       -0.0076
     33 C          -5.1430    2.2428   -1.1099 C.3     1  UNL1       -0.0298
     34 H          -6.2128    1.5368    1.4475 H       1  UNL1        0.0778
     35 H          -4.9473    2.5677    2.1369 H       1  UNL1        0.0778
     36 H          -6.0804    3.2065    0.8340 H       1  UNL1        0.0778
     37 H          -3.1546    3.2765   -0.1819 H       1  UNL1        0.0868
     38 H          -3.2165    2.6799    1.4773 H       1  UNL1        0.0868
     39 H          -2.1918    0.4682    1.9700 H       1  UNL1        0.0622
     40 H          -0.3947   -1.1170    1.4014 H       1  UNL1        0.0625
     41 H           1.0971   -2.3701    0.8286 H       1  UNL1        0.1552
     42 H           1.2030   -4.7052   -1.2824 H       1  UNL1        0.0637
     43 H           3.0444   -6.2011   -1.9682 H       1  UNL1        0.0633
     44 H           5.8364   -3.3177   -0.5984 H       1  UNL1        0.0640
     45 H           6.1741   -1.5168    0.2373 H       1  UNL1        0.1566
     46 H           5.4709   -0.3936    3.0881 H       1  UNL1        0.0652
     47 H           5.6662    1.8219    4.1508 H       1  UNL1        0.0634
     48 H           5.6639    3.5515    0.2989 H       1  UNL1        0.0845
     49 H          -0.2311    0.5797   -2.5191 H       1  UNL1        0.0625
     50 H          -2.0223    2.1436   -1.9185 H       1  UNL1        0.0622
     51 H          -3.9104    0.0042   -0.5964 H       1  UNL1        0.0815
     52 H          -4.5647    0.0246    1.1325 H       1  UNL1        0.0815
     53 H          -6.7796   -0.1030    0.3693 H       1  UNL1        0.0319
     54 H          -6.0653   -0.5868   -1.2580 H       1  UNL1        0.0319
     55 H          -6.9054    1.3793   -2.0946 H       1  UNL1        0.0319
     56 H          -7.2080    2.0722   -0.4475 H       1  UNL1        0.0319
     57 H          -5.2739    3.3162   -1.2434 H       1  UNL1        0.0815
     58 H          -4.5711    1.7475   -1.9345 H       1  UNL1        0.0815
@<TRIPOS>UNITY_ATOM_ATTR
2 1
charge 1
@<TRIPOS>BOND
     1     1     2    1
     2     2     3    1
     3     3     4    1
     4     4     5   ar
     5     5     6   ar
     6     6     7   ar
     7     7     8    1
     8     8     9    2
     9     8    10   am
    10    10    11    1
    11    11    12   ar
    12    12    13   ar
    13    13    14   ar
    14    14    15    1
    15    14    16   ar
    16    16    17   ar
    17    17    18    1
    18    18    19    2
    19    18    20   am
    20    20    21    1
    21    21    22   ar
    22    22    23   ar
    23    23    24   ar
    24    24    25    1
    25    24    26   ar
    26    26    27   ar
    27     7    28   ar
    28    28    29   ar
    29     2    30    1
    30    30    31    1
    31    31    32    1
    32    32    33    1
    33    33     2    1
    34    29     4   ar
    35    17    11   ar
    36    27    21   ar
    37     1    34    1
    38     1    35    1
    39     1    36    1
    40     3    37    1
    41     3    38    1
    42     5    39    1
    43     6    40    1
    44    10    41    1
    45    12    42    1
    46    13    43    1
    47    16    44    1
    48    20    45    1
    49    22    46    1
    50    23    47    1
    51    26    48    1
    52    28    49    1
    53    29    50    1
    54    30    51    1
    55    30    52    1
    56    31    53    1
    57    31    54    1
    58    32    55    1
    59    32    56    1
    60    33    57    1
    61    33    58    1
