
     RDKit          3D

 49 51  0  0  0  0  0  0  0  0999 V2000
    6.6840    2.4715   -0.1211 C   0  0  0  0  0  0  0  0  0  0  0  0
    5.6465    1.4358   -0.3370 C   0  0  0  0  0  0  0  0  0  0  0  0
    5.9173    0.2616   -1.0201 C   0  0  0  0  0  0  0  0  0  0  0  0
    4.9129   -0.6459   -1.1796 C   0  0  0  0  0  0  0  0  0  0  0  0
    3.6502   -0.4190   -0.6801 C   0  0  0  0  0  0  0  0  0  0  0  0
    2.6099   -1.3827   -0.8527 N   0  0  0  0  0  0  0  0  0  0  0  0
    1.3056   -1.1486   -0.3704 C   0  0  0  0  0  0  0  0  0  0  0  0
    0.3906   -0.5933   -1.1680 N   0  0  0  0  0  0  0  0  0  0  0  0
   -0.8844   -0.3452   -0.7471 C   0  0  0  0  0  0  0  0  0  0  0  0
   -1.7903    0.2491   -1.6445 N   0  0  0  0  0  0  0  0  0  0  0  0
   -3.1534    0.5398   -1.3229 C   0  0  2  0  0  0  0  0  0  0  0  0
   -3.3522    1.4258   -0.1269 C   0  0  0  0  0  0  0  0  0  0  0  0
   -4.7790    1.5669    0.2875 C   0  0  0  0  0  0  0  0  0  0  0  0
   -5.7347    0.5406   -0.1540 C   0  0  0  0  0  0  0  0  0  0  0  0
   -5.3961   -0.2816   -1.3388 C   0  0  0  0  0  0  0  0  0  0  0  0
   -3.9367   -0.7440   -1.1842 C   0  0  2  0  0  0  0  0  0  0  0  0
   -3.7080   -1.3072    0.1069 N   0  0  0  0  0  0  0  0  0  0  0  0
   -1.1563   -0.6905    0.5037 N   0  0  0  0  0  0  0  0  0  0  0  0
   -0.2979   -1.2481    1.3592 C   0  0  0  0  0  0  0  0  0  0  0  0
    0.9851   -1.4961    0.9307 C   0  0  0  0  0  0  0  0  0  0  0  0
    1.9496   -2.0999    1.8230 C   0  0  0  0  0  0  0  0  0  0  0  0
    1.5689   -2.4225    3.1465 N   0  0  0  0  0  0  0  0  0  0  0  0
    3.1131   -2.3423    1.4487 O   0  0  0  0  0  0  0  0  0  0  0  0
    3.3983    0.7602   -0.0002 C   0  0  0  0  0  0  0  0  0  0  0  0
    4.3905    1.6772    0.1678 C   0  0  0  0  0  0  0  0  0  0  0  0
    7.6738    2.0216   -0.2289 H   0  0  0  0  0  0  0  0  0  0  0  0
    6.5492    2.8517    0.9086 H   0  0  0  0  0  0  0  0  0  0  0  0
    6.5454    3.2785   -0.8636 H   0  0  0  0  0  0  0  0  0  0  0  0
    6.9276    0.1179   -1.4003 H   0  0  0  0  0  0  0  0  0  0  0  0
    5.1206   -1.5690   -1.7156 H   0  0  0  0  0  0  0  0  0  0  0  0
    2.8347   -2.2672   -1.3456 H   0  0  0  0  0  0  0  0  0  0  0  0
   -1.4357    0.4942   -2.6143 H   0  0  0  0  0  0  0  0  0  0  0  0
   -3.5849    1.0945   -2.2308 H   0  0  0  0  0  0  0  0  0  0  0  0
   -2.8733    2.4063   -0.3290 H   0  0  0  0  0  0  0  0  0  0  0  0
   -2.8056    0.9731    0.7229 H   0  0  0  0  0  0  0  0  0  0  0  0
   -5.1308    2.5643   -0.1092 H   0  0  0  0  0  0  0  0  0  0  0  0
   -4.8300    1.6903    1.4062 H   0  0  0  0  0  0  0  0  0  0  0  0
   -5.9440   -0.1676    0.7034 H   0  0  0  0  0  0  0  0  0  0  0  0
   -6.7636    0.9740   -0.3538 H   0  0  0  0  0  0  0  0  0  0  0  0
   -6.0518   -1.1715   -1.3999 H   0  0  0  0  0  0  0  0  0  0  0  0
   -5.4745    0.3125   -2.2699 H   0  0  0  0  0  0  0  0  0  0  0  0
   -3.6996   -1.4139   -2.0171 H   0  0  0  0  0  0  0  0  0  0  0  0
   -3.9877   -0.6777    0.8860 H   0  0  0  0  0  0  0  0  0  0  0  0
   -4.1927   -2.2174    0.2608 H   0  0  0  0  0  0  0  0  0  0  0  0
   -0.6066   -1.5031    2.3810 H   0  0  0  0  0  0  0  0  0  0  0  0
    1.0755   -3.3077    3.3931 H   0  0  0  0  0  0  0  0  0  0  0  0
    1.7661   -1.7774    3.9621 H   0  0  0  0  0  0  0  0  0  0  0  0
    2.3894    0.9313    0.3935 H   0  0  0  0  0  0  0  0  0  0  0  0
    4.1651    2.6008    0.7091 H   0  0  0  0  0  0  0  0  0  0  0  0
  1  2  1  0
  2  3  2  0
  3  4  1  0
  4  5  2  0
  5  6  1  0
  6  7  1  0
  7  8  2  0
  8  9  1  0
  9 10  1  0
 10 11  1  0
 11 12  1  0
 12 13  1  0
 13 14  1  0
 14 15  1  0
 15 16  1  0
 16 17  1  0
  9 18  2  0
 18 19  1  0
 19 20  2  0
 20 21  1  0
 21 22  1  0
 21 23  2  0
  5 24  1  0
 24 25  2  0
 25  2  1  0
 20  7  1  0
 16 11  1  0
  1 26  1  0
  1 27  1  0
  1 28  1  0
  3 29  1  0
  4 30  1  0
  6 31  1  0
 10 32  1  0
 11 33  1  6
 12 34  1  0
 12 35  1  0
 13 36  1  0
 13 37  1  0
 14 38  1  0
 14 39  1  0
 15 40  1  0
 15 41  1  0
 16 42  1  6
 17 43  1  0
 17 44  1  0
 19 45  1  0
 22 46  1  0
 22 47  1  0
 24 48  1  0
 25 49  1  0
M  END
$$$$
