@<TRIPOS>MOLECULE
*****
 49 51 0 0 0
SMALL
GASTEIGER

@<TRIPOS>ATOM
      1 C           6.6840    2.4715   -0.1211 C.3     1  UNL1       -0.0397
      2 C           5.6465    1.4358   -0.3370 C.ar    1  UNL1       -0.0503
      3 C           5.9173    0.2616   -1.0201 C.ar    1  UNL1       -0.0571
      4 C           4.9129   -0.6459   -1.1796 C.ar    1  UNL1       -0.0403
      5 C           3.6502   -0.4190   -0.6801 C.ar    1  UNL1        0.0324
      6 N           2.6099   -1.3827   -0.8527 N.pl3   1  UNL1       -0.2987
      7 C           1.3056   -1.1486   -0.3704 C.ar    1  UNL1        0.1402
      8 N           0.3906   -0.5933   -1.1680 N.ar    1  UNL1       -0.1987
      9 C          -0.8844   -0.3452   -0.7471 C.ar    1  UNL1        0.2171
     10 N          -1.7903    0.2491   -1.6445 N.pl3   1  UNL1       -0.3091
     11 C          -3.1534    0.5398   -1.3229 C.3     1  UNL1        0.0384
     12 C          -3.3522    1.4258   -0.1269 C.3     1  UNL1       -0.0331
     13 C          -4.7790    1.5669    0.2875 C.3     1  UNL1       -0.0513
     14 C          -5.7347    0.5406   -0.1540 C.3     1  UNL1       -0.0515
     15 C          -5.3961   -0.2816   -1.3388 C.3     1  UNL1       -0.0360
     16 C          -3.9367   -0.7440   -1.1842 C.3     1  UNL1        0.0234
     17 N          -3.7080   -1.3072    0.1069 N.3     1  UNL1       -0.3257
     18 N          -1.1563   -0.6905    0.5037 N.ar    1  UNL1       -0.2221
     19 C          -0.2979   -1.2481    1.3592 C.ar    1  UNL1        0.0466
     20 C           0.9851   -1.4961    0.9307 C.ar    1  UNL1        0.0946
     21 C           1.9496   -2.0999    1.8230 C.2     1  UNL1        0.2463
     22 N           1.5689   -2.4225    3.1465 N.am    1  UNL1       -0.3252
     23 O           3.1131   -2.3423    1.4487 O.2     1  UNL1       -0.2702
     24 C           3.3983    0.7602   -0.0002 C.ar    1  UNL1       -0.0403
     25 C           4.3905    1.6772    0.1678 C.ar    1  UNL1       -0.0571
     26 H           7.6738    2.0216   -0.2289 H       1  UNL1        0.0278
     27 H           6.5492    2.8517    0.9086 H       1  UNL1        0.0278
     28 H           6.5454    3.2785   -0.8636 H       1  UNL1        0.0278
     29 H           6.9276    0.1179   -1.4003 H       1  UNL1        0.0621
     30 H           5.1206   -1.5690   -1.7156 H       1  UNL1        0.0636
     31 H           2.8347   -2.2672   -1.3456 H       1  UNL1        0.1536
     32 H          -1.4357    0.4942   -2.6143 H       1  UNL1        0.1492
     33 H          -3.5849    1.0945   -2.2308 H       1  UNL1        0.0513
     34 H          -2.8733    2.4063   -0.3290 H       1  UNL1        0.0284
     35 H          -2.8056    0.9731    0.7229 H       1  UNL1        0.0284
     36 H          -5.1308    2.5643   -0.1092 H       1  UNL1        0.0266
     37 H          -4.8300    1.6903    1.4062 H       1  UNL1        0.0266
     38 H          -5.9440   -0.1676    0.7034 H       1  UNL1        0.0266
     39 H          -6.7636    0.9740   -0.3538 H       1  UNL1        0.0266
     40 H          -6.0518   -1.1715   -1.3999 H       1  UNL1        0.0281
     41 H          -5.4745    0.3125   -2.2699 H       1  UNL1        0.0281
     42 H          -3.6996   -1.4139   -2.0171 H       1  UNL1        0.0476
     43 H          -3.9877   -0.6777    0.8860 H       1  UNL1        0.1185
     44 H          -4.1927   -2.2174    0.2608 H       1  UNL1        0.1185
     45 H          -0.6066   -1.5031    2.3810 H       1  UNL1        0.0839
     46 H           1.0755   -3.3077    3.3931 H       1  UNL1        0.1453
     47 H           1.7661   -1.7774    3.9621 H       1  UNL1        0.1453
     48 H           2.3894    0.9313    0.3935 H       1  UNL1        0.0636
     49 H           4.1651    2.6008    0.7091 H       1  UNL1        0.0621
@<TRIPOS>BOND
     1     1     2    1
     2     2     3   ar
     3     3     4   ar
     4     4     5   ar
     5     5     6    1
     6     6     7    1
     7     7     8   ar
     8     8     9   ar
     9     9    10    1
    10    10    11    1
    11    11    12    1
    12    12    13    1
    13    13    14    1
    14    14    15    1
    15    15    16    1
    16    16    17    1
    17     9    18   ar
    18    18    19   ar
    19    19    20   ar
    20    20    21    1
    21    21    22   am
    22    21    23    2
    23     5    24   ar
    24    24    25   ar
    25    25     2   ar
    26    20     7   ar
    27    16    11    1
    28     1    26    1
    29     1    27    1
    30     1    28    1
    31     3    29    1
    32     4    30    1
    33     6    31    1
    34    10    32    1
    35    11    33    1
    36    12    34    1
    37    12    35    1
    38    13    36    1
    39    13    37    1
    40    14    38    1
    41    14    39    1
    42    15    40    1
    43    15    41    1
    44    16    42    1
    45    17    43    1
    46    17    44    1
    47    19    45    1
    48    22    46    1
    49    22    47    1
    50    24    48    1
    51    25    49    1
