@<TRIPOS>MOLECULE
*****
 15 14 0 0 0
SMALL
GASTEIGER

@<TRIPOS>ATOM
      1 O          -2.0707    0.8282    0.1354 O.3     1  UNL1       -0.3950
      2 C          -1.3053    0.0550   -0.7177 C.3     1  UNL1        0.0447
      3 C          -0.4840   -0.9633    0.0388 C.3     1  UNL1       -0.0197
      4 C           0.4549   -0.3240    1.0333 C.3     1  UNL1        0.0468
      5 C           1.4014    0.6002    0.3261 C.2     1  UNL1        0.3048
      6 O           2.2227   -0.2156   -0.4767 O.3     1  UNL1       -0.4806
      7 O           1.6552    1.8495    0.2514 O.2     1  UNL1       -0.2510
      8 H          -1.9693    1.8014    0.0283 H       1  UNL1        0.2094
      9 H          -1.9631   -0.5430   -1.3975 H       1  UNL1        0.0557
     10 H          -0.6167    0.6605   -1.3439 H       1  UNL1        0.0557
     11 H           0.1031   -1.5591   -0.7053 H       1  UNL1        0.0292
     12 H          -1.1731   -1.6414    0.5600 H       1  UNL1        0.0292
     13 H           0.9649   -1.0857    1.6065 H       1  UNL1        0.0378
     14 H          -0.1595    0.3288    1.7016 H       1  UNL1        0.0378
     15 H           2.9395    0.2086   -1.0404 H       1  UNL1        0.2951
@<TRIPOS>BOND
     1     1     2    1
     2     2     3    1
     3     3     4    1
     4     4     5    1
     5     5     6    1
     6     5     7    2
     7     1     8    1
     8     2     9    1
     9     2    10    1
    10     3    11    1
    11     3    12    1
    12     4    13    1
    13     4    14    1
    14     6    15    1
