
     RDKit          3D

 15 14  0  0  0  0  0  0  0  0999 V2000
   -2.0707    0.8282    0.1354 O   0  0  0  0  0  0  0  0  0  0  0  0
   -1.3053    0.0550   -0.7177 C   0  0  0  0  0  0  0  0  0  0  0  0
   -0.4840   -0.9633    0.0388 C   0  0  0  0  0  0  0  0  0  0  0  0
    0.4549   -0.3240    1.0333 C   0  0  0  0  0  0  0  0  0  0  0  0
    1.4014    0.6002    0.3261 C   0  0  0  0  0  0  0  0  0  0  0  0
    2.2227   -0.2156   -0.4767 O   0  0  0  0  0  0  0  0  0  0  0  0
    1.6552    1.8495    0.2514 O   0  0  0  0  0  0  0  0  0  0  0  0
   -1.9693    1.8014    0.0283 H   0  0  0  0  0  0  0  0  0  0  0  0
   -1.9631   -0.5430   -1.3975 H   0  0  0  0  0  0  0  0  0  0  0  0
   -0.6167    0.6605   -1.3439 H   0  0  0  0  0  0  0  0  0  0  0  0
    0.1031   -1.5591   -0.7053 H   0  0  0  0  0  0  0  0  0  0  0  0
   -1.1731   -1.6414    0.5600 H   0  0  0  0  0  0  0  0  0  0  0  0
    0.9649   -1.0857    1.6065 H   0  0  0  0  0  0  0  0  0  0  0  0
   -0.1595    0.3288    1.7016 H   0  0  0  0  0  0  0  0  0  0  0  0
    2.9395    0.2086   -1.0404 H   0  0  0  0  0  0  0  0  0  0  0  0
  1  2  1  0
  2  3  1  0
  3  4  1  0
  4  5  1  0
  5  6  1  0
  5  7  2  0
  1  8  1  0
  2  9  1  0
  2 10  1  0
  3 11  1  0
  3 12  1  0
  4 13  1  0
  4 14  1  0
  6 15  1  0
M  END
$$$$
