@<TRIPOS>MOLECULE
*****
 48 51 0 0 0
SMALL
GASTEIGER

@<TRIPOS>ATOM
      1 F           4.5309   -2.1762    0.5764 F       1  UNL1       -0.2033
      2 C           5.2089   -1.0737    0.1584 C.ar    1  UNL1        0.1525
      3 C           6.4092   -0.8275    0.8136 C.ar    1  UNL1       -0.0243
      4 C           7.1416    0.2706    0.4381 C.ar    1  UNL1       -0.0562
      5 C           6.6703    1.0812   -0.5614 C.ar    1  UNL1       -0.0243
      6 C           5.4899    0.8248   -1.1942 C.ar    1  UNL1        0.1525
      7 F           5.0463    1.6176   -2.1692 F       1  UNL1       -0.2033
      8 C           4.7064   -0.2608   -0.8650 C.ar    1  UNL1        0.1754
      9 S           3.2011   -0.7108   -1.5820 S.O2    1  UNL1        0.0664
     10 O           3.2430   -0.2849   -3.0234 O.2     1  UNL1       -0.1527
     11 O           3.1583   -2.2256   -1.6166 O.2     1  UNL1       -0.1527
     12 N           1.8179   -0.0953   -0.8060 N.3     1  UNL1       -0.1739
     13 C           1.7542   -0.5947    0.5540 C.3     1  UNL1        0.0350
     14 C           0.3557   -0.3401    1.1418 C.3     1  UNL1        0.0349
     15 N          -0.0834    0.9432    0.7110 N.3     1  UNL1       -0.1740
     16 C           1.0551    1.7856    0.4614 C.3     1  UNL1        0.0349
     17 C           1.8151    1.3439   -0.7453 C.3     1  UNL1        0.0350
     18 S          -1.1289    0.9887   -0.6207 S.O2    1  UNL1        0.0610
     19 O          -0.5495    0.4500   -1.8962 O.2     1  UNL1       -0.1528
     20 O          -1.4159    2.4553   -0.8995 O.2     1  UNL1       -0.1528
     21 C          -2.6474    0.1380   -0.3037 C.ar    1  UNL1        0.1092
     22 C          -2.8116   -1.2054   -0.5741 C.ar    1  UNL1       -0.0317
     23 C          -4.0612   -1.7411   -0.2732 C.ar    1  UNL1       -0.0144
     24 C          -5.0723   -0.9652    0.2646 C.ar    1  UNL1        0.1622
     25 O          -6.3220   -1.4838    0.5697 O.3     1  UNL1       -0.4849
     26 C          -7.4993   -0.7035    0.5751 C.3     1  UNL1        0.1237
     27 C          -7.2838    0.7224    0.9974 C.3     1  UNL1        0.1237
     28 O          -5.9311    1.1067    1.0655 O.3     1  UNL1       -0.4849
     29 C          -4.8901    0.3619    0.5249 C.ar    1  UNL1        0.1639
     30 C          -3.6605    0.9170    0.2357 C.ar    1  UNL1        0.0101
     31 H           6.7594   -1.4790    1.5964 H       1  UNL1        0.0647
     32 H           8.0858    0.4416    0.9722 H       1  UNL1        0.0619
     33 H           7.2715    1.9483   -0.8417 H       1  UNL1        0.0647
     34 H           1.8717   -1.7079    0.5747 H       1  UNL1        0.0457
     35 H           2.4871   -0.1280    1.2168 H       1  UNL1        0.0457
     36 H          -0.3302   -1.1664    0.8772 H       1  UNL1        0.0457
     37 H           0.4882   -0.3777    2.2428 H       1  UNL1        0.0457
     38 H           1.7144    1.7823    1.3567 H       1  UNL1        0.0457
     39 H           0.6671    2.8377    0.3473 H       1  UNL1        0.0457
     40 H           2.8375    1.7710   -0.6690 H       1  UNL1        0.0457
     41 H           1.3931    1.7214   -1.6979 H       1  UNL1        0.0457
     42 H          -1.9943   -1.7685   -0.9932 H       1  UNL1        0.0638
     43 H          -4.2294   -2.7951   -0.4718 H       1  UNL1        0.0656
     44 H          -8.2276   -1.1808    1.2800 H       1  UNL1        0.0731
     45 H          -7.9545   -0.7716   -0.4442 H       1  UNL1        0.0731
     46 H          -7.7509    0.9205    1.9798 H       1  UNL1        0.0731
     47 H          -7.8171    1.3957    0.2738 H       1  UNL1        0.0731
     48 H          -3.5186    1.9701    0.4431 H       1  UNL1        0.0675
@<TRIPOS>BOND
     1     1     2    1
     2     2     3   ar
     3     3     4   ar
     4     4     5   ar
     5     5     6   ar
     6     6     7    1
     7     6     8   ar
     8     8     9    1
     9     9    10    2
    10     9    11    2
    11     9    12    1
    12    12    13    1
    13    13    14    1
    14    14    15    1
    15    15    16    1
    16    16    17    1
    17    15    18    1
    18    18    19    2
    19    18    20    2
    20    18    21    1
    21    21    22   ar
    22    22    23   ar
    23    23    24   ar
    24    24    25    1
    25    25    26    1
    26    26    27    1
    27    27    28    1
    28    28    29    1
    29    29    30   ar
    30     8     2   ar
    31    17    12    1
    32    30    21   ar
    33    29    24   ar
    34     3    31    1
    35     4    32    1
    36     5    33    1
    37    13    34    1
    38    13    35    1
    39    14    36    1
    40    14    37    1
    41    16    38    1
    42    16    39    1
    43    17    40    1
    44    17    41    1
    45    22    42    1
    46    23    43    1
    47    26    44    1
    48    26    45    1
    49    27    46    1
    50    27    47    1
    51    30    48    1
