
     RDKit          3D

 48 51  0  0  0  0  0  0  0  0999 V2000
    4.5309   -2.1762    0.5764 F   0  0  0  0  0  0  0  0  0  0  0  0
    5.2089   -1.0737    0.1584 C   0  0  0  0  0  0  0  0  0  0  0  0
    6.4092   -0.8275    0.8136 C   0  0  0  0  0  0  0  0  0  0  0  0
    7.1416    0.2706    0.4381 C   0  0  0  0  0  0  0  0  0  0  0  0
    6.6703    1.0812   -0.5614 C   0  0  0  0  0  0  0  0  0  0  0  0
    5.4899    0.8248   -1.1942 C   0  0  0  0  0  0  0  0  0  0  0  0
    5.0463    1.6176   -2.1692 F   0  0  0  0  0  0  0  0  0  0  0  0
    4.7064   -0.2608   -0.8650 C   0  0  0  0  0  0  0  0  0  0  0  0
    3.2011   -0.7108   -1.5820 S   0  0  0  0  0  0  0  0  0  0  0  0
    3.2430   -0.2849   -3.0234 O   0  0  0  0  0  0  0  0  0  0  0  0
    3.1583   -2.2256   -1.6166 O   0  0  0  0  0  0  0  0  0  0  0  0
    1.8179   -0.0953   -0.8060 N   0  0  0  0  0  0  0  0  0  0  0  0
    1.7542   -0.5947    0.5540 C   0  0  0  0  0  0  0  0  0  0  0  0
    0.3557   -0.3401    1.1418 C   0  0  0  0  0  0  0  0  0  0  0  0
   -0.0834    0.9432    0.7110 N   0  0  0  0  0  0  0  0  0  0  0  0
    1.0551    1.7856    0.4614 C   0  0  0  0  0  0  0  0  0  0  0  0
    1.8151    1.3439   -0.7453 C   0  0  0  0  0  0  0  0  0  0  0  0
   -1.1289    0.9887   -0.6207 S   0  0  0  0  0  0  0  0  0  0  0  0
   -0.5495    0.4500   -1.8962 O   0  0  0  0  0  0  0  0  0  0  0  0
   -1.4159    2.4553   -0.8995 O   0  0  0  0  0  0  0  0  0  0  0  0
   -2.6474    0.1380   -0.3037 C   0  0  0  0  0  0  0  0  0  0  0  0
   -2.8116   -1.2054   -0.5741 C   0  0  0  0  0  0  0  0  0  0  0  0
   -4.0612   -1.7411   -0.2732 C   0  0  0  0  0  0  0  0  0  0  0  0
   -5.0723   -0.9652    0.2646 C   0  0  0  0  0  0  0  0  0  0  0  0
   -6.3220   -1.4838    0.5697 O   0  0  0  0  0  0  0  0  0  0  0  0
   -7.4993   -0.7035    0.5751 C   0  0  0  0  0  0  0  0  0  0  0  0
   -7.2838    0.7224    0.9974 C   0  0  0  0  0  0  0  0  0  0  0  0
   -5.9311    1.1067    1.0655 O   0  0  0  0  0  0  0  0  0  0  0  0
   -4.8901    0.3619    0.5249 C   0  0  0  0  0  0  0  0  0  0  0  0
   -3.6605    0.9170    0.2357 C   0  0  0  0  0  0  0  0  0  0  0  0
    6.7594   -1.4790    1.5964 H   0  0  0  0  0  0  0  0  0  0  0  0
    8.0858    0.4416    0.9722 H   0  0  0  0  0  0  0  0  0  0  0  0
    7.2715    1.9483   -0.8417 H   0  0  0  0  0  0  0  0  0  0  0  0
    1.8717   -1.7079    0.5747 H   0  0  0  0  0  0  0  0  0  0  0  0
    2.4871   -0.1280    1.2168 H   0  0  0  0  0  0  0  0  0  0  0  0
   -0.3302   -1.1664    0.8772 H   0  0  0  0  0  0  0  0  0  0  0  0
    0.4882   -0.3777    2.2428 H   0  0  0  0  0  0  0  0  0  0  0  0
    1.7144    1.7823    1.3567 H   0  0  0  0  0  0  0  0  0  0  0  0
    0.6671    2.8377    0.3473 H   0  0  0  0  0  0  0  0  0  0  0  0
    2.8375    1.7710   -0.6690 H   0  0  0  0  0  0  0  0  0  0  0  0
    1.3931    1.7214   -1.6979 H   0  0  0  0  0  0  0  0  0  0  0  0
   -1.9943   -1.7685   -0.9932 H   0  0  0  0  0  0  0  0  0  0  0  0
   -4.2294   -2.7951   -0.4718 H   0  0  0  0  0  0  0  0  0  0  0  0
   -8.2276   -1.1808    1.2800 H   0  0  0  0  0  0  0  0  0  0  0  0
   -7.9545   -0.7716   -0.4442 H   0  0  0  0  0  0  0  0  0  0  0  0
   -7.7509    0.9205    1.9798 H   0  0  0  0  0  0  0  0  0  0  0  0
   -7.8171    1.3957    0.2738 H   0  0  0  0  0  0  0  0  0  0  0  0
   -3.5186    1.9701    0.4431 H   0  0  0  0  0  0  0  0  0  0  0  0
  1  2  1  0
  2  3  2  0
  3  4  1  0
  4  5  2  0
  5  6  1  0
  6  7  1  0
  6  8  2  0
  8  9  1  0
  9 10  2  0
  9 11  2  0
  9 12  1  0
 12 13  1  0
 13 14  1  0
 14 15  1  0
 15 16  1  0
 16 17  1  0
 15 18  1  0
 18 19  2  0
 18 20  2  0
 18 21  1  0
 21 22  2  0
 22 23  1  0
 23 24  2  0
 24 25  1  0
 25 26  1  0
 26 27  1  0
 27 28  1  0
 28 29  1  0
 29 30  2  0
  8  2  1  0
 17 12  1  0
 30 21  1  0
 29 24  1  0
  3 31  1  0
  4 32  1  0
  5 33  1  0
 13 34  1  0
 13 35  1  0
 14 36  1  0
 14 37  1  0
 16 38  1  0
 16 39  1  0
 17 40  1  0
 17 41  1  0
 22 42  1  0
 23 43  1  0
 26 44  1  0
 26 45  1  0
 27 46  1  0
 27 47  1  0
 30 48  1  0
M  END
$$$$
