@<TRIPOS>MOLECULE
*****
 52 56 0 0 0
SMALL
GASTEIGER

@<TRIPOS>ATOM
      1 C          -4.0661   -1.5662   -2.0913 C.3     1  UNL1        0.0122
      2 N          -4.1728   -0.6845   -0.9331 N.ar    1  UNL1       -0.3454
      3 C          -5.3456   -0.2490   -0.4268 C.ar    1  UNL1        0.0366
      4 C          -5.0939    0.5604    0.6572 C.ar    1  UNL1       -0.0165
      5 C          -3.7179    0.6104    0.8038 C.ar    1  UNL1        0.0035
      6 C          -2.9213    1.2605    1.7094 C.ar    1  UNL1       -0.0504
      7 C          -1.5405    1.1238    1.6099 C.ar    1  UNL1       -0.0371
      8 C          -1.0053    0.3463    0.6145 C.ar    1  UNL1        0.0514
      9 N           0.4007    0.2205    0.5310 N.ar    1  UNL1       -0.2839
     10 C           1.0037   -0.5599    1.4554 C.ar    1  UNL1        0.0167
     11 C           2.3726   -0.7195    1.4232 C.ar    1  UNL1       -0.0031
     12 C           3.1574   -0.1063    0.4735 C.ar    1  UNL1        0.1275
     13 O           4.5473   -0.2705    0.4436 O.3     1  UNL1       -0.4872
     14 C           5.2702    0.3997   -0.5703 C.3     1  UNL1        0.1146
     15 C           6.7128    0.0789   -0.4026 C.ar    1  UNL1       -0.0104
     16 C           7.5372    0.8564    0.3845 C.ar    1  UNL1       -0.0554
     17 C           8.8778    0.5732    0.5511 C.ar    1  UNL1       -0.0614
     18 C           9.4284   -0.5195   -0.0831 C.ar    1  UNL1       -0.0617
     19 C           8.6291   -1.3041   -0.8685 C.ar    1  UNL1       -0.0614
     20 C           7.2801   -1.0113   -1.0304 C.ar    1  UNL1       -0.0554
     21 C           2.4947    0.6858   -0.4557 C.ar    1  UNL1        0.0450
     22 C           1.1245    0.8465   -0.4247 C.ar    1  UNL1        0.2592
     23 O           0.5063    1.5600   -1.2579 O.2     1  UNL1       -0.2672
     24 C          -1.7881   -0.3110   -0.2996 C.ar    1  UNL1       -0.0136
     25 C          -3.1717   -0.1714   -0.1967 C.ar    1  UNL1        0.0513
     26 C          -6.2257    1.1893    1.4274 C.3     1  UNL1       -0.0128
     27 C          -7.3048    0.0949    1.4343 C.3     1  UNL1        0.0003
     28 N          -7.7384   -0.2210    0.1163 N.3     1  UNL1       -0.3103
     29 C          -6.7405   -0.5045   -0.8501 C.3     1  UNL1        0.0369
     30 H          -3.0832   -1.4797   -2.5736 H       1  UNL1        0.0456
     31 H          -4.2403   -2.6027   -1.6851 H       1  UNL1        0.0456
     32 H          -4.9150   -1.3284   -2.7715 H       1  UNL1        0.0456
     33 H          -3.3798    1.8547    2.4672 H       1  UNL1        0.0625
     34 H          -0.8957    1.6288    2.3149 H       1  UNL1        0.0638
     35 H           0.4071   -1.0554    2.2160 H       1  UNL1        0.0815
     36 H           2.8616   -1.3427    2.1599 H       1  UNL1        0.0669
     37 H           5.0923    1.5066   -0.5435 H       1  UNL1        0.0748
     38 H           4.9515    0.0621   -1.5831 H       1  UNL1        0.0748
     39 H           7.0625    1.7157    0.8718 H       1  UNL1        0.0621
     40 H           9.5081    1.1946    1.1723 H       1  UNL1        0.0618
     41 H          10.4933   -0.7689    0.0315 H       1  UNL1        0.0618
     42 H           9.0959   -2.1597   -1.3552 H       1  UNL1        0.0618
     43 H           6.6722   -1.6488   -1.6571 H       1  UNL1        0.0621
     44 H           3.0784    1.1880   -1.2230 H       1  UNL1        0.0709
     45 H          -1.3621   -0.9227   -1.0825 H       1  UNL1        0.0659
     46 H          -5.9539    1.3564    2.4839 H       1  UNL1        0.0326
     47 H          -6.5913    2.1021    0.9518 H       1  UNL1        0.0326
     48 H          -8.1487    0.4903    2.0080 H       1  UNL1        0.0427
     49 H          -6.8479   -0.8094    1.8889 H       1  UNL1        0.0427
     50 H          -8.5687    0.2846   -0.2108 H       1  UNL1        0.1223
     51 H          -6.7628   -1.5719   -1.1968 H       1  UNL1        0.0488
     52 H          -6.9838    0.0987   -1.7771 H       1  UNL1        0.0488
@<TRIPOS>BOND
     1     1     2    1
     2     2     3   ar
     3     3     4   ar
     4     4     5   ar
     5     5     6   ar
     6     6     7   ar
     7     7     8   ar
     8     8     9    1
     9     9    10   ar
    10    10    11   ar
    11    11    12   ar
    12    12    13    1
    13    13    14    1
    14    14    15    1
    15    15    16   ar
    16    16    17   ar
    17    17    18   ar
    18    18    19   ar
    19    19    20   ar
    20    12    21   ar
    21    21    22   ar
    22    22    23    2
    23     8    24   ar
    24    24    25   ar
    25     4    26    1
    26    26    27    1
    27    27    28    1
    28    28    29    1
    29    25     2   ar
    30    29     3    1
    31    25     5   ar
    32    22     9   ar
    33    20    15   ar
    34     1    30    1
    35     1    31    1
    36     1    32    1
    37     6    33    1
    38     7    34    1
    39    10    35    1
    40    11    36    1
    41    14    37    1
    42    14    38    1
    43    16    39    1
    44    17    40    1
    45    18    41    1
    46    19    42    1
    47    20    43    1
    48    21    44    1
    49    24    45    1
    50    26    46    1
    51    26    47    1
    52    27    48    1
    53    27    49    1
    54    28    50    1
    55    29    51    1
    56    29    52    1
