@<TRIPOS>MOLECULE
*****
 40 42 0 0 0
SMALL
GASTEIGER

@<TRIPOS>ATOM
      1 C          -5.1690   -1.8405   -0.9411 C.3     1  UNL1       -0.0158
      2 N          -3.7866   -2.0098   -0.5345 N.3     1  UNL1       -0.3188
      3 C          -3.0798   -0.7609   -0.6149 C.3     1  UNL1       -0.0007
      4 C          -1.6482   -0.9748   -0.1856 C.3     1  UNL1        0.0015
      5 C          -0.8421    0.3045   -0.2459 C.3     1  UNL1        0.1323
      6 O           0.4602   -0.0041    0.1692 O.3     1  UNL1       -0.4831
      7 C           1.6245    0.1303   -0.5401 C.ar    1  UNL1        0.1291
      8 C           1.6501    0.6129   -1.8194 C.ar    1  UNL1       -0.0193
      9 C           2.8755    0.7137   -2.4589 C.ar    1  UNL1       -0.0577
     10 C           4.0347    0.3374   -1.8215 C.ar    1  UNL1       -0.0538
     11 C           3.9776   -0.1513   -0.5165 C.ar    1  UNL1       -0.0144
     12 C           5.1418   -0.5278    0.1202 C.ar    1  UNL1       -0.0539
     13 C           5.0934   -1.0134    1.4144 C.ar    1  UNL1       -0.0612
     14 C           3.8921   -1.1243    2.0732 C.ar    1  UNL1       -0.0611
     15 C           2.7208   -0.7398    1.4176 C.ar    1  UNL1       -0.0505
     16 C           2.7859   -0.2572    0.1263 C.ar    1  UNL1        0.0238
     17 C          -1.3883    1.3472    0.6568 C.ar    1  UNL1        0.0299
     18 C          -1.3754    1.4879    1.9821 C.ar    1  UNL1       -0.0480
     19 C          -1.9598    2.5553    2.5541 C.ar    1  UNL1       -0.0544
     20 C          -2.5588    3.4777    1.7426 C.ar    1  UNL1       -0.0240
     21 S          -2.2772    2.7974    0.1153 S.2     1  UNL1       -0.0979
     22 H          -5.1552   -1.0954   -1.7739 H       1  UNL1        0.0388
     23 H          -5.6594   -2.7787   -1.2162 H       1  UNL1        0.0388
     24 H          -5.6967   -1.3692   -0.0712 H       1  UNL1        0.0388
     25 H          -3.7207   -2.4511    0.4080 H       1  UNL1        0.1216
     26 H          -3.5793   -0.0118   -0.0012 H       1  UNL1        0.0425
     27 H          -3.1091   -0.4276   -1.6712 H       1  UNL1        0.0425
     28 H          -1.1587   -1.6878   -0.8835 H       1  UNL1        0.0317
     29 H          -1.6111   -1.4214    0.8241 H       1  UNL1        0.0317
     30 H          -0.8676    0.6922   -1.2593 H       1  UNL1        0.0790
     31 H           0.7802    0.9192   -2.3608 H       1  UNL1        0.0654
     32 H           2.9128    1.0937   -3.4715 H       1  UNL1        0.0619
     33 H           4.9858    0.4089   -2.3000 H       1  UNL1        0.0624
     34 H           6.1042   -0.4615   -0.3481 H       1  UNL1        0.0624
     35 H           5.9831   -1.3143    1.9358 H       1  UNL1        0.0618
     36 H           3.8034   -1.4983    3.0857 H       1  UNL1        0.0618
     37 H           1.7639   -0.8112    1.8979 H       1  UNL1        0.0625
     38 H          -0.8747    0.7117    2.6182 H       1  UNL1        0.0627
     39 H          -1.9959    2.7530    3.6634 H       1  UNL1        0.0623
     40 H          -3.0766    4.3892    1.9706 H       1  UNL1        0.0693
@<TRIPOS>BOND
     1     1     2    1
     2     2     3    1
     3     3     4    1
     4     4     5    1
     5     5     6    1
     6     6     7    1
     7     7     8   ar
     8     8     9   ar
     9     9    10   ar
    10    10    11   ar
    11    11    12   ar
    12    12    13   ar
    13    13    14   ar
    14    14    15   ar
    15    15    16   ar
    16     5    17    1
    17    17    18   ar
    18    18    19   ar
    19    19    20   ar
    20    20    21   ar
    21    16     7   ar
    22    21    17   ar
    23    16    11   ar
    24     1    22    1
    25     1    23    1
    26     1    24    1
    27     2    25    1
    28     3    26    1
    29     3    27    1
    30     4    28    1
    31     4    29    1
    32     5    30    1
    33     8    31    1
    34     9    32    1
    35    10    33    1
    36    12    34    1
    37    13    35    1
    38    14    36    1
    39    15    37    1
    40    18    38    1
    41    19    39    1
    42    20    40    1
