
     RDKit          3D

 40 42  0  0  0  0  0  0  0  0999 V2000
   -5.1690   -1.8405   -0.9411 C   0  0  0  0  0  0  0  0  0  0  0  0
   -3.7866   -2.0098   -0.5345 N   0  0  0  0  0  0  0  0  0  0  0  0
   -3.0798   -0.7609   -0.6149 C   0  0  0  0  0  0  0  0  0  0  0  0
   -1.6482   -0.9748   -0.1856 C   0  0  0  0  0  0  0  0  0  0  0  0
   -0.8421    0.3045   -0.2459 C   0  0  2  0  0  0  0  0  0  0  0  0
    0.4602   -0.0041    0.1692 O   0  0  0  0  0  0  0  0  0  0  0  0
    1.6245    0.1303   -0.5401 C   0  0  0  0  0  0  0  0  0  0  0  0
    1.6501    0.6129   -1.8194 C   0  0  0  0  0  0  0  0  0  0  0  0
    2.8755    0.7137   -2.4589 C   0  0  0  0  0  0  0  0  0  0  0  0
    4.0347    0.3374   -1.8215 C   0  0  0  0  0  0  0  0  0  0  0  0
    3.9776   -0.1513   -0.5165 C   0  0  0  0  0  0  0  0  0  0  0  0
    5.1418   -0.5278    0.1202 C   0  0  0  0  0  0  0  0  0  0  0  0
    5.0934   -1.0134    1.4144 C   0  0  0  0  0  0  0  0  0  0  0  0
    3.8921   -1.1243    2.0732 C   0  0  0  0  0  0  0  0  0  0  0  0
    2.7208   -0.7398    1.4176 C   0  0  0  0  0  0  0  0  0  0  0  0
    2.7859   -0.2572    0.1263 C   0  0  0  0  0  0  0  0  0  0  0  0
   -1.3883    1.3472    0.6568 C   0  0  0  0  0  0  0  0  0  0  0  0
   -1.3754    1.4879    1.9821 C   0  0  0  0  0  0  0  0  0  0  0  0
   -1.9598    2.5553    2.5541 C   0  0  0  0  0  0  0  0  0  0  0  0
   -2.5588    3.4777    1.7426 C   0  0  0  0  0  0  0  0  0  0  0  0
   -2.2772    2.7974    0.1153 S   0  0  0  0  0  0  0  0  0  0  0  0
   -5.1552   -1.0954   -1.7739 H   0  0  0  0  0  0  0  0  0  0  0  0
   -5.6594   -2.7787   -1.2162 H   0  0  0  0  0  0  0  0  0  0  0  0
   -5.6967   -1.3692   -0.0712 H   0  0  0  0  0  0  0  0  0  0  0  0
   -3.7207   -2.4511    0.4080 H   0  0  0  0  0  0  0  0  0  0  0  0
   -3.5793   -0.0118   -0.0012 H   0  0  0  0  0  0  0  0  0  0  0  0
   -3.1091   -0.4276   -1.6712 H   0  0  0  0  0  0  0  0  0  0  0  0
   -1.1587   -1.6878   -0.8835 H   0  0  0  0  0  0  0  0  0  0  0  0
   -1.6111   -1.4214    0.8241 H   0  0  0  0  0  0  0  0  0  0  0  0
   -0.8676    0.6922   -1.2593 H   0  0  0  0  0  0  0  0  0  0  0  0
    0.7802    0.9192   -2.3608 H   0  0  0  0  0  0  0  0  0  0  0  0
    2.9128    1.0937   -3.4715 H   0  0  0  0  0  0  0  0  0  0  0  0
    4.9858    0.4089   -2.3000 H   0  0  0  0  0  0  0  0  0  0  0  0
    6.1042   -0.4615   -0.3481 H   0  0  0  0  0  0  0  0  0  0  0  0
    5.9831   -1.3143    1.9358 H   0  0  0  0  0  0  0  0  0  0  0  0
    3.8034   -1.4983    3.0857 H   0  0  0  0  0  0  0  0  0  0  0  0
    1.7639   -0.8112    1.8979 H   0  0  0  0  0  0  0  0  0  0  0  0
   -0.8747    0.7117    2.6182 H   0  0  0  0  0  0  0  0  0  0  0  0
   -1.9959    2.7530    3.6634 H   0  0  0  0  0  0  0  0  0  0  0  0
   -3.0766    4.3892    1.9706 H   0  0  0  0  0  0  0  0  0  0  0  0
  1  2  1  0
  2  3  1  0
  3  4  1  0
  4  5  1  0
  5  6  1  0
  6  7  1  0
  7  8  2  0
  8  9  1  0
  9 10  2  0
 10 11  1  0
 11 12  2  0
 12 13  1  0
 13 14  2  0
 14 15  1  0
 15 16  2  0
  5 17  1  0
 17 18  2  0
 18 19  1  0
 19 20  2  0
 20 21  1  0
 16  7  1  0
 21 17  1  0
 16 11  1  0
  1 22  1  0
  1 23  1  0
  1 24  1  0
  2 25  1  0
  3 26  1  0
  3 27  1  0
  4 28  1  0
  4 29  1  0
  5 30  1  6
  8 31  1  0
  9 32  1  0
 10 33  1  0
 12 34  1  0
 13 35  1  0
 14 36  1  0
 15 37  1  0
 18 38  1  0
 19 39  1  0
 20 40  1  0
M  END
$$$$
