
     RDKit          3D

 46 50  0  0  0  0  0  0  0  0999 V2000
    6.2296    0.0619    3.2804 C   0  0  0  0  0  0  0  0  0  0  0  0
    4.9974   -0.5793    3.1288 O   0  0  0  0  0  0  0  0  0  0  0  0
    4.2721   -0.5158    1.9486 C   0  0  0  0  0  0  0  0  0  0  0  0
    3.0616   -1.1685    1.8561 C   0  0  0  0  0  0  0  0  0  0  0  0
    2.2937   -1.1332    0.6856 C   0  0  0  0  0  0  0  0  0  0  0  0
    2.7552   -0.4297   -0.4041 C   0  0  0  0  0  0  0  0  0  0  0  0
    2.0066   -0.3690   -1.6103 C   0  0  0  0  0  0  0  0  0  0  0  0
    0.8468   -1.0308   -1.6172 O   0  0  0  0  0  0  0  0  0  0  0  0
   -0.1153   -1.1667   -2.5696 C   0  0  0  0  0  0  0  0  0  0  0  0
   -0.7798    0.1300   -2.8924 C   0  0  0  0  0  0  0  0  0  0  0  0
   -0.5589    1.0361   -3.8405 N   0  0  0  0  0  0  0  0  0  0  0  0
   -1.4319    2.0024   -3.6790 N   0  0  0  0  0  0  0  0  0  0  0  0
   -2.2318    1.7440   -2.6289 C   0  0  0  0  0  0  0  0  0  0  0  0
   -3.2900    2.4107   -2.0350 C   0  0  0  0  0  0  0  0  0  0  0  0
   -3.8951    1.8319   -0.9383 C   0  0  0  0  0  0  0  0  0  0  0  0
   -3.4707    0.6236   -0.4344 C   0  0  0  0  0  0  0  0  0  0  0  0
   -4.1009   -0.0045    0.7277 C   0  0  0  0  0  0  0  0  0  0  0  0
   -5.1547    0.5295    1.4215 C   0  0  0  0  0  0  0  0  0  0  0  0
   -5.7151   -0.1007    2.5115 C   0  0  0  0  0  0  0  0  0  0  0  0
   -5.2111   -1.3264    2.9447 C   0  0  0  0  0  0  0  0  0  0  0  0
   -5.7710   -1.9283    4.0118 F   0  0  0  0  0  0  0  0  0  0  0  0
   -4.1425   -1.8845    2.2542 C   0  0  0  0  0  0  0  0  0  0  0  0
   -3.6632   -3.0842    2.6932 F   0  0  0  0  0  0  0  0  0  0  0  0
   -3.6045   -1.2336    1.1716 C   0  0  0  0  0  0  0  0  0  0  0  0
   -2.4370    0.0452   -1.0721 N   0  0  0  0  0  0  0  0  0  0  0  0
   -1.8307    0.5735   -2.1302 N   0  0  0  0  0  0  0  0  0  0  0  0
    2.4965    0.3385   -2.6728 C   0  0  0  0  0  0  0  0  0  0  0  0
    3.7170    0.9783   -2.5327 C   0  0  0  0  0  0  0  0  0  0  0  0
    4.4163    0.9089   -1.3733 N   0  0  0  0  0  0  0  0  0  0  0  0
    3.9513    0.2174   -0.3181 C   0  0  0  0  0  0  0  0  0  0  0  0
    4.7186    0.1811    0.8540 C   0  0  0  0  0  0  0  0  0  0  0  0
    6.9460   -0.3541    2.5392 H   0  0  0  0  0  0  0  0  0  0  0  0
    6.1945    1.1529    3.1198 H   0  0  0  0  0  0  0  0  0  0  0  0
    6.5704   -0.1103    4.3348 H   0  0  0  0  0  0  0  0  0  0  0  0
    2.7063   -1.7156    2.7088 H   0  0  0  0  0  0  0  0  0  0  0  0
    1.3578   -1.6356    0.6087 H   0  0  0  0  0  0  0  0  0  0  0  0
    0.2691   -1.5540   -3.5564 H   0  0  0  0  0  0  0  0  0  0  0  0
   -0.9304   -1.8875   -2.2960 H   0  0  0  0  0  0  0  0  0  0  0  0
   -3.5902    3.3470   -2.4557 H   0  0  0  0  0  0  0  0  0  0  0  0
   -4.7312    2.3615   -0.4714 H   0  0  0  0  0  0  0  0  0  0  0  0
   -5.5692    1.4690    1.1192 H   0  0  0  0  0  0  0  0  0  0  0  0
   -6.5416    0.3669    3.0171 H   0  0  0  0  0  0  0  0  0  0  0  0
   -2.7660   -1.7190    0.6673 H   0  0  0  0  0  0  0  0  0  0  0  0
    1.9745    0.3916   -3.6062 H   0  0  0  0  0  0  0  0  0  0  0  0
    4.0890    1.5386   -3.3945 H   0  0  0  0  0  0  0  0  0  0  0  0
    5.6626    0.6908    0.9245 H   0  0  0  0  0  0  0  0  0  0  0  0
  1  2  1  0
  2  3  1  0
  3  4  2  0
  4  5  1  0
  5  6  2  0
  6  7  1  0
  7  8  1  0
  8  9  1  0
  9 10  1  0
 10 11  2  0
 11 12  1  0
 12 13  2  0
 13 14  1  0
 14 15  2  0
 15 16  1  0
 16 17  1  0
 17 18  2  0
 18 19  1  0
 19 20  2  0
 20 21  1  0
 20 22  1  0
 22 23  1  0
 22 24  2  0
 16 25  2  0
 25 26  1  0
  7 27  2  0
 27 28  1  0
 28 29  2  0
 29 30  1  0
 30 31  2  0
 31  3  1  0
 30  6  1  0
 26 10  1  0
 26 13  1  0
 24 17  1  0
  1 32  1  0
  1 33  1  0
  1 34  1  0
  4 35  1  0
  5 36  1  0
  9 37  1  0
  9 38  1  0
 14 39  1  0
 15 40  1  0
 18 41  1  0
 19 42  1  0
 24 43  1  0
 27 44  1  0
 28 45  1  0
 31 46  1  0
M  END
$$$$
