@<TRIPOS>MOLECULE
*****
 46 50 0 0 0
SMALL
GASTEIGER

@<TRIPOS>ATOM
      1 C           6.2296    0.0619    3.2804 C.3     1  UNL1        0.0788
      2 O           4.9974   -0.5793    3.1288 O.3     1  UNL1       -0.4950
      3 C           4.2721   -0.5158    1.9486 C.ar    1  UNL1        0.1221
      4 C           3.0616   -1.1685    1.8561 C.ar    1  UNL1       -0.0192
      5 C           2.2937   -1.1332    0.6856 C.ar    1  UNL1       -0.0456
      6 C           2.7552   -0.4297   -0.4041 C.ar    1  UNL1        0.0423
      7 C           2.0066   -0.3690   -1.6103 C.ar    1  UNL1        0.1317
      8 O           0.8468   -1.0308   -1.6172 O.3     1  UNL1       -0.4835
      9 C          -0.1153   -1.1667   -2.5696 C.3     1  UNL1        0.1506
     10 C          -0.7798    0.1300   -2.8924 C.ar    1  UNL1        0.1921
     11 N          -0.5589    1.0361   -3.8405 N.ar    1  UNL1       -0.1286
     12 N          -1.4319    2.0024   -3.6790 N.ar    1  UNL1       -0.1278
     13 C          -2.2318    1.7440   -2.6289 C.ar    1  UNL1        0.1781
     14 C          -3.2900    2.4107   -2.0350 C.ar    1  UNL1       -0.0135
     15 C          -3.8951    1.8319   -0.9383 C.ar    1  UNL1       -0.0305
     16 C          -3.4707    0.6236   -0.4344 C.ar    1  UNL1        0.0920
     17 C          -4.1009   -0.0045    0.7277 C.ar    1  UNL1        0.0049
     18 C          -5.1547    0.5295    1.4215 C.ar    1  UNL1       -0.0496
     19 C          -5.7151   -0.1007    2.5115 C.ar    1  UNL1       -0.0230
     20 C          -5.2111   -1.3264    2.9447 C.ar    1  UNL1        0.1584
     21 F          -5.7710   -1.9283    4.0118 F       1  UNL1       -0.2025
     22 C          -4.1425   -1.8845    2.2542 C.ar    1  UNL1        0.1590
     23 F          -3.6632   -3.0842    2.6932 F       1  UNL1       -0.2025
     24 C          -3.6045   -1.2336    1.1716 C.ar    1  UNL1       -0.0144
     25 N          -2.4370    0.0452   -1.0721 N.ar    1  UNL1       -0.1632
     26 N          -1.8307    0.5735   -2.1302 N.ar    1  UNL1       -0.1930
     27 C           2.4965    0.3385   -2.6728 C.ar    1  UNL1       -0.0012
     28 C           3.7170    0.9783   -2.5327 C.ar    1  UNL1        0.0317
     29 N           4.4163    0.9089   -1.3733 N.ar    1  UNL1       -0.2546
     30 C           3.9513    0.2174   -0.3181 C.ar    1  UNL1        0.0779
     31 C           4.7186    0.1811    0.8540 C.ar    1  UNL1        0.0061
     32 H           6.9460   -0.3541    2.5392 H       1  UNL1        0.0660
     33 H           6.1945    1.1529    3.1198 H       1  UNL1        0.0660
     34 H           6.5704   -0.1103    4.3348 H       1  UNL1        0.0660
     35 H           2.7063   -1.7156    2.7088 H       1  UNL1        0.0654
     36 H           1.3578   -1.6356    0.6087 H       1  UNL1        0.0626
     37 H           0.2691   -1.5540   -3.5564 H       1  UNL1        0.0780
     38 H          -0.9304   -1.8875   -2.2960 H       1  UNL1        0.0780
     39 H          -3.5902    3.3470   -2.4557 H       1  UNL1        0.0656
     40 H          -4.7312    2.3615   -0.4714 H       1  UNL1        0.0641
     41 H          -5.5692    1.4690    1.1192 H       1  UNL1        0.0625
     42 H          -6.5416    0.3669    3.0171 H       1  UNL1        0.0647
     43 H          -2.7660   -1.7190    0.6673 H       1  UNL1        0.0654
     44 H           1.9745    0.3916   -3.6062 H       1  UNL1        0.0669
     45 H           4.0890    1.5386   -3.3945 H       1  UNL1        0.0831
     46 H           5.6626    0.6908    0.9245 H       1  UNL1        0.0676
@<TRIPOS>BOND
     1     1     2    1
     2     2     3    1
     3     3     4   ar
     4     4     5   ar
     5     5     6   ar
     6     6     7   ar
     7     7     8    1
     8     8     9    1
     9     9    10    1
    10    10    11   ar
    11    11    12   ar
    12    12    13   ar
    13    13    14   ar
    14    14    15   ar
    15    15    16   ar
    16    16    17    1
    17    17    18   ar
    18    18    19   ar
    19    19    20   ar
    20    20    21    1
    21    20    22   ar
    22    22    23    1
    23    22    24   ar
    24    16    25   ar
    25    25    26   ar
    26     7    27   ar
    27    27    28   ar
    28    28    29   ar
    29    29    30   ar
    30    30    31   ar
    31    31     3   ar
    32    30     6   ar
    33    26    10   ar
    34    26    13   ar
    35    24    17   ar
    36     1    32    1
    37     1    33    1
    38     1    34    1
    39     4    35    1
    40     5    36    1
    41     9    37    1
    42     9    38    1
    43    14    39    1
    44    15    40    1
    45    18    41    1
    46    19    42    1
    47    24    43    1
    48    27    44    1
    49    28    45    1
    50    31    46    1
