
     RDKit          3D

 73 77  0  0  0  0  0  0  0  0999 V2000
    4.6557    3.0123   -2.8999 C   0  0  0  0  0  0  0  0  0  0  0  0
    5.1704    2.0433   -1.8421 C   0  0  0  0  0  0  0  0  0  0  0  0
    4.2250    1.8940   -0.7272 C   0  0  1  0  0  0  0  0  0  0  0  0
    2.9124    1.3750   -1.2118 C   0  0  0  0  0  0  0  0  0  0  0  0
    2.6147    1.5455   -2.4066 O   0  0  0  0  0  0  0  0  0  0  0  0
    2.0027    0.7036   -0.3625 N   0  0  0  0  0  0  0  0  0  0  0  0
    0.7461    0.1660   -0.7094 C   0  0  0  0  0  0  0  0  0  0  0  0
    0.1894    0.1877   -1.9529 C   0  0  0  0  0  0  0  0  0  0  0  0
   -1.0759   -0.3878   -2.1569 C   0  0  0  0  0  0  0  0  0  0  0  0
   -1.7984   -0.9822   -1.1580 C   0  0  0  0  0  0  0  0  0  0  0  0
   -1.2031   -0.9900    0.1065 C   0  0  0  0  0  0  0  0  0  0  0  0
   -1.6999   -1.5181    1.2998 C   0  0  0  0  0  0  0  0  0  0  0  0
   -2.9790   -2.1971    1.4873 C   0  0  0  0  0  0  0  0  0  0  0  0
   -4.1247   -1.6311    1.0879 N   0  0  0  0  0  0  0  0  0  0  0  0
   -5.3238   -2.2103    1.2409 C   0  0  0  0  0  0  0  0  0  0  0  0
   -6.5554   -1.6477    0.8323 N   0  0  0  0  0  0  0  0  0  0  0  0
   -6.6433   -0.3934    0.1919 C   0  0  0  0  0  0  0  0  0  0  0  0
   -5.6654    0.4904   -0.1647 C   0  0  0  0  0  0  0  0  0  0  0  0
   -6.2256    1.5780   -0.7691 N   0  0  0  0  0  0  0  0  0  0  0  0
   -5.4762    2.6998   -1.2688 C   0  0  0  0  0  0  0  0  0  0  0  0
   -7.5241    1.3828   -0.7920 N   0  0  0  0  0  0  0  0  0  0  0  0
   -7.8350    0.2097   -0.2259 C   0  0  0  0  0  0  0  0  0  0  0  0
   -9.0785   -0.3318   -0.0673 O   0  0  0  0  0  0  0  0  0  0  0  0
  -10.2735    0.2607   -0.4820 C   0  0  0  0  0  0  0  0  0  0  0  0
   -5.3062   -3.4363    1.8404 N   0  0  0  0  0  0  0  0  0  0  0  0
   -4.1936   -4.0451    2.2570 C   0  0  0  0  0  0  0  0  0  0  0  0
   -2.9704   -3.4348    2.0914 C   0  0  0  0  0  0  0  0  0  0  0  0
   -1.7466   -4.1094    2.5518 C   0  0  0  0  0  0  0  0  0  0  0  0
   -0.7254   -1.2609    2.2426 C   0  0  0  0  0  0  0  0  0  0  0  0
    0.2933   -0.6183    1.6514 N   0  0  0  0  0  0  0  0  0  0  0  0
    0.0312   -0.4346    0.3309 C   0  0  0  0  0  0  0  0  0  0  0  0
    4.5866    1.2804    0.4666 N   0  0  0  0  0  0  0  0  0  0  0  0
    5.4757    1.9454    1.3364 C   0  0  0  0  0  0  0  0  0  0  0  0
    6.8586    1.4437    1.2128 C   0  0  0  0  0  0  0  0  0  0  0  0
    7.0430    0.0376    1.1915 N   0  0  0  0  0  0  0  0  0  0  0  0
    8.3867   -0.2209    0.6560 C   0  0  0  0  0  0  0  0  0  0  0  0
    6.0833   -0.6987    0.4395 C   0  0  0  0  0  0  0  0  0  0  0  0
    4.6891   -0.1353    0.5058 C   0  0  0  0  0  0  0  0  0  0  0  0
    3.8340    3.6427   -2.4983 H   0  0  0  0  0  0  0  0  0  0  0  0
    4.2644    2.4545   -3.7740 H   0  0  0  0  0  0  0  0  0  0  0  0
    5.4875    3.6304   -3.2988 H   0  0  0  0  0  0  0  0  0  0  0  0
    6.1749    2.3702   -1.6006 H   0  0  0  0  0  0  0  0  0  0  0  0
    5.3084    1.0614   -2.3879 H   0  0  0  0  0  0  0  0  0  0  0  0
    3.9516    2.9818   -0.4315 H   0  0  0  0  0  0  0  0  0  0  0  0
    2.3532    0.6379    0.6536 H   0  0  0  0  0  0  0  0  0  0  0  0
    0.7009    0.6359   -2.7791 H   0  0  0  0  0  0  0  0  0  0  0  0
   -1.4796   -0.3479   -3.1573 H   0  0  0  0  0  0  0  0  0  0  0  0
   -2.7603   -1.4280   -1.2794 H   0  0  0  0  0  0  0  0  0  0  0  0
   -7.4388   -2.1846    1.0131 H   0  0  0  0  0  0  0  0  0  0  0  0
   -4.6113    0.3704   -0.0048 H   0  0  0  0  0  0  0  0  0  0  0  0
   -5.1191    2.4794   -2.3043 H   0  0  0  0  0  0  0  0  0  0  0  0
   -6.0756    3.6336   -1.2857 H   0  0  0  0  0  0  0  0  0  0  0  0
   -4.5650    2.8459   -0.6476 H   0  0  0  0  0  0  0  0  0  0  0  0
  -10.3865    1.2317    0.0663 H   0  0  0  0  0  0  0  0  0  0  0  0
  -11.1493   -0.3463   -0.1800 H   0  0  0  0  0  0  0  0  0  0  0  0
  -10.3220    0.4960   -1.5596 H   0  0  0  0  0  0  0  0  0  0  0  0
   -4.2105   -5.0248    2.7330 H   0  0  0  0  0  0  0  0  0  0  0  0
   -1.6451   -4.0747    3.6725 H   0  0  0  0  0  0  0  0  0  0  0  0
   -0.8466   -3.7174    2.0497 H   0  0  0  0  0  0  0  0  0  0  0  0
   -1.7738   -5.2099    2.3059 H   0  0  0  0  0  0  0  0  0  0  0  0
   -0.8073   -1.5505    3.2966 H   0  0  0  0  0  0  0  0  0  0  0  0
    1.1753   -0.2929    2.1112 H   0  0  0  0  0  0  0  0  0  0  0  0
    5.1257    1.8028    2.4071 H   0  0  0  0  0  0  0  0  0  0  0  0
    5.4811    3.0514    1.2004 H   0  0  0  0  0  0  0  0  0  0  0  0
    7.4062    1.8063    2.1475 H   0  0  0  0  0  0  0  0  0  0  0  0
    7.3926    1.8875    0.3455 H   0  0  0  0  0  0  0  0  0  0  0  0
    9.1679    0.1122    1.3481 H   0  0  0  0  0  0  0  0  0  0  0  0
    8.4876   -1.2715    0.3319 H   0  0  0  0  0  0  0  0  0  0  0  0
    8.4790    0.4052   -0.2673 H   0  0  0  0  0  0  0  0  0  0  0  0
    6.4609   -0.8205   -0.5963 H   0  0  0  0  0  0  0  0  0  0  0  0
    6.0495   -1.7337    0.8645 H   0  0  0  0  0  0  0  0  0  0  0  0
    4.2675   -0.4795    1.4725 H   0  0  0  0  0  0  0  0  0  0  0  0
    4.0823   -0.6271   -0.2838 H   0  0  0  0  0  0  0  0  0  0  0  0
  1  2  1  0
  2  3  1  0
  3  4  1  0
  4  5  2  0
  4  6  1  0
  6  7  1  0
  7  8  2  0
  8  9  1  0
  9 10  2  0
 10 11  1  0
 11 12  1  0
 12 13  1  0
 13 14  2  0
 14 15  1  0
 15 16  1  0
 16 17  1  0
 17 18  2  0
 18 19  1  0
 19 20  1  0
 19 21  1  0
 21 22  2  0
 22 23  1  0
 23 24  1  0
 15 25  2  0
 25 26  1  0
 26 27  2  0
 27 28  1  0
 12 29  2  0
 29 30  1  0
 30 31  1  0
  3 32  1  0
 32 33  1  0
 33 34  1  0
 34 35  1  0
 35 36  1  0
 35 37  1  0
 37 38  1  0
 31  7  1  0
 38 32  1  0
 31 11  2  0
 27 13  1  0
 22 17  1  0
  1 39  1  0
  1 40  1  0
  1 41  1  0
  2 42  1  0
  2 43  1  0
  3 44  1  1
  6 45  1  0
  8 46  1  0
  9 47  1  0
 10 48  1  0
 16 49  1  0
 18 50  1  0
 20 51  1  0
 20 52  1  0
 20 53  1  0
 24 54  1  0
 24 55  1  0
 24 56  1  0
 26 57  1  0
 28 58  1  0
 28 59  1  0
 28 60  1  0
 29 61  1  0
 30 62  1  0
 33 63  1  0
 33 64  1  0
 34 65  1  0
 34 66  1  0
 36 67  1  0
 36 68  1  0
 36 69  1  0
 37 70  1  0
 37 71  1  0
 38 72  1  0
 38 73  1  0
M  END
$$$$
