@<TRIPOS>MOLECULE
*****
 73 77 0 0 0
SMALL
GASTEIGER

@<TRIPOS>ATOM
      1 C           4.6557    3.0123   -2.8999 C.3     1  UNL1       -0.0634
      2 C           5.1704    2.0433   -1.8421 C.3     1  UNL1       -0.0317
      3 C           4.2250    1.8940   -0.7272 C.3     1  UNL1        0.0874
      4 C           2.9124    1.3750   -1.2118 C.2     1  UNL1        0.2345
      5 O           2.6147    1.5455   -2.4066 O.2     1  UNL1       -0.2737
      6 N           2.0027    0.7036   -0.3625 N.am    1  UNL1       -0.2825
      7 C           0.7461    0.1660   -0.7094 C.ar    1  UNL1        0.0576
      8 C           0.1894    0.1877   -1.9529 C.ar    1  UNL1       -0.0384
      9 C          -1.0759   -0.3878   -2.1569 C.ar    1  UNL1       -0.0593
     10 C          -1.7984   -0.9822   -1.1580 C.ar    1  UNL1       -0.0518
     11 C          -1.2031   -0.9900    0.1065 C.ar    1  UNL1        0.0107
     12 C          -1.6999   -1.5181    1.2998 C.ar    1  UNL1        0.0258
     13 C          -2.9790   -2.1971    1.4873 C.ar    1  UNL1        0.0809
     14 N          -4.1247   -1.6311    1.0879 N.ar    1  UNL1       -0.2139
     15 C          -5.3238   -2.2103    1.2409 C.ar    1  UNL1        0.2202
     16 N          -6.5554   -1.6477    0.8323 N.pl3   1  UNL1       -0.2782
     17 C          -6.6433   -0.3934    0.1919 C.ar    1  UNL1        0.1152
     18 C          -5.6654    0.4904   -0.1647 C.ar    1  UNL1        0.0503
     19 N          -6.2256    1.5780   -0.7691 N.ar    1  UNL1       -0.2692
     20 C          -5.4762    2.6998   -1.2688 C.3     1  UNL1        0.0304
     21 N          -7.5241    1.3828   -0.7920 N.ar    1  UNL1       -0.1317
     22 C          -7.8350    0.2097   -0.2259 C.ar    1  UNL1        0.2552
     23 O          -9.0785   -0.3318   -0.0673 O.3     1  UNL1       -0.4774
     24 C         -10.2735    0.2607   -0.4820 C.3     1  UNL1        0.0805
     25 N          -5.3062   -3.4363    1.8404 N.ar    1  UNL1       -0.2224
     26 C          -4.1936   -4.0451    2.2570 C.ar    1  UNL1        0.0361
     27 C          -2.9704   -3.4348    2.0914 C.ar    1  UNL1       -0.0062
     28 C          -1.7466   -4.1094    2.5518 C.3     1  UNL1       -0.0362
     29 C          -0.7254   -1.2609    2.2426 C.ar    1  UNL1        0.0120
     30 N           0.2933   -0.6183    1.6514 N.ar    1  UNL1       -0.3586
     31 C           0.0312   -0.4346    0.3309 C.ar    1  UNL1        0.0686
     32 N           4.5866    1.2804    0.4666 N.3     1  UNL1       -0.2891
     33 C           5.4757    1.9454    1.3364 C.3     1  UNL1        0.0124
     34 C           6.8586    1.4437    1.2128 C.3     1  UNL1        0.0114
     35 N           7.0430    0.0376    1.1915 N.3     1  UNL1       -0.3029
     36 C           8.3867   -0.2209    0.6560 C.3     1  UNL1       -0.0127
     37 C           6.0833   -0.6987    0.4395 C.3     1  UNL1        0.0114
     38 C           4.6891   -0.1353    0.5058 C.3     1  UNL1        0.0124
     39 H           3.8340    3.6427   -2.4983 H       1  UNL1        0.0230
     40 H           4.2644    2.4545   -3.7740 H       1  UNL1        0.0230
     41 H           5.4875    3.6304   -3.2988 H       1  UNL1        0.0230
     42 H           6.1749    2.3702   -1.6006 H       1  UNL1        0.0282
     43 H           5.3084    1.0614   -2.3879 H       1  UNL1        0.0282
     44 H           3.9516    2.9818   -0.4315 H       1  UNL1        0.0558
     45 H           2.3532    0.6379    0.6536 H       1  UNL1        0.1549
     46 H           0.7009    0.6359   -2.7791 H       1  UNL1        0.0637
     47 H          -1.4796   -0.3479   -3.1573 H       1  UNL1        0.0618
     48 H          -2.7603   -1.4280   -1.2794 H       1  UNL1        0.0624
     49 H          -7.4388   -2.1846    1.0131 H       1  UNL1        0.1552
     50 H          -4.6113    0.3704   -0.0048 H       1  UNL1        0.0846
     51 H          -5.1191    2.4794   -2.3043 H       1  UNL1        0.0473
     52 H          -6.0756    3.6336   -1.2857 H       1  UNL1        0.0473
     53 H          -4.5650    2.8459   -0.6476 H       1  UNL1        0.0473
     54 H         -10.3865    1.2317    0.0663 H       1  UNL1        0.0660
     55 H         -11.1493   -0.3463   -0.1800 H       1  UNL1        0.0660
     56 H         -10.3220    0.4960   -1.5596 H       1  UNL1        0.0660
     57 H          -4.2105   -5.0248    2.7330 H       1  UNL1        0.0834
     58 H          -1.6451   -4.0747    3.6725 H       1  UNL1        0.0279
     59 H          -0.8466   -3.7174    2.0497 H       1  UNL1        0.0279
     60 H          -1.7738   -5.2099    2.3059 H       1  UNL1        0.0279
     61 H          -0.8073   -1.5505    3.2966 H       1  UNL1        0.0814
     62 H           1.1753   -0.2929    2.1112 H       1  UNL1        0.1654
     63 H           5.1257    1.8028    2.4071 H       1  UNL1        0.0439
     64 H           5.4811    3.0514    1.2004 H       1  UNL1        0.0439
     65 H           7.4062    1.8063    2.1475 H       1  UNL1        0.0439
     66 H           7.3926    1.8875    0.3455 H       1  UNL1        0.0439
     67 H           9.1679    0.1122    1.3481 H       1  UNL1        0.0391
     68 H           8.4876   -1.2715    0.3319 H       1  UNL1        0.0391
     69 H           8.4790    0.4052   -0.2673 H       1  UNL1        0.0391
     70 H           6.4609   -0.8205   -0.5963 H       1  UNL1        0.0439
     71 H           6.0495   -1.7337    0.8645 H       1  UNL1        0.0439
     72 H           4.2675   -0.4795    1.4725 H       1  UNL1        0.0439
     73 H           4.0823   -0.6271   -0.2838 H       1  UNL1        0.0439
@<TRIPOS>BOND
     1     1     2    1
     2     2     3    1
     3     3     4    1
     4     4     5    2
     5     4     6   am
     6     6     7    1
     7     7     8   ar
     8     8     9   ar
     9     9    10   ar
    10    10    11   ar
    11    11    12   ar
    12    12    13    1
    13    13    14   ar
    14    14    15   ar
    15    15    16    1
    16    16    17    1
    17    17    18   ar
    18    18    19   ar
    19    19    20    1
    20    19    21   ar
    21    21    22   ar
    22    22    23    1
    23    23    24    1
    24    15    25   ar
    25    25    26   ar
    26    26    27   ar
    27    27    28    1
    28    12    29   ar
    29    29    30   ar
    30    30    31   ar
    31     3    32    1
    32    32    33    1
    33    33    34    1
    34    34    35    1
    35    35    36    1
    36    35    37    1
    37    37    38    1
    38    31     7   ar
    39    38    32    1
    40    31    11   ar
    41    27    13   ar
    42    22    17   ar
    43     1    39    1
    44     1    40    1
    45     1    41    1
    46     2    42    1
    47     2    43    1
    48     3    44    1
    49     6    45    1
    50     8    46    1
    51     9    47    1
    52    10    48    1
    53    16    49    1
    54    18    50    1
    55    20    51    1
    56    20    52    1
    57    20    53    1
    58    24    54    1
    59    24    55    1
    60    24    56    1
    61    26    57    1
    62    28    58    1
    63    28    59    1
    64    28    60    1
    65    29    61    1
    66    30    62    1
    67    33    63    1
    68    33    64    1
    69    34    65    1
    70    34    66    1
    71    36    67    1
    72    36    68    1
    73    36    69    1
    74    37    70    1
    75    37    71    1
    76    38    72    1
    77    38    73    1
