
     RDKit          3D

196196  0  0  0  0  0  0  0  0999 V2000
   -8.1481   -8.7258   -1.0781 C   0  0  0  0  0  0  0  0  0  0  0  0
   -6.8130   -8.0462   -1.1096 C   0  0  0  0  0  0  0  0  0  0  0  0
   -6.5443   -7.1523   -0.1561 C   0  0  0  0  0  0  0  0  0  0  0  0
   -5.2680   -6.4443   -0.1151 C   0  0  0  0  0  0  0  0  0  0  0  0
   -5.3774   -4.9334   -0.2300 C   0  0  1  0  0  0  0  0  0  0  0  0
   -6.2219   -4.4584    0.9351 C   0  0  0  0  0  0  0  0  0  0  0  0
   -3.9755   -4.3865   -0.1988 C   0  0  1  0  0  0  0  0  0  0  0  0
   -3.1701   -4.8383   -1.2000 O   0  0  0  0  0  0  0  0  0  0  0  0
   -3.9393   -2.8734    0.0145 C   0  0  1  0  0  0  0  0  0  0  0  0
   -2.6574   -2.3706    0.5704 C   0  0  0  0  0  0  0  0  0  0  0  0
   -2.2774   -1.2709   -0.0008 O   0  0  0  0  0  0  0  0  0  0  0  0
   -1.7254   -2.7057    1.5125 N   0  0  0  0  0  0  0  0  0  0  0  0
   -0.5510   -1.8892    1.7646 C   0  0  1  0  0  0  0  0  0  0  0  0
   -0.8187   -1.2425    3.1528 C   0  0  0  0  0  0  0  0  0  0  0  0
   -0.9807   -2.3026    4.1997 C   0  0  0  0  0  0  0  0  0  0  0  0
    0.6724   -2.6866    1.8132 C   0  0  0  0  0  0  0  0  0  0  0  0
    1.7353   -1.9068    2.1253 O   0  0  0  0  0  0  0  0  0  0  0  0
    1.3203   -3.8942    1.6898 N   0  0  0  0  0  0  0  0  0  0  0  0
    0.8656   -5.1499    1.2588 C   0  0  0  0  0  0  0  0  0  0  0  0
    2.8113   -3.9993    2.0080 C   0  0  0  0  0  0  0  0  0  0  0  0
    3.5483   -3.7333    0.7748 C   0  0  0  0  0  0  0  0  0  0  0  0
    2.7092   -3.5001   -0.2230 O   0  0  0  0  0  0  0  0  0  0  0  0
    4.7539   -3.6095    0.1666 N   0  0  0  0  0  0  0  0  0  0  0  0
    4.7009   -3.3840   -1.3299 C   0  0  0  0  0  0  0  0  0  0  0  0
    6.1046   -3.6444    0.5571 C   0  0  1  0  0  0  0  0  0  0  0  0
    6.6203   -4.9644   -0.0857 C   0  0  0  0  0  0  0  0  0  0  0  0
    5.7770   -6.1083    0.4811 C   0  0  0  0  0  0  0  0  0  0  0  0
    6.2494   -7.4200   -0.1235 C   0  0  0  0  0  0  0  0  0  0  0  0
    6.0200   -6.2177    1.9815 C   0  0  0  0  0  0  0  0  0  0  0  0
    6.8400   -2.4573    0.0694 C   0  0  0  0  0  0  0  0  0  0  0  0
    6.0404   -1.5835   -0.4621 O   0  0  0  0  0  0  0  0  0  0  0  0
    8.1212   -1.9624   -0.0090 N   0  0  0  0  0  0  0  0  0  0  0  0
    8.3163   -0.6419   -0.6763 C   0  0  1  0  0  0  0  0  0  0  0  0
    8.1661   -0.7873   -2.1439 C   0  0  0  0  0  0  0  0  0  0  0  0
    8.3901    0.4784   -2.9021 C   0  0  0  0  0  0  0  0  0  0  0  0
    9.3020   -1.7368   -2.5854 C   0  0  0  0  0  0  0  0  0  0  0  0
    7.5214    0.4520   -0.1231 C   0  0  0  0  0  0  0  0  0  0  0  0
    7.5360    1.4554   -0.9686 O   0  0  0  0  0  0  0  0  0  0  0  0
    6.7321    0.9652    0.8932 N   0  0  0  0  0  0  0  0  0  0  0  0
    6.3135    0.3676    2.0997 C   0  0  0  0  0  0  0  0  0  0  0  0
    6.2140    2.3674    0.8047 C   0  0  1  0  0  0  0  0  0  0  0  0
    7.1985    3.3854    1.2517 C   0  0  0  0  0  0  0  0  0  0  0  0
    8.4743    3.7188    0.6730 C   0  0  0  0  0  0  0  0  0  0  0  0
    8.5122    4.3352   -0.6812 C   0  0  0  0  0  0  0  0  0  0  0  0
    9.1195    4.7836    1.6196 C   0  0  0  0  0  0  0  0  0  0  0  0
    5.4883    2.7352   -0.3761 C   0  0  0  0  0  0  0  0  0  0  0  0
    5.6452    3.9870   -0.7500 O   0  0  0  0  0  0  0  0  0  0  0  0
    4.6090    2.1730   -1.3092 N   0  0  0  0  0  0  0  0  0  0  0  0
    4.1060    2.8071   -2.5214 C   0  0  1  0  0  0  0  0  0  0  0  0
    4.2757    1.8844   -3.7180 C   0  0  0  0  0  0  0  0  0  0  0  0
    2.7934    3.3975   -2.5299 C   0  0  0  0  0  0  0  0  0  0  0  0
    2.3930    3.6790   -3.7532 O   0  0  0  0  0  0  0  0  0  0  0  0
    1.7823    3.7883   -1.6644 N   0  0  0  0  0  0  0  0  0  0  0  0
    0.5172    4.3251   -2.2619 C   0  0  2  0  0  0  0  0  0  0  0  0
    0.9442    5.7907   -2.6255 C   0  0  0  0  0  0  0  0  0  0  0  0
   -0.5400    4.4633   -1.2659 C   0  0  0  0  0  0  0  0  0  0  0  0
   -0.0794    4.1107   -0.0700 O   0  0  0  0  0  0  0  0  0  0  0  0
   -1.8437    4.7985   -0.9653 N   0  0  0  0  0  0  0  0  0  0  0  0
   -2.8696    5.1899   -1.8407 C   0  0  0  0  0  0  0  0  0  0  0  0
   -2.3230    4.7887    0.4573 C   0  0  1  0  0  0  0  0  0  0  0  0
   -2.6977    6.2034    0.8752 C   0  0  0  0  0  0  0  0  0  0  0  0
   -1.5472    7.1789    0.7547 C   0  0  0  0  0  0  0  0  0  0  0  0
   -0.3641    6.8379    1.6071 C   0  0  0  0  0  0  0  0  0  0  0  0
   -2.0087    8.5869    1.1240 C   0  0  0  0  0  0  0  0  0  0  0  0
   -3.4538    3.8610    0.7355 C   0  0  0  0  0  0  0  0  0  0  0  0
   -3.1247    3.1079    1.7978 O   0  0  0  0  0  0  0  0  0  0  0  0
   -4.7017    3.3950    0.4394 N   0  0  0  0  0  0  0  0  0  0  0  0
   -5.6034    3.8316   -0.5497 C   0  0  0  0  0  0  0  0  0  0  0  0
   -5.2786    2.2246    1.2085 C   0  0  1  0  0  0  0  0  0  0  0  0
   -6.1030    2.8134    2.2943 C   0  0  0  0  0  0  0  0  0  0  0  0
   -7.2900    3.6468    2.0509 C   0  0  0  0  0  0  0  0  0  0  0  0
   -8.4522    2.9900    1.3780 C   0  0  0  0  0  0  0  0  0  0  0  0
   -7.8504    4.1884    3.3950 C   0  0  0  0  0  0  0  0  0  0  0  0
   -5.7827    1.1722    0.3814 C   0  0  0  0  0  0  0  0  0  0  0  0
   -5.2880    1.2992   -0.8502 O   0  0  0  0  0  0  0  0  0  0  0  0
   -6.5658    0.0306    0.2122 N   0  0  0  0  0  0  0  0  0  0  0  0
   -7.3593   -0.6402    1.1914 C   0  0  0  0  0  0  0  0  0  0  0  0
   -6.6449   -0.6544   -1.0880 C   0  0  1  0  0  0  0  0  0  0  0  0
   -7.4186   -0.1010   -2.1833 C   0  0  0  0  0  0  0  0  0  0  0  0
   -7.1594    1.2014   -2.8056 C   0  0  0  0  0  0  0  0  0  0  0  0
   -8.9124   -0.1675   -1.8153 C   0  0  0  0  0  0  0  0  0  0  0  0
   -5.3874   -1.3759   -1.4499 C   0  0  0  0  0  0  0  0  0  0  0  0
   -5.1412   -1.1663   -2.7611 O   0  0  0  0  0  0  0  0  0  0  0  0
   -4.3374   -2.1630   -1.1407 N   0  0  0  0  0  0  0  0  0  0  0  0
   -3.2749   -2.4009   -2.2127 C   0  0  0  0  0  0  0  0  0  0  0  0
   -8.6289   -8.6351   -2.0935 H   0  0  0  0  0  0  0  0  0  0  0  0
   -8.8341   -8.1616   -0.3991 H   0  0  0  0  0  0  0  0  0  0  0  0
   -8.0489   -9.7751   -0.7728 H   0  0  0  0  0  0  0  0  0  0  0  0
   -6.0674   -8.2404   -1.8557 H   0  0  0  0  0  0  0  0  0  0  0  0
   -7.2955   -6.9652    0.6045 H   0  0  0  0  0  0  0  0  0  0  0  0
   -4.6680   -6.7108    0.7823 H   0  0  0  0  0  0  0  0  0  0  0  0
   -4.6337   -6.7773   -0.9871 H   0  0  0  0  0  0  0  0  0  0  0  0
   -5.9400   -4.6324   -1.1373 H   0  0  0  0  0  0  0  0  0  0  0  0
   -6.5061   -3.3883    0.8606 H   0  0  0  0  0  0  0  0  0  0  0  0
   -7.2063   -5.0016    0.8560 H   0  0  0  0  0  0  0  0  0  0  0  0
   -5.7785   -4.6366    1.9124 H   0  0  0  0  0  0  0  0  0  0  0  0
   -3.5322   -4.7399    0.7421 H   0  0  0  0  0  0  0  0  0  0  0  0
   -2.7860   -5.7165   -0.9634 H   0  0  0  0  0  0  0  0  0  0  0  0
   -4.6419   -2.7817    0.8668 H   0  0  0  0  0  0  0  0  0  0  0  0
   -1.6531   -3.5054    2.1698 H   0  0  0  0  0  0  0  0  0  0  0  0
   -0.4748   -0.9898    1.1172 H   0  0  0  0  0  0  0  0  0  0  0  0
    0.1273   -0.6966    3.3828 H   0  0  0  0  0  0  0  0  0  0  0  0
   -1.6122   -0.5096    3.0828 H   0  0  0  0  0  0  0  0  0  0  0  0
   -2.0285   -2.6158    4.3506 H   0  0  0  0  0  0  0  0  0  0  0  0
   -0.3954   -3.1873    3.8664 H   0  0  0  0  0  0  0  0  0  0  0  0
   -0.5332   -1.9412    5.1433 H   0  0  0  0  0  0  0  0  0  0  0  0
    0.1539   -5.6523    1.9632 H   0  0  0  0  0  0  0  0  0  0  0  0
    0.4772   -5.1901    0.1875 H   0  0  0  0  0  0  0  0  0  0  0  0
    1.6876   -5.9304    1.1746 H   0  0  0  0  0  0  0  0  0  0  0  0
    2.9840   -5.0239    2.4499 H   0  0  0  0  0  0  0  0  0  0  0  0
    3.0979   -3.3347    2.7999 H   0  0  0  0  0  0  0  0  0  0  0  0
    4.1477   -4.2625   -1.7807 H   0  0  0  0  0  0  0  0  0  0  0  0
    4.1605   -2.4417   -1.5339 H   0  0  0  0  0  0  0  0  0  0  0  0
    5.6490   -3.3624   -1.8120 H   0  0  0  0  0  0  0  0  0  0  0  0
    6.3683   -3.7933    1.6082 H   0  0  0  0  0  0  0  0  0  0  0  0
    7.6362   -5.1459    0.3024 H   0  0  0  0  0  0  0  0  0  0  0  0
    6.6600   -4.9262   -1.1595 H   0  0  0  0  0  0  0  0  0  0  0  0
    4.6998   -5.9479    0.3452 H   0  0  0  0  0  0  0  0  0  0  0  0
    6.5581   -7.2146   -1.1534 H   0  0  0  0  0  0  0  0  0  0  0  0
    5.3958   -8.1170   -0.0489 H   0  0  0  0  0  0  0  0  0  0  0  0
    7.1030   -7.7965    0.4792 H   0  0  0  0  0  0  0  0  0  0  0  0
    7.0525   -5.9284    2.2575 H   0  0  0  0  0  0  0  0  0  0  0  0
    5.9058   -7.2814    2.2840 H   0  0  0  0  0  0  0  0  0  0  0  0
    5.2839   -5.6465    2.5797 H   0  0  0  0  0  0  0  0  0  0  0  0
    9.0195   -2.3081    0.2948 H   0  0  0  0  0  0  0  0  0  0  0  0
    9.4281   -0.4283   -0.5290 H   0  0  0  0  0  0  0  0  0  0  0  0
    7.2030   -1.2838   -2.4372 H   0  0  0  0  0  0  0  0  0  0  0  0
    9.1588    1.1186   -2.4308 H   0  0  0  0  0  0  0  0  0  0  0  0
    7.4856    1.0654   -3.1369 H   0  0  0  0  0  0  0  0  0  0  0  0
    8.8971    0.2158   -3.9103 H   0  0  0  0  0  0  0  0  0  0  0  0
   10.2095   -1.1559   -2.8165 H   0  0  0  0  0  0  0  0  0  0  0  0
    9.5271   -2.4847   -1.8230 H   0  0  0  0  0  0  0  0  0  0  0  0
    9.0068   -2.2682   -3.5141 H   0  0  0  0  0  0  0  0  0  0  0  0
    5.6589    1.0623    2.7316 H   0  0  0  0  0  0  0  0  0  0  0  0
    7.1499    0.2056    2.8519 H   0  0  0  0  0  0  0  0  0  0  0  0
    5.6530   -0.5253    2.0179 H   0  0  0  0  0  0  0  0  0  0  0  0
    5.4737    2.4005    1.7320 H   0  0  0  0  0  0  0  0  0  0  0  0
    7.3051    3.3111    2.4259 H   0  0  0  0  0  0  0  0  0  0  0  0
    6.6030    4.3996    1.2660 H   0  0  0  0  0  0  0  0  0  0  0  0
    9.2100    2.8535    0.6302 H   0  0  0  0  0  0  0  0  0  0  0  0
    9.5879    4.6812   -0.9201 H   0  0  0  0  0  0  0  0  0  0  0  0
    8.2261    3.7711   -1.5412 H   0  0  0  0  0  0  0  0  0  0  0  0
    7.9909    5.3559   -0.6524 H   0  0  0  0  0  0  0  0  0  0  0  0
    8.8672    4.5224    2.6638 H   0  0  0  0  0  0  0  0  0  0  0  0
    8.5843    5.7228    1.3774 H   0  0  0  0  0  0  0  0  0  0  0  0
   10.1899    4.8420    1.4224 H   0  0  0  0  0  0  0  0  0  0  0  0
    4.2030    1.2435   -1.2280 H   0  0  0  0  0  0  0  0  0  0  0  0
    4.8335    3.6590   -2.7225 H   0  0  0  0  0  0  0  0  0  0  0  0
    3.4702    2.0458   -4.4562 H   0  0  0  0  0  0  0  0  0  0  0  0
    4.1219    0.8443   -3.3069 H   0  0  0  0  0  0  0  0  0  0  0  0
    5.2371    1.9959   -4.2189 H   0  0  0  0  0  0  0  0  0  0  0  0
    1.7071    3.8001   -0.6722 H   0  0  0  0  0  0  0  0  0  0  0  0
    0.3316    3.8989   -3.2275 H   0  0  0  0  0  0  0  0  0  0  0  0
    1.9851    5.8193   -2.9432 H   0  0  0  0  0  0  0  0  0  0  0  0
    0.2165    6.2396   -3.3016 H   0  0  0  0  0  0  0  0  0  0  0  0
    0.8962    6.3330   -1.6605 H   0  0  0  0  0  0  0  0  0  0  0  0
   -3.7067    5.6430   -1.2177 H   0  0  0  0  0  0  0  0  0  0  0  0
   -2.6052    5.9882   -2.6077 H   0  0  0  0  0  0  0  0  0  0  0  0
   -3.3528    4.4187   -2.4497 H   0  0  0  0  0  0  0  0  0  0  0  0
   -1.5225    4.5332    1.1652 H   0  0  0  0  0  0  0  0  0  0  0  0
   -3.6518    6.5632    0.5295 H   0  0  0  0  0  0  0  0  0  0  0  0
   -2.8319    6.1183    2.0026 H   0  0  0  0  0  0  0  0  0  0  0  0
   -1.1640    7.1906   -0.3200 H   0  0  0  0  0  0  0  0  0  0  0  0
   -0.0276    7.7695    2.1363 H   0  0  0  0  0  0  0  0  0  0  0  0
   -0.5898    6.0290    2.3367 H   0  0  0  0  0  0  0  0  0  0  0  0
    0.5128    6.5654    0.9732 H   0  0  0  0  0  0  0  0  0  0  0  0
   -2.1564    9.1894    0.1965 H   0  0  0  0  0  0  0  0  0  0  0  0
   -2.9296    8.4649    1.7010 H   0  0  0  0  0  0  0  0  0  0  0  0
   -1.2287    9.0655    1.7097 H   0  0  0  0  0  0  0  0  0  0  0  0
   -5.8943    4.9285   -0.5218 H   0  0  0  0  0  0  0  0  0  0  0  0
   -6.6099    3.3656   -0.4894 H   0  0  0  0  0  0  0  0  0  0  0  0
   -5.2955    3.5399   -1.5970 H   0  0  0  0  0  0  0  0  0  0  0  0
   -4.4236    1.7596    1.8312 H   0  0  0  0  0  0  0  0  0  0  0  0
   -6.4133    1.9898    3.0358 H   0  0  0  0  0  0  0  0  0  0  0  0
   -5.4081    3.4466    2.9804 H   0  0  0  0  0  0  0  0  0  0  0  0
   -7.0540    4.6010    1.5043 H   0  0  0  0  0  0  0  0  0  0  0  0
   -8.9738    3.7380    0.7231 H   0  0  0  0  0  0  0  0  0  0  0  0
   -8.1306    2.1582    0.7610 H   0  0  0  0  0  0  0  0  0  0  0  0
   -9.1929    2.6510    2.1669 H   0  0  0  0  0  0  0  0  0  0  0  0
   -8.3506    3.4006    3.9588 H   0  0  0  0  0  0  0  0  0  0  0  0
   -8.6082    4.9400    3.1043 H   0  0  0  0  0  0  0  0  0  0  0  0
   -7.0551    4.7059    3.9582 H   0  0  0  0  0  0  0  0  0  0  0  0
   -7.9294   -1.5080    0.7565 H   0  0  0  0  0  0  0  0  0  0  0  0
   -6.7675   -1.1496    2.0056 H   0  0  0  0  0  0  0  0  0  0  0  0
   -8.2236   -0.0479    1.6096 H   0  0  0  0  0  0  0  0  0  0  0  0
   -7.3655   -1.5452   -0.7937 H   0  0  0  0  0  0  0  0  0  0  0  0
   -7.3517   -0.8687   -3.0174 H   0  0  0  0  0  0  0  0  0  0  0  0
   -6.1964    1.3328   -3.3373 H   0  0  0  0  0  0  0  0  0  0  0  0
   -7.4263    2.1084   -2.2566 H   0  0  0  0  0  0  0  0  0  0  0  0
   -7.9030    1.2508   -3.6985 H   0  0  0  0  0  0  0  0  0  0  0  0
   -9.5273    0.2425   -2.6358 H   0  0  0  0  0  0  0  0  0  0  0  0
   -9.1307    0.3838   -0.9027 H   0  0  0  0  0  0  0  0  0  0  0  0
   -9.1455   -1.2402   -1.7176 H   0  0  0  0  0  0  0  0  0  0  0  0
   -2.3610   -2.7447   -1.7333 H   0  0  0  0  0  0  0  0  0  0  0  0
   -3.0036   -1.4311   -2.6803 H   0  0  0  0  0  0  0  0  0  0  0  0
   -3.6948   -2.9958   -3.0150 H   0  0  0  0  0  0  0  0  0  0  0  0
  1  2  1  0
  2  3  2  0
  3  4  1  0
  4  5  1  0
  5  6  1  0
  5  7  1  0
  7  8  1  0
  7  9  1  0
  9 10  1  0
 10 11  2  0
 10 12  1  0
 12 13  1  0
 13 14  1  0
 14 15  1  0
 13 16  1  0
 16 17  2  0
 16 18  1  0
 18 19  1  0
 18 20  1  0
 20 21  1  0
 21 22  2  0
 21 23  1  0
 23 24  1  0
 23 25  1  0
 25 26  1  0
 26 27  1  0
 27 28  1  0
 27 29  1  0
 25 30  1  0
 30 31  2  0
 30 32  1  0
 32 33  1  0
 33 34  1  0
 34 35  1  0
 34 36  1  0
 33 37  1  0
 37 38  2  0
 37 39  1  0
 39 40  1  0
 39 41  1  0
 41 42  1  0
 42 43  1  0
 43 44  1  0
 43 45  1  0
 41 46  1  0
 46 47  2  0
 46 48  1  0
 48 49  1  0
 49 50  1  0
 49 51  1  0
 51 52  2  0
 51 53  1  0
 53 54  1  0
 54 55  1  0
 54 56  1  0
 56 57  2  0
 56 58  1  0
 58 59  1  0
 58 60  1  0
 60 61  1  0
 61 62  1  0
 62 63  1  0
 62 64  1  0
 60 65  1  0
 65 66  2  0
 65 67  1  0
 67 68  1  0
 67 69  1  0
 69 70  1  0
 70 71  1  0
 71 72  1  0
 71 73  1  0
 69 74  1  0
 74 75  2  0
 74 76  1  0
 76 77  1  0
 76 78  1  0
 78 79  1  0
 79 80  1  0
 79 81  1  0
 78 82  1  0
 82 83  2  0
 82 84  1  0
 84 85  1  0
 84  9  1  0
  1 86  1  0
  1 87  1  0
  1 88  1  0
  2 89  1  0
  3 90  1  0
  4 91  1  0
  4 92  1  0
  5 93  1  6
  6 94  1  0
  6 95  1  0
  6 96  1  0
  7 97  1  1
  8 98  1  0
  9 99  1  1
 12100  1  0
 13101  1  6
 14102  1  0
 14103  1  0
 15104  1  0
 15105  1  0
 15106  1  0
 19107  1  0
 19108  1  0
 19109  1  0
 20110  1  0
 20111  1  0
 24112  1  0
 24113  1  0
 24114  1  0
 25115  1  1
 26116  1  0
 26117  1  0
 27118  1  0
 28119  1  0
 28120  1  0
 28121  1  0
 29122  1  0
 29123  1  0
 29124  1  0
 32125  1  0
 33126  1  6
 34127  1  0
 35128  1  0
 35129  1  0
 35130  1  0
 36131  1  0
 36132  1  0
 36133  1  0
 40134  1  0
 40135  1  0
 40136  1  0
 41137  1  1
 42138  1  0
 42139  1  0
 43140  1  0
 44141  1  0
 44142  1  0
 44143  1  0
 45144  1  0
 45145  1  0
 45146  1  0
 48147  1  0
 49148  1  6
 50149  1  0
 50150  1  0
 50151  1  0
 53152  1  0
 54153  1  6
 55154  1  0
 55155  1  0
 55156  1  0
 59157  1  0
 59158  1  0
 59159  1  0
 60160  1  1
 61161  1  0
 61162  1  0
 62163  1  0
 63164  1  0
 63165  1  0
 63166  1  0
 64167  1  0
 64168  1  0
 64169  1  0
 68170  1  0
 68171  1  0
 68172  1  0
 69173  1  1
 70174  1  0
 70175  1  0
 71176  1  0
 72177  1  0
 72178  1  0
 72179  1  0
 73180  1  0
 73181  1  0
 73182  1  0
 77183  1  0
 77184  1  0
 77185  1  0
 78186  1  1
 79187  1  0
 80188  1  0
 80189  1  0
 80190  1  0
 81191  1  0
 81192  1  0
 81193  1  0
 85194  1  0
 85195  1  0
 85196  1  0
M  END
$$$$
