@<TRIPOS>MOLECULE
*****
 196 196 0 0 0
SMALL
GASTEIGER

@<TRIPOS>ATOM
      1 C          -8.1481   -8.7258   -1.0781 C.3     1  UNL1       -0.0468
      2 C          -6.8130   -8.0462   -1.1096 C.2     1  UNL1       -0.0910
      3 C          -6.5443   -7.1523   -0.1561 C.2     1  UNL1       -0.0879
      4 C          -5.2680   -6.4443   -0.1151 C.3     1  UNL1       -0.0298
      5 C          -5.3774   -4.9334   -0.2300 C.3     1  UNL1       -0.0122
      6 C          -6.2219   -4.4584    0.9351 C.3     1  UNL1       -0.0597
      7 C          -3.9755   -4.3865   -0.1988 C.3     1  UNL1        0.0850
      8 O          -3.1701   -4.8383   -1.2000 O.3     1  UNL1       -0.3892
      9 C          -3.9393   -2.8734    0.0145 C.3     1  UNL1        0.1279
     10 C          -2.6574   -2.3706    0.5704 C.2     1  UNL1        0.2367
     11 O          -2.2774   -1.2709   -0.0008 O.2     1  UNL1       -0.2737
     12 N          -1.7254   -2.7057    1.5125 N.am    1  UNL1       -0.3024
     13 C          -0.5510   -1.8892    1.7646 C.3     1  UNL1        0.0994
     14 C          -0.8187   -1.2425    3.1528 C.3     1  UNL1       -0.0288
     15 C          -0.9807   -2.3026    4.1997 C.3     1  UNL1       -0.0631
     16 C           0.6724   -2.6866    1.8132 C.2     1  UNL1        0.2361
     17 O           1.7353   -1.9068    2.1253 O.2     1  UNL1       -0.2736
     18 N           1.3203   -3.8942    1.6898 N.am    1  UNL1       -0.2942
     19 C           0.8656   -5.1499    1.2588 C.3     1  UNL1        0.0037
     20 C           2.8113   -3.9993    2.0080 C.3     1  UNL1        0.0909
     21 C           3.5483   -3.7333    0.7748 C.2     1  UNL1        0.2333
     22 O           2.7092   -3.5001   -0.2230 O.2     1  UNL1       -0.2739
     23 N           4.7539   -3.6095    0.1666 N.am    1  UNL1       -0.2917
     24 C           4.7009   -3.3840   -1.3299 C.3     1  UNL1        0.0040
     25 C           6.1046   -3.6444    0.5571 C.3     1  UNL1        0.1021
     26 C           6.6203   -4.9644   -0.0857 C.3     1  UNL1       -0.0234
     27 C           5.7770   -6.1083    0.4811 C.3     1  UNL1       -0.0446
     28 C           6.2494   -7.4200   -0.1235 C.3     1  UNL1       -0.0626
     29 C           6.0200   -6.2177    1.9815 C.3     1  UNL1       -0.0626
     30 C           6.8400   -2.4573    0.0694 C.2     1  UNL1        0.2342
     31 O           6.0404   -1.5835   -0.4621 O.2     1  UNL1       -0.2738
     32 N           8.1212   -1.9624   -0.0090 N.am    1  UNL1       -0.3022
     33 C           8.3163   -0.6419   -0.6763 C.3     1  UNL1        0.1019
     34 C           8.1661   -0.7873   -2.1439 C.3     1  UNL1       -0.0197
     35 C           8.3901    0.4784   -2.9021 C.3     1  UNL1       -0.0605
     36 C           9.3020   -1.7368   -2.5854 C.3     1  UNL1       -0.0605
     37 C           7.5214    0.4520   -0.1231 C.2     1  UNL1        0.2365
     38 O           7.5360    1.4554   -0.9686 O.2     1  UNL1       -0.2735
     39 N           6.7321    0.9652    0.8932 N.am    1  UNL1       -0.2914
     40 C           6.3135    0.3676    2.0997 C.3     1  UNL1        0.0040
     41 C           6.2140    2.3674    0.8047 C.3     1  UNL1        0.1021
     42 C           7.1985    3.3854    1.2517 C.3     1  UNL1       -0.0234
     43 C           8.4743    3.7188    0.6730 C.3     1  UNL1       -0.0446
     44 C           8.5122    4.3352   -0.6812 C.3     1  UNL1       -0.0626
     45 C           9.1195    4.7836    1.6196 C.3     1  UNL1       -0.0626
     46 C           5.4883    2.7352   -0.3761 C.2     1  UNL1        0.2341
     47 O           5.6452    3.9870   -0.7500 O.2     1  UNL1       -0.2738
     48 N           4.6090    2.1730   -1.3092 N.am    1  UNL1       -0.3027
     49 C           4.1060    2.8071   -2.5214 C.3     1  UNL1        0.0966
     50 C           4.2757    1.8844   -3.7180 C.3     1  UNL1       -0.0381
     51 C           2.7934    3.3975   -2.5299 C.2     1  UNL1        0.2337
     52 O           2.3930    3.6790   -3.7532 O.2     1  UNL1       -0.2738
     53 N           1.7823    3.7883   -1.6644 N.am    1  UNL1       -0.3027
     54 C           0.5172    4.3251   -2.2619 C.3     1  UNL1        0.0968
     55 C           0.9442    5.7907   -2.6255 C.3     1  UNL1       -0.0381
     56 C          -0.5400    4.4633   -1.2659 C.2     1  UNL1        0.2360
     57 O          -0.0794    4.1107   -0.0700 O.2     1  UNL1       -0.2736
     58 N          -1.8437    4.7985   -0.9653 N.am    1  UNL1       -0.2914
     59 C          -2.8696    5.1899   -1.8407 C.3     1  UNL1        0.0040
     60 C          -2.3230    4.7887    0.4573 C.3     1  UNL1        0.1023
     61 C          -2.6977    6.2034    0.8752 C.3     1  UNL1       -0.0234
     62 C          -1.5472    7.1789    0.7547 C.3     1  UNL1       -0.0446
     63 C          -0.3641    6.8379    1.6071 C.3     1  UNL1       -0.0626
     64 C          -2.0087    8.5869    1.1240 C.3     1  UNL1       -0.0626
     65 C          -3.4538    3.8610    0.7355 C.2     1  UNL1        0.2365
     66 O          -3.1247    3.1079    1.7978 O.2     1  UNL1       -0.2735
     67 N          -4.7017    3.3950    0.4394 N.am    1  UNL1       -0.2914
     68 C          -5.6034    3.8316   -0.5497 C.3     1  UNL1        0.0040
     69 C          -5.2786    2.2246    1.2085 C.3     1  UNL1        0.1023
     70 C          -6.1030    2.8134    2.2943 C.3     1  UNL1       -0.0234
     71 C          -7.2900    3.6468    2.0509 C.3     1  UNL1       -0.0446
     72 C          -8.4522    2.9900    1.3780 C.3     1  UNL1       -0.0626
     73 C          -7.8504    4.1884    3.3950 C.3     1  UNL1       -0.0626
     74 C          -5.7827    1.1722    0.3814 C.2     1  UNL1        0.2365
     75 O          -5.2880    1.2992   -0.8502 O.2     1  UNL1       -0.2735
     76 N          -6.5658    0.0306    0.2122 N.am    1  UNL1       -0.2912
     77 C          -7.3593   -0.6402    1.1914 C.3     1  UNL1        0.0040
     78 C          -6.6449   -0.6544   -1.0880 C.3     1  UNL1        0.1044
     79 C          -7.4186   -0.1010   -2.1833 C.3     1  UNL1       -0.0195
     80 C          -7.1594    1.2014   -2.8056 C.3     1  UNL1       -0.0605
     81 C          -8.9124   -0.1675   -1.8153 C.3     1  UNL1       -0.0605
     82 C          -5.3874   -1.3759   -1.4499 C.2     1  UNL1        0.2368
     83 O          -5.1412   -1.1663   -2.7611 O.2     1  UNL1       -0.2735
     84 N          -4.3374   -2.1630   -1.1407 N.am    1  UNL1       -0.2890
     85 C          -3.2749   -2.4009   -2.2127 C.3     1  UNL1        0.0041
     86 H          -8.6289   -8.6351   -2.0935 H       1  UNL1        0.0272
     87 H          -8.8341   -8.1616   -0.3991 H       1  UNL1        0.0272
     88 H          -8.0489   -9.7751   -0.7728 H       1  UNL1        0.0272
     89 H          -6.0674   -8.2404   -1.8557 H       1  UNL1        0.0566
     90 H          -7.2955   -6.9652    0.6045 H       1  UNL1        0.0569
     91 H          -4.6680   -6.7108    0.7823 H       1  UNL1        0.0311
     92 H          -4.6337   -6.7773   -0.9871 H       1  UNL1        0.0311
     93 H          -5.9400   -4.6324   -1.1373 H       1  UNL1        0.0327
     94 H          -6.5061   -3.3883    0.8606 H       1  UNL1        0.0233
     95 H          -7.2063   -5.0016    0.8560 H       1  UNL1        0.0233
     96 H          -5.7785   -4.6366    1.9124 H       1  UNL1        0.0233
     97 H          -3.5322   -4.7399    0.7421 H       1  UNL1        0.0619
     98 H          -2.7860   -5.7165   -0.9634 H       1  UNL1        0.2099
     99 H          -4.6419   -2.7817    0.8668 H       1  UNL1        0.0623
    100 H          -1.6531   -3.5054    2.1698 H       1  UNL1        0.1495
    101 H          -0.4748   -0.9898    1.1172 H       1  UNL1        0.0594
    102 H           0.1273   -0.6966    3.3828 H       1  UNL1        0.0285
    103 H          -1.6122   -0.5096    3.0828 H       1  UNL1        0.0285
    104 H          -2.0285   -2.6158    4.3506 H       1  UNL1        0.0230
    105 H          -0.3954   -3.1873    3.8664 H       1  UNL1        0.0230
    106 H          -0.5332   -1.9412    5.1433 H       1  UNL1        0.0230
    107 H           0.1539   -5.6523    1.9632 H       1  UNL1        0.0429
    108 H           0.4772   -5.1901    0.1875 H       1  UNL1        0.0429
    109 H           1.6876   -5.9304    1.1746 H       1  UNL1        0.0429
    110 H           2.9840   -5.0239    2.4499 H       1  UNL1        0.0560
    111 H           3.0979   -3.3347    2.7999 H       1  UNL1        0.0560
    112 H           4.1477   -4.2625   -1.7807 H       1  UNL1        0.0429
    113 H           4.1605   -2.4417   -1.5339 H       1  UNL1        0.0429
    114 H           5.6490   -3.3624   -1.8120 H       1  UNL1        0.0429
    115 H           6.3683   -3.7933    1.6082 H       1  UNL1        0.0597
    116 H           7.6362   -5.1459    0.3024 H       1  UNL1        0.0290
    117 H           6.6600   -4.9262   -1.1595 H       1  UNL1        0.0290
    118 H           4.6998   -5.9479    0.3452 H       1  UNL1        0.0296
    119 H           6.5581   -7.2146   -1.1534 H       1  UNL1        0.0232
    120 H           5.3958   -8.1170   -0.0489 H       1  UNL1        0.0232
    121 H           7.1030   -7.7965    0.4792 H       1  UNL1        0.0232
    122 H           7.0525   -5.9284    2.2575 H       1  UNL1        0.0232
    123 H           5.9058   -7.2814    2.2840 H       1  UNL1        0.0232
    124 H           5.2839   -5.6465    2.5797 H       1  UNL1        0.0232
    125 H           9.0195   -2.3081    0.2948 H       1  UNL1        0.1495
    126 H           9.4281   -0.4283   -0.5290 H       1  UNL1        0.0597
    127 H           7.2030   -1.2838   -2.4372 H       1  UNL1        0.0318
    128 H           9.1588    1.1186   -2.4308 H       1  UNL1        0.0233
    129 H           7.4856    1.0654   -3.1369 H       1  UNL1        0.0233
    130 H           8.8971    0.2158   -3.9103 H       1  UNL1        0.0233
    131 H          10.2095   -1.1559   -2.8165 H       1  UNL1        0.0233
    132 H           9.5271   -2.4847   -1.8230 H       1  UNL1        0.0233
    133 H           9.0068   -2.2682   -3.5141 H       1  UNL1        0.0233
    134 H           5.6589    1.0623    2.7316 H       1  UNL1        0.0429
    135 H           7.1499    0.2056    2.8519 H       1  UNL1        0.0429
    136 H           5.6530   -0.5253    2.0179 H       1  UNL1        0.0429
    137 H           5.4737    2.4005    1.7320 H       1  UNL1        0.0597
    138 H           7.3051    3.3111    2.4259 H       1  UNL1        0.0290
    139 H           6.6030    4.3996    1.2660 H       1  UNL1        0.0290
    140 H           9.2100    2.8535    0.6302 H       1  UNL1        0.0296
    141 H           9.5879    4.6812   -0.9201 H       1  UNL1        0.0232
    142 H           8.2261    3.7711   -1.5412 H       1  UNL1        0.0232
    143 H           7.9909    5.3559   -0.6524 H       1  UNL1        0.0232
    144 H           8.8672    4.5224    2.6638 H       1  UNL1        0.0232
    145 H           8.5843    5.7228    1.3774 H       1  UNL1        0.0232
    146 H          10.1899    4.8420    1.4224 H       1  UNL1        0.0232
    147 H           4.2030    1.2435   -1.2280 H       1  UNL1        0.1495
    148 H           4.8335    3.6590   -2.7225 H       1  UNL1        0.0592
    149 H           3.4702    2.0458   -4.4562 H       1  UNL1        0.0252
    150 H           4.1219    0.8443   -3.3069 H       1  UNL1        0.0252
    151 H           5.2371    1.9959   -4.2189 H       1  UNL1        0.0252
    152 H           1.7071    3.8001   -0.6722 H       1  UNL1        0.1495
    153 H           0.3316    3.8989   -3.2275 H       1  UNL1        0.0592
    154 H           1.9851    5.8193   -2.9432 H       1  UNL1        0.0252
    155 H           0.2165    6.2396   -3.3016 H       1  UNL1        0.0252
    156 H           0.8962    6.3330   -1.6605 H       1  UNL1        0.0252
    157 H          -3.7067    5.6430   -1.2177 H       1  UNL1        0.0429
    158 H          -2.6052    5.9882   -2.6077 H       1  UNL1        0.0429
    159 H          -3.3528    4.4187   -2.4497 H       1  UNL1        0.0429
    160 H          -1.5225    4.5332    1.1652 H       1  UNL1        0.0597
    161 H          -3.6518    6.5632    0.5295 H       1  UNL1        0.0290
    162 H          -2.8319    6.1183    2.0026 H       1  UNL1        0.0290
    163 H          -1.1640    7.1906   -0.3200 H       1  UNL1        0.0296
    164 H          -0.0276    7.7695    2.1363 H       1  UNL1        0.0232
    165 H          -0.5898    6.0290    2.3367 H       1  UNL1        0.0232
    166 H           0.5128    6.5654    0.9732 H       1  UNL1        0.0232
    167 H          -2.1564    9.1894    0.1965 H       1  UNL1        0.0232
    168 H          -2.9296    8.4649    1.7010 H       1  UNL1        0.0232
    169 H          -1.2287    9.0655    1.7097 H       1  UNL1        0.0232
    170 H          -5.8943    4.9285   -0.5218 H       1  UNL1        0.0429
    171 H          -6.6099    3.3656   -0.4894 H       1  UNL1        0.0429
    172 H          -5.2955    3.5399   -1.5970 H       1  UNL1        0.0429
    173 H          -4.4236    1.7596    1.8312 H       1  UNL1        0.0597
    174 H          -6.4133    1.9898    3.0358 H       1  UNL1        0.0290
    175 H          -5.4081    3.4466    2.9804 H       1  UNL1        0.0290
    176 H          -7.0540    4.6010    1.5043 H       1  UNL1        0.0296
    177 H          -8.9738    3.7380    0.7231 H       1  UNL1        0.0232
    178 H          -8.1306    2.1582    0.7610 H       1  UNL1        0.0232
    179 H          -9.1929    2.6510    2.1669 H       1  UNL1        0.0232
    180 H          -8.3506    3.4006    3.9588 H       1  UNL1        0.0232
    181 H          -8.6082    4.9400    3.1043 H       1  UNL1        0.0232
    182 H          -7.0551    4.7059    3.9582 H       1  UNL1        0.0232
    183 H          -7.9294   -1.5080    0.7565 H       1  UNL1        0.0429
    184 H          -6.7675   -1.1496    2.0056 H       1  UNL1        0.0429
    185 H          -8.2236   -0.0479    1.6096 H       1  UNL1        0.0429
    186 H          -7.3655   -1.5452   -0.7937 H       1  UNL1        0.0599
    187 H          -7.3517   -0.8687   -3.0174 H       1  UNL1        0.0318
    188 H          -6.1964    1.3328   -3.3373 H       1  UNL1        0.0233
    189 H          -7.4263    2.1084   -2.2566 H       1  UNL1        0.0233
    190 H          -7.9030    1.2508   -3.6985 H       1  UNL1        0.0233
    191 H          -9.5273    0.2425   -2.6358 H       1  UNL1        0.0233
    192 H          -9.1307    0.3838   -0.9027 H       1  UNL1        0.0233
    193 H          -9.1455   -1.2402   -1.7176 H       1  UNL1        0.0233
    194 H          -2.3610   -2.7447   -1.7333 H       1  UNL1        0.0429
    195 H          -3.0036   -1.4311   -2.6803 H       1  UNL1        0.0429
    196 H          -3.6948   -2.9958   -3.0150 H       1  UNL1        0.0429
@<TRIPOS>BOND
     1     1     2    1
     2     2     3    2
     3     3     4    1
     4     4     5    1
     5     5     6    1
     6     5     7    1
     7     7     8    1
     8     7     9    1
     9     9    10    1
    10    10    11    2
    11    10    12   am
    12    12    13    1
    13    13    14    1
    14    14    15    1
    15    13    16    1
    16    16    17    2
    17    16    18   am
    18    18    19    1
    19    18    20    1
    20    20    21    1
    21    21    22    2
    22    21    23   am
    23    23    24    1
    24    23    25    1
    25    25    26    1
    26    26    27    1
    27    27    28    1
    28    27    29    1
    29    25    30    1
    30    30    31    2
    31    30    32   am
    32    32    33    1
    33    33    34    1
    34    34    35    1
    35    34    36    1
    36    33    37    1
    37    37    38    2
    38    37    39   am
    39    39    40    1
    40    39    41    1
    41    41    42    1
    42    42    43    1
    43    43    44    1
    44    43    45    1
    45    41    46    1
    46    46    47    2
    47    46    48   am
    48    48    49    1
    49    49    50    1
    50    49    51    1
    51    51    52    2
    52    51    53   am
    53    53    54    1
    54    54    55    1
    55    54    56    1
    56    56    57    2
    57    56    58   am
    58    58    59    1
    59    58    60    1
    60    60    61    1
    61    61    62    1
    62    62    63    1
    63    62    64    1
    64    60    65    1
    65    65    66    2
    66    65    67   am
    67    67    68    1
    68    67    69    1
    69    69    70    1
    70    70    71    1
    71    71    72    1
    72    71    73    1
    73    69    74    1
    74    74    75    2
    75    74    76   am
    76    76    77    1
    77    76    78    1
    78    78    79    1
    79    79    80    1
    80    79    81    1
    81    78    82    1
    82    82    83    2
    83    82    84   am
    84    84    85    1
    85    84     9    1
    86     1    86    1
    87     1    87    1
    88     1    88    1
    89     2    89    1
    90     3    90    1
    91     4    91    1
    92     4    92    1
    93     5    93    1
    94     6    94    1
    95     6    95    1
    96     6    96    1
    97     7    97    1
    98     8    98    1
    99     9    99    1
   100    12   100    1
   101    13   101    1
   102    14   102    1
   103    14   103    1
   104    15   104    1
   105    15   105    1
   106    15   106    1
   107    19   107    1
   108    19   108    1
   109    19   109    1
   110    20   110    1
   111    20   111    1
   112    24   112    1
   113    24   113    1
   114    24   114    1
   115    25   115    1
   116    26   116    1
   117    26   117    1
   118    27   118    1
   119    28   119    1
   120    28   120    1
   121    28   121    1
   122    29   122    1
   123    29   123    1
   124    29   124    1
   125    32   125    1
   126    33   126    1
   127    34   127    1
   128    35   128    1
   129    35   129    1
   130    35   130    1
   131    36   131    1
   132    36   132    1
   133    36   133    1
   134    40   134    1
   135    40   135    1
   136    40   136    1
   137    41   137    1
   138    42   138    1
   139    42   139    1
   140    43   140    1
   141    44   141    1
   142    44   142    1
   143    44   143    1
   144    45   144    1
   145    45   145    1
   146    45   146    1
   147    48   147    1
   148    49   148    1
   149    50   149    1
   150    50   150    1
   151    50   151    1
   152    53   152    1
   153    54   153    1
   154    55   154    1
   155    55   155    1
   156    55   156    1
   157    59   157    1
   158    59   158    1
   159    59   159    1
   160    60   160    1
   161    61   161    1
   162    61   162    1
   163    62   163    1
   164    63   164    1
   165    63   165    1
   166    63   166    1
   167    64   167    1
   168    64   168    1
   169    64   169    1
   170    68   170    1
   171    68   171    1
   172    68   172    1
   173    69   173    1
   174    70   174    1
   175    70   175    1
   176    71   176    1
   177    72   177    1
   178    72   178    1
   179    72   179    1
   180    73   180    1
   181    73   181    1
   182    73   182    1
   183    77   183    1
   184    77   184    1
   185    77   185    1
   186    78   186    1
   187    79   187    1
   188    80   188    1
   189    80   189    1
   190    80   190    1
   191    81   191    1
   192    81   192    1
   193    81   193    1
   194    85   194    1
   195    85   195    1
   196    85   196    1
