
     RDKit          3D

 47 49  0  0  0  0  0  0  0  0999 V2000
   -5.6993    1.7964    0.4551 C   0  0  0  0  0  0  0  0  0  0  0  0
   -6.3121    0.7198   -0.1497 C   0  0  0  0  0  0  0  0  0  0  0  0
   -5.5537   -0.3676   -0.4715 C   0  0  0  0  0  0  0  0  0  0  0  0
   -4.1827   -0.4158   -0.2049 C   0  0  0  0  0  0  0  0  0  0  0  0
   -3.5277   -1.5527   -0.5720 O   0  0  0  0  0  0  0  0  0  0  0  0
   -2.2049   -1.9300   -0.4390 C   0  0  0  0  0  0  0  0  0  0  0  0
   -1.7547   -2.0515    0.9991 C   0  0  0  0  0  0  0  0  0  0  0  0
   -0.3090   -2.4522    1.0969 C   0  0  0  0  0  0  0  0  0  0  0  0
    0.6383   -1.6064    0.5185 N   0  0  0  0  0  0  0  0  0  0  0  0
    0.8823   -0.3419    1.0582 C   0  0  0  0  0  0  0  0  0  0  0  0
    1.1802    0.6438   -0.0542 C   0  0  0  0  0  0  0  0  0  0  0  0
    2.1499    0.0352   -0.9948 C   0  0  0  0  0  0  0  0  0  0  0  0
    3.1046    0.9429   -1.6668 C   0  0  0  0  0  0  0  0  0  0  0  0
    4.0077    1.7231   -0.8285 C   0  0  0  0  0  0  0  0  0  0  0  0
    4.9360    2.5972   -1.3594 C   0  0  0  0  0  0  0  0  0  0  0  0
    5.5942    3.1431   -0.3424 N   0  0  0  0  0  0  0  0  0  0  0  0
    5.1223    2.6519    0.8123 C   0  0  0  0  0  0  0  0  0  0  0  0
    4.1407    1.7741    0.4981 N   0  0  0  0  0  0  0  0  0  0  0  0
    2.8152   -1.1810   -0.3677 C   0  0  0  0  0  0  0  0  0  0  0  0
    1.7155   -2.2039   -0.1721 C   0  0  0  0  0  0  0  0  0  0  0  0
   -3.6074    0.6674    0.3942 C   0  0  0  0  0  0  0  0  0  0  0  0
   -4.3501    1.7718    0.7271 C   0  0  0  0  0  0  0  0  0  0  0  0
   -6.2730    2.6881    0.7292 H   0  0  0  0  0  0  0  0  0  0  0  0
   -7.3939    0.7545   -0.3614 H   0  0  0  0  0  0  0  0  0  0  0  0
   -6.0458   -1.2144   -0.9479 H   0  0  0  0  0  0  0  0  0  0  0  0
   -1.5913   -1.1908   -1.0022 H   0  0  0  0  0  0  0  0  0  0  0  0
   -2.0115   -2.9004   -0.9538 H   0  0  0  0  0  0  0  0  0  0  0  0
   -2.0897   -1.2839    1.6786 H   0  0  0  0  0  0  0  0  0  0  0  0
   -2.3102   -2.9850    1.3605 H   0  0  0  0  0  0  0  0  0  0  0  0
   -0.2201   -3.4708    0.6608 H   0  0  0  0  0  0  0  0  0  0  0  0
   -0.0770   -2.5839    2.1896 H   0  0  0  0  0  0  0  0  0  0  0  0
    0.0425    0.1160    1.6139 H   0  0  0  0  0  0  0  0  0  0  0  0
    1.7535   -0.2887    1.7653 H   0  0  0  0  0  0  0  0  0  0  0  0
    0.2010    0.7966   -0.5971 H   0  0  0  0  0  0  0  0  0  0  0  0
    1.4630    1.6380    0.3483 H   0  0  0  0  0  0  0  0  0  0  0  0
    1.5231   -0.4346   -1.8320 H   0  0  0  0  0  0  0  0  0  0  0  0
    3.6326    0.3543   -2.4500 H   0  0  0  0  0  0  0  0  0  0  0  0
    2.4919    1.6893   -2.2574 H   0  0  0  0  0  0  0  0  0  0  0  0
    5.1130    2.8145   -2.4251 H   0  0  0  0  0  0  0  0  0  0  0  0
    5.4587    2.9043    1.8158 H   0  0  0  0  0  0  0  0  0  0  0  0
    3.6172    1.2580    1.2452 H   0  0  0  0  0  0  0  0  0  0  0  0
    3.2568   -0.9843    0.6254 H   0  0  0  0  0  0  0  0  0  0  0  0
    3.6054   -1.5887   -1.0595 H   0  0  0  0  0  0  0  0  0  0  0  0
    2.1541   -3.0986    0.3055 H   0  0  0  0  0  0  0  0  0  0  0  0
    1.3470   -2.4581   -1.2109 H   0  0  0  0  0  0  0  0  0  0  0  0
   -2.5453    0.6903    0.6093 H   0  0  0  0  0  0  0  0  0  0  0  0
   -3.8873    2.6523    1.2134 H   0  0  0  0  0  0  0  0  0  0  0  0
  1  2  2  0
  2  3  1  0
  3  4  2  0
  4  5  1  0
  5  6  1  0
  6  7  1  0
  7  8  1  0
  8  9  1  0
  9 10  1  0
 10 11  1  0
 11 12  1  0
 12 13  1  0
 13 14  1  0
 14 15  2  0
 15 16  1  0
 16 17  2  0
 17 18  1  0
 12 19  1  0
 19 20  1  0
  4 21  1  0
 21 22  2  0
 22  1  1  0
 20  9  1  0
 18 14  1  0
  1 23  1  0
  2 24  1  0
  3 25  1  0
  6 26  1  0
  6 27  1  0
  7 28  1  0
  7 29  1  0
  8 30  1  0
  8 31  1  0
 10 32  1  0
 10 33  1  0
 11 34  1  0
 11 35  1  0
 12 36  1  0
 13 37  1  0
 13 38  1  0
 15 39  1  0
 17 40  1  0
 18 41  1  0
 19 42  1  0
 19 43  1  0
 20 44  1  0
 20 45  1  0
 21 46  1  0
 22 47  1  0
M  END
$$$$
