@<TRIPOS>MOLECULE
*****
 47 49 0 0 0
SMALL
GASTEIGER

@<TRIPOS>ATOM
      1 C          -5.6993    1.7964    0.4551 C.ar    1  UNL1       -0.0615
      2 C          -6.3121    0.7198   -0.1497 C.ar    1  UNL1       -0.0583
      3 C          -5.5537   -0.3676   -0.4715 C.ar    1  UNL1       -0.0199
      4 C          -4.1827   -0.4158   -0.2049 C.ar    1  UNL1        0.1205
      5 O          -3.5277   -1.5527   -0.5720 O.3     1  UNL1       -0.4919
      6 C          -2.2049   -1.9300   -0.4390 C.3     1  UNL1        0.0907
      7 C          -1.7547   -2.0515    0.9991 C.3     1  UNL1       -0.0058
      8 C          -0.3090   -2.4522    1.0969 C.3     1  UNL1        0.0020
      9 N           0.6383   -1.6064    0.5185 N.3     1  UNL1       -0.3022
     10 C           0.8823   -0.3419    1.0582 C.3     1  UNL1       -0.0008
     11 C           1.1802    0.6438   -0.0542 C.3     1  UNL1       -0.0370
     12 C           2.1499    0.0352   -0.9948 C.3     1  UNL1       -0.0334
     13 C           3.1046    0.9429   -1.6668 C.3     1  UNL1       -0.0081
     14 C           4.0077    1.7231   -0.8285 C.ar    1  UNL1        0.0356
     15 C           4.9360    2.5972   -1.3594 C.ar    1  UNL1        0.0484
     16 N           5.5942    3.1431   -0.3424 N.ar    1  UNL1       -0.2440
     17 C           5.1223    2.6519    0.8123 C.ar    1  UNL1        0.0935
     18 N           4.1407    1.7741    0.4981 N.ar    1  UNL1       -0.3482
     19 C           2.8152   -1.1810   -0.3677 C.3     1  UNL1       -0.0370
     20 C           1.7155   -2.2039   -0.1721 C.3     1  UNL1       -0.0008
     21 C          -3.6074    0.6674    0.3942 C.ar    1  UNL1       -0.0199
     22 C          -4.3501    1.7718    0.7271 C.ar    1  UNL1       -0.0583
     23 H          -6.2730    2.6881    0.7292 H       1  UNL1        0.0618
     24 H          -7.3939    0.7545   -0.3614 H       1  UNL1        0.0619
     25 H          -6.0458   -1.2144   -0.9479 H       1  UNL1        0.0654
     26 H          -1.5913   -1.1908   -1.0022 H       1  UNL1        0.0697
     27 H          -2.0115   -2.9004   -0.9538 H       1  UNL1        0.0697
     28 H          -2.0897   -1.2839    1.6786 H       1  UNL1        0.0310
     29 H          -2.3102   -2.9850    1.3605 H       1  UNL1        0.0310
     30 H          -0.2201   -3.4708    0.6608 H       1  UNL1        0.0428
     31 H          -0.0770   -2.5839    2.1896 H       1  UNL1        0.0428
     32 H           0.0425    0.1160    1.6139 H       1  UNL1        0.0427
     33 H           1.7535   -0.2887    1.7653 H       1  UNL1        0.0427
     34 H           0.2010    0.7966   -0.5971 H       1  UNL1        0.0280
     35 H           1.4630    1.6380    0.3483 H       1  UNL1        0.0280
     36 H           1.5231   -0.4346   -1.8320 H       1  UNL1        0.0305
     37 H           3.6326    0.3543   -2.4500 H       1  UNL1        0.0331
     38 H           2.4919    1.6893   -2.2574 H       1  UNL1        0.0331
     39 H           5.1130    2.8145   -2.4251 H       1  UNL1        0.0848
     40 H           5.4587    2.9043    1.8158 H       1  UNL1        0.1027
     41 H           3.6172    1.2580    1.2452 H       1  UNL1        0.1665
     42 H           3.2568   -0.9843    0.6254 H       1  UNL1        0.0280
     43 H           3.6054   -1.5887   -1.0595 H       1  UNL1        0.0280
     44 H           2.1541   -3.0986    0.3055 H       1  UNL1        0.0427
     45 H           1.3470   -2.4581   -1.2109 H       1  UNL1        0.0427
     46 H          -2.5453    0.6903    0.6093 H       1  UNL1        0.0654
     47 H          -3.8873    2.6523    1.2134 H       1  UNL1        0.0619
@<TRIPOS>BOND
     1     1     2   ar
     2     2     3   ar
     3     3     4   ar
     4     4     5    1
     5     5     6    1
     6     6     7    1
     7     7     8    1
     8     8     9    1
     9     9    10    1
    10    10    11    1
    11    11    12    1
    12    12    13    1
    13    13    14    1
    14    14    15   ar
    15    15    16   ar
    16    16    17   ar
    17    17    18   ar
    18    12    19    1
    19    19    20    1
    20     4    21   ar
    21    21    22   ar
    22    22     1   ar
    23    20     9    1
    24    18    14   ar
    25     1    23    1
    26     2    24    1
    27     3    25    1
    28     6    26    1
    29     6    27    1
    30     7    28    1
    31     7    29    1
    32     8    30    1
    33     8    31    1
    34    10    32    1
    35    10    33    1
    36    11    34    1
    37    11    35    1
    38    12    36    1
    39    13    37    1
    40    13    38    1
    41    15    39    1
    42    17    40    1
    43    18    41    1
    44    19    42    1
    45    19    43    1
    46    20    44    1
    47    20    45    1
    48    21    46    1
    49    22    47    1
