@<TRIPOS>MOLECULE
*****
 66 69 0 0 0
SMALL
GASTEIGER

@<TRIPOS>ATOM
      1 C           4.3720   -3.7473    3.2843 C.3     1  UNL1        0.0003
      2 N           3.5162   -2.5966    3.3220 N.pl3   1  UNL1       -0.3164
      3 C           3.1892   -1.9460    2.0954 C.ar    1  UNL1        0.2208
      4 N           1.9302   -2.0273    1.6478 N.ar    1  UNL1       -0.1809
      5 C           1.5990   -1.4299    0.4831 C.ar    1  UNL1        0.2237
      6 N           0.2353   -1.5369    0.0611 N.pl3   1  UNL1       -0.2994
      7 C          -0.8052   -1.9315    0.9959 C.3     1  UNL1        0.0156
      8 C          -1.7449   -0.7237    1.0775 C.3     1  UNL1       -0.0260
      9 C          -2.2109   -0.4240   -0.3022 C.3     1  UNL1        0.0384
     10 C          -3.7077   -0.2990   -0.3062 C.2     1  UNL1        0.2165
     11 O          -4.2697   -0.2632    0.7998 O.2     1  UNL1       -0.2755
     12 N          -4.4298   -0.2253   -1.4952 N.am    1  UNL1       -0.3110
     13 C          -5.8430   -0.1141   -1.6469 C.3     1  UNL1        0.0374
     14 C          -6.4610    0.9864   -0.8800 C.ar    1  UNL1       -0.0187
     15 C          -6.1254    2.2654   -1.2592 C.ar    1  UNL1       -0.0565
     16 C          -6.5443    3.3436   -0.4897 C.ar    1  UNL1       -0.0614
     17 C          -7.2885    3.1554    0.6436 C.ar    1  UNL1       -0.0612
     18 C          -7.6209    1.8880    1.0121 C.ar    1  UNL1       -0.0498
     19 C          -7.2057    0.8020    0.2425 C.ar    1  UNL1        0.0595
     20 C          -7.7322   -0.5206    0.6357 C.3     1  UNL1        0.4177
     21 F          -8.5778   -1.0189   -0.3781 F       1  UNL1       -0.1659
     22 F          -8.5707   -0.4271    1.7429 F       1  UNL1       -0.1659
     23 F          -6.7726   -1.4162    0.9508 F       1  UNL1       -0.1659
     24 C          -1.6846   -1.3043   -1.3743 C.3     1  UNL1       -0.0260
     25 C          -0.1730   -1.2816   -1.2955 C.3     1  UNL1        0.0156
     26 N           2.5166   -0.7677   -0.2108 N.ar    1  UNL1       -0.1807
     27 C           3.7935   -0.6568    0.1935 C.ar    1  UNL1        0.2237
     28 N           4.8078    0.0427   -0.4963 N.pl3   1  UNL1       -0.2971
     29 C           6.1928   -0.1533   -0.0648 C.3     1  UNL1        0.0277
     30 C           6.6864    1.2724    0.1901 C.3     1  UNL1        0.0145
     31 N           6.7469    1.9361   -1.0594 N.3     1  UNL1       -0.3024
     32 C           7.2754    3.2788   -0.9873 C.3     1  UNL1       -0.0126
     33 C           5.7026    1.7644   -1.9841 C.3     1  UNL1        0.0145
     34 C           4.5287    0.9257   -1.5583 C.3     1  UNL1        0.0277
     35 N           4.0786   -1.2783    1.3780 N.ar    1  UNL1       -0.1809
     36 H           4.6026   -4.0882    4.3278 H       1  UNL1        0.0426
     37 H           5.3894   -3.4066    2.9060 H       1  UNL1        0.0426
     38 H           4.0284   -4.5646    2.6453 H       1  UNL1        0.0426
     39 H           3.1213   -2.2132    4.2006 H       1  UNL1        0.1486
     40 H          -1.3589   -2.7756    0.5684 H       1  UNL1        0.0465
     41 H          -0.4483   -2.2108    1.9833 H       1  UNL1        0.0465
     42 H          -1.1918    0.0901    1.5840 H       1  UNL1        0.0288
     43 H          -2.5759   -1.0510    1.7676 H       1  UNL1        0.0288
     44 H          -1.8368    0.6254   -0.5372 H       1  UNL1        0.0395
     45 H          -3.8703   -0.2512   -2.4062 H       1  UNL1        0.1490
     46 H          -6.0820   -0.0022   -2.7372 H       1  UNL1        0.0512
     47 H          -6.3237   -1.0984   -1.3631 H       1  UNL1        0.0512
     48 H          -5.5288    2.4251   -2.1695 H       1  UNL1        0.0621
     49 H          -6.2853    4.3465   -0.7639 H       1  UNL1        0.0618
     50 H          -7.6007    4.0343    1.2281 H       1  UNL1        0.0618
     51 H          -8.2178    1.7614    1.9225 H       1  UNL1        0.0623
     52 H          -2.0376   -2.3341   -1.3477 H       1  UNL1        0.0288
     53 H          -1.9643   -0.8728   -2.3710 H       1  UNL1        0.0288
     54 H           0.2751   -0.3550   -1.6862 H       1  UNL1        0.0465
     55 H           0.2031   -2.1370   -1.9163 H       1  UNL1        0.0465
     56 H           6.7199   -0.6424   -0.8813 H       1  UNL1        0.0477
     57 H           6.2624   -0.6834    0.8805 H       1  UNL1        0.0477
     58 H           5.9877    1.7379    0.9168 H       1  UNL1        0.0442
     59 H           7.7221    1.2073    0.6046 H       1  UNL1        0.0442
     60 H           8.0809    3.2531   -0.1986 H       1  UNL1        0.0391
     61 H           7.7356    3.5269   -1.9469 H       1  UNL1        0.0391
     62 H           6.5233    4.0260   -0.6712 H       1  UNL1        0.0391
     63 H           5.2996    2.7807   -2.2467 H       1  UNL1        0.0442
     64 H           6.1279    1.3970   -2.9640 H       1  UNL1        0.0442
     65 H           4.2182    0.3320   -2.4544 H       1  UNL1        0.0477
     66 H           3.6214    1.5713   -1.3626 H       1  UNL1        0.0477
@<TRIPOS>BOND
     1     1     2    1
     2     2     3    1
     3     3     4   ar
     4     4     5   ar
     5     5     6    1
     6     6     7    1
     7     7     8    1
     8     8     9    1
     9     9    10    1
    10    10    11    2
    11    10    12   am
    12    12    13    1
    13    13    14    1
    14    14    15   ar
    15    15    16   ar
    16    16    17   ar
    17    17    18   ar
    18    18    19   ar
    19    19    20    1
    20    20    21    1
    21    20    22    1
    22    20    23    1
    23     9    24    1
    24    24    25    1
    25     5    26   ar
    26    26    27   ar
    27    27    28    1
    28    28    29    1
    29    29    30    1
    30    30    31    1
    31    31    32    1
    32    31    33    1
    33    33    34    1
    34    27    35   ar
    35    35     3   ar
    36    25     6    1
    37    34    28    1
    38    19    14   ar
    39     1    36    1
    40     1    37    1
    41     1    38    1
    42     2    39    1
    43     7    40    1
    44     7    41    1
    45     8    42    1
    46     8    43    1
    47     9    44    1
    48    12    45    1
    49    13    46    1
    50    13    47    1
    51    15    48    1
    52    16    49    1
    53    17    50    1
    54    18    51    1
    55    24    52    1
    56    24    53    1
    57    25    54    1
    58    25    55    1
    59    29    56    1
    60    29    57    1
    61    30    58    1
    62    30    59    1
    63    32    60    1
    64    32    61    1
    65    32    62    1
    66    33    63    1
    67    33    64    1
    68    34    65    1
    69    34    66    1
