
     RDKit          3D

 66 69  0  0  0  0  0  0  0  0999 V2000
    4.3720   -3.7473    3.2843 C   0  0  0  0  0  0  0  0  0  0  0  0
    3.5162   -2.5966    3.3220 N   0  0  0  0  0  0  0  0  0  0  0  0
    3.1892   -1.9460    2.0954 C   0  0  0  0  0  0  0  0  0  0  0  0
    1.9302   -2.0273    1.6478 N   0  0  0  0  0  0  0  0  0  0  0  0
    1.5990   -1.4299    0.4831 C   0  0  0  0  0  0  0  0  0  0  0  0
    0.2353   -1.5369    0.0611 N   0  0  0  0  0  0  0  0  0  0  0  0
   -0.8052   -1.9315    0.9959 C   0  0  0  0  0  0  0  0  0  0  0  0
   -1.7449   -0.7237    1.0775 C   0  0  0  0  0  0  0  0  0  0  0  0
   -2.2109   -0.4240   -0.3022 C   0  0  0  0  0  0  0  0  0  0  0  0
   -3.7077   -0.2990   -0.3062 C   0  0  0  0  0  0  0  0  0  0  0  0
   -4.2697   -0.2632    0.7998 O   0  0  0  0  0  0  0  0  0  0  0  0
   -4.4298   -0.2253   -1.4952 N   0  0  0  0  0  0  0  0  0  0  0  0
   -5.8430   -0.1141   -1.6469 C   0  0  0  0  0  0  0  0  0  0  0  0
   -6.4610    0.9864   -0.8800 C   0  0  0  0  0  0  0  0  0  0  0  0
   -6.1254    2.2654   -1.2592 C   0  0  0  0  0  0  0  0  0  0  0  0
   -6.5443    3.3436   -0.4897 C   0  0  0  0  0  0  0  0  0  0  0  0
   -7.2885    3.1554    0.6436 C   0  0  0  0  0  0  0  0  0  0  0  0
   -7.6209    1.8880    1.0121 C   0  0  0  0  0  0  0  0  0  0  0  0
   -7.2057    0.8020    0.2425 C   0  0  0  0  0  0  0  0  0  0  0  0
   -7.7322   -0.5206    0.6357 C   0  0  0  0  0  0  0  0  0  0  0  0
   -8.5778   -1.0189   -0.3781 F   0  0  0  0  0  0  0  0  0  0  0  0
   -8.5707   -0.4271    1.7429 F   0  0  0  0  0  0  0  0  0  0  0  0
   -6.7726   -1.4162    0.9508 F   0  0  0  0  0  0  0  0  0  0  0  0
   -1.6846   -1.3043   -1.3743 C   0  0  0  0  0  0  0  0  0  0  0  0
   -0.1730   -1.2816   -1.2955 C   0  0  0  0  0  0  0  0  0  0  0  0
    2.5166   -0.7677   -0.2108 N   0  0  0  0  0  0  0  0  0  0  0  0
    3.7935   -0.6568    0.1935 C   0  0  0  0  0  0  0  0  0  0  0  0
    4.8078    0.0427   -0.4963 N   0  0  0  0  0  0  0  0  0  0  0  0
    6.1928   -0.1533   -0.0648 C   0  0  0  0  0  0  0  0  0  0  0  0
    6.6864    1.2724    0.1901 C   0  0  0  0  0  0  0  0  0  0  0  0
    6.7469    1.9361   -1.0594 N   0  0  0  0  0  0  0  0  0  0  0  0
    7.2754    3.2788   -0.9873 C   0  0  0  0  0  0  0  0  0  0  0  0
    5.7026    1.7644   -1.9841 C   0  0  0  0  0  0  0  0  0  0  0  0
    4.5287    0.9257   -1.5583 C   0  0  0  0  0  0  0  0  0  0  0  0
    4.0786   -1.2783    1.3780 N   0  0  0  0  0  0  0  0  0  0  0  0
    4.6026   -4.0882    4.3278 H   0  0  0  0  0  0  0  0  0  0  0  0
    5.3894   -3.4066    2.9060 H   0  0  0  0  0  0  0  0  0  0  0  0
    4.0284   -4.5646    2.6453 H   0  0  0  0  0  0  0  0  0  0  0  0
    3.1213   -2.2132    4.2006 H   0  0  0  0  0  0  0  0  0  0  0  0
   -1.3589   -2.7756    0.5684 H   0  0  0  0  0  0  0  0  0  0  0  0
   -0.4483   -2.2108    1.9833 H   0  0  0  0  0  0  0  0  0  0  0  0
   -1.1918    0.0901    1.5840 H   0  0  0  0  0  0  0  0  0  0  0  0
   -2.5759   -1.0510    1.7676 H   0  0  0  0  0  0  0  0  0  0  0  0
   -1.8368    0.6254   -0.5372 H   0  0  0  0  0  0  0  0  0  0  0  0
   -3.8703   -0.2512   -2.4062 H   0  0  0  0  0  0  0  0  0  0  0  0
   -6.0820   -0.0022   -2.7372 H   0  0  0  0  0  0  0  0  0  0  0  0
   -6.3237   -1.0984   -1.3631 H   0  0  0  0  0  0  0  0  0  0  0  0
   -5.5288    2.4251   -2.1695 H   0  0  0  0  0  0  0  0  0  0  0  0
   -6.2853    4.3465   -0.7639 H   0  0  0  0  0  0  0  0  0  0  0  0
   -7.6007    4.0343    1.2281 H   0  0  0  0  0  0  0  0  0  0  0  0
   -8.2178    1.7614    1.9225 H   0  0  0  0  0  0  0  0  0  0  0  0
   -2.0376   -2.3341   -1.3477 H   0  0  0  0  0  0  0  0  0  0  0  0
   -1.9643   -0.8728   -2.3710 H   0  0  0  0  0  0  0  0  0  0  0  0
    0.2751   -0.3550   -1.6862 H   0  0  0  0  0  0  0  0  0  0  0  0
    0.2031   -2.1370   -1.9163 H   0  0  0  0  0  0  0  0  0  0  0  0
    6.7199   -0.6424   -0.8813 H   0  0  0  0  0  0  0  0  0  0  0  0
    6.2624   -0.6834    0.8805 H   0  0  0  0  0  0  0  0  0  0  0  0
    5.9877    1.7379    0.9168 H   0  0  0  0  0  0  0  0  0  0  0  0
    7.7221    1.2073    0.6046 H   0  0  0  0  0  0  0  0  0  0  0  0
    8.0809    3.2531   -0.1986 H   0  0  0  0  0  0  0  0  0  0  0  0
    7.7356    3.5269   -1.9469 H   0  0  0  0  0  0  0  0  0  0  0  0
    6.5233    4.0260   -0.6712 H   0  0  0  0  0  0  0  0  0  0  0  0
    5.2996    2.7807   -2.2467 H   0  0  0  0  0  0  0  0  0  0  0  0
    6.1279    1.3970   -2.9640 H   0  0  0  0  0  0  0  0  0  0  0  0
    4.2182    0.3320   -2.4544 H   0  0  0  0  0  0  0  0  0  0  0  0
    3.6214    1.5713   -1.3626 H   0  0  0  0  0  0  0  0  0  0  0  0
  1  2  1  0
  2  3  1  0
  3  4  2  0
  4  5  1  0
  5  6  1  0
  6  7  1  0
  7  8  1  0
  8  9  1  0
  9 10  1  0
 10 11  2  0
 10 12  1  0
 12 13  1  0
 13 14  1  0
 14 15  2  0
 15 16  1  0
 16 17  2  0
 17 18  1  0
 18 19  2  0
 19 20  1  0
 20 21  1  0
 20 22  1  0
 20 23  1  0
  9 24  1  0
 24 25  1  0
  5 26  2  0
 26 27  1  0
 27 28  1  0
 28 29  1  0
 29 30  1  0
 30 31  1  0
 31 32  1  0
 31 33  1  0
 33 34  1  0
 27 35  2  0
 35  3  1  0
 25  6  1  0
 34 28  1  0
 19 14  1  0
  1 36  1  0
  1 37  1  0
  1 38  1  0
  2 39  1  0
  7 40  1  0
  7 41  1  0
  8 42  1  0
  8 43  1  0
  9 44  1  0
 12 45  1  0
 13 46  1  0
 13 47  1  0
 15 48  1  0
 16 49  1  0
 17 50  1  0
 18 51  1  0
 24 52  1  0
 24 53  1  0
 25 54  1  0
 25 55  1  0
 29 56  1  0
 29 57  1  0
 30 58  1  0
 30 59  1  0
 32 60  1  0
 32 61  1  0
 32 62  1  0
 33 63  1  0
 33 64  1  0
 34 65  1  0
 34 66  1  0
M  END
$$$$
