@<TRIPOS>MOLECULE
*****
 46 49 0 0 0
SMALL
GASTEIGER

@<TRIPOS>ATOM
      1 C           4.4565    3.0269   -3.3937 C.3     1  UNL1       -0.0046
      2 C           4.4727    1.6806   -2.8152 C.ar    1  UNL1        0.1280
      3 N           5.4532    0.7905   -2.9285 N.ar    1  UNL1       -0.1345
      4 N           5.0922   -0.2713   -2.2815 N.ar    1  UNL1       -0.1293
      5 C           3.8549   -0.1364   -1.7084 C.ar    1  UNL1        0.1642
      6 C           3.1579   -1.1588   -0.8630 C.ar    1  UNL1        0.0504
      7 C           3.8242   -2.3071   -0.5536 C.ar    1  UNL1       -0.0309
      8 C           5.2105   -2.6753   -1.0667 C.3     1  UNL1       -0.0385
      9 C           3.1853   -3.1869    0.2763 C.ar    1  UNL1       -0.0189
     10 S           1.6584   -2.4155    0.6232 S.2     1  UNL1       -0.0809
     11 C           1.9448   -0.9454   -0.3627 C.ar    1  UNL1        0.0827
     12 N           0.9537    0.0814   -0.4553 N.am    1  UNL1       -0.2781
     13 C          -0.2140    0.0126    0.3800 C.2     1  UNL1        0.2354
     14 O          -0.3218   -0.9458    1.1606 O.2     1  UNL1       -0.2737
     15 C          -1.2551    1.1003    0.2764 C.3     1  UNL1        0.0964
     16 N          -2.3348    0.8896    1.1607 N.am    1  UNL1       -0.2623
     17 C          -2.3111    1.4278    2.4802 C.2     1  UNL1        0.2205
     18 O          -1.2545    1.6126    3.0974 O.2     1  UNL1       -0.2752
     19 C          -3.6472    1.7697    3.1055 C.3     1  UNL1        0.0285
     20 C          -4.4389    0.4920    3.0768 C.3     1  UNL1       -0.0177
     21 C          -4.5197   -0.0453    1.7136 C.ar    1  UNL1       -0.0255
     22 C          -5.6753   -0.7647    1.3914 C.ar    1  UNL1       -0.0568
     23 C          -5.7836   -1.3022    0.1347 C.ar    1  UNL1       -0.0614
     24 C          -4.7709   -1.1294   -0.7771 C.ar    1  UNL1       -0.0600
     25 C          -3.6344   -0.4198   -0.4555 C.ar    1  UNL1       -0.0400
     26 C          -3.4928    0.1419    0.8180 C.ar    1  UNL1        0.0400
     27 N           3.4982    1.0892   -2.0592 N.ar    1  UNL1       -0.3253
     28 H           3.4506    3.2177   -3.8336 H       1  UNL1        0.0308
     29 H           5.1774    3.0782   -4.2349 H       1  UNL1        0.0308
     30 H           4.6333    3.8136   -2.6554 H       1  UNL1        0.0308
     31 H           5.3883   -3.7324   -0.8437 H       1  UNL1        0.0278
     32 H           5.1956   -2.6139   -2.1935 H       1  UNL1        0.0278
     33 H           5.9732   -2.0196   -0.6504 H       1  UNL1        0.0278
     34 H           3.5300   -4.1561    0.6530 H       1  UNL1        0.0697
     35 H           0.9707    0.8735   -1.0879 H       1  UNL1        0.1554
     36 H          -0.7291    2.0670    0.4870 H       1  UNL1        0.0564
     37 H          -1.5270    1.1628   -0.7936 H       1  UNL1        0.0564
     38 H          -3.4512    2.0561    4.1724 H       1  UNL1        0.0362
     39 H          -4.1695    2.5457    2.5439 H       1  UNL1        0.0362
     40 H          -5.4314    0.5991    3.5635 H       1  UNL1        0.0318
     41 H          -3.9083   -0.2927    3.6879 H       1  UNL1        0.0318
     42 H          -6.4760   -0.9043    2.1044 H       1  UNL1        0.0621
     43 H          -6.6877   -1.8558   -0.0936 H       1  UNL1        0.0618
     44 H          -4.8605   -1.5557   -1.7679 H       1  UNL1        0.0618
     45 H          -2.8343   -0.2869   -1.1765 H       1  UNL1        0.0636
     46 H           2.6474    1.5924   -1.8272 H       1  UNL1        0.1685
@<TRIPOS>BOND
     1     1     2    1
     2     2     3   ar
     3     3     4   ar
     4     4     5   ar
     5     5     6    1
     6     6     7   ar
     7     7     8    1
     8     7     9   ar
     9     9    10   ar
    10    10    11   ar
    11    11    12    1
    12    12    13   am
    13    13    14    2
    14    13    15    1
    15    15    16    1
    16    16    17   am
    17    17    18    2
    18    17    19    1
    19    19    20    1
    20    20    21    1
    21    21    22   ar
    22    22    23   ar
    23    23    24   ar
    24    24    25   ar
    25    25    26   ar
    26     5    27   ar
    27    27     2   ar
    28    11     6   ar
    29    26    16    1
    30    26    21   ar
    31     1    28    1
    32     1    29    1
    33     1    30    1
    34     8    31    1
    35     8    32    1
    36     8    33    1
    37     9    34    1
    38    12    35    1
    39    15    36    1
    40    15    37    1
    41    19    38    1
    42    19    39    1
    43    20    40    1
    44    20    41    1
    45    22    42    1
    46    23    43    1
    47    24    44    1
    48    25    45    1
    49    27    46    1
