
     RDKit          3D

 46 49  0  0  0  0  0  0  0  0999 V2000
    4.4565    3.0269   -3.3937 C   0  0  0  0  0  0  0  0  0  0  0  0
    4.4727    1.6806   -2.8152 C   0  0  0  0  0  0  0  0  0  0  0  0
    5.4532    0.7905   -2.9285 N   0  0  0  0  0  0  0  0  0  0  0  0
    5.0922   -0.2713   -2.2815 N   0  0  0  0  0  0  0  0  0  0  0  0
    3.8549   -0.1364   -1.7084 C   0  0  0  0  0  0  0  0  0  0  0  0
    3.1579   -1.1588   -0.8630 C   0  0  0  0  0  0  0  0  0  0  0  0
    3.8242   -2.3071   -0.5536 C   0  0  0  0  0  0  0  0  0  0  0  0
    5.2105   -2.6753   -1.0667 C   0  0  0  0  0  0  0  0  0  0  0  0
    3.1853   -3.1869    0.2763 C   0  0  0  0  0  0  0  0  0  0  0  0
    1.6584   -2.4155    0.6232 S   0  0  0  0  0  0  0  0  0  0  0  0
    1.9448   -0.9454   -0.3627 C   0  0  0  0  0  0  0  0  0  0  0  0
    0.9537    0.0814   -0.4553 N   0  0  0  0  0  0  0  0  0  0  0  0
   -0.2140    0.0126    0.3800 C   0  0  0  0  0  0  0  0  0  0  0  0
   -0.3218   -0.9458    1.1606 O   0  0  0  0  0  0  0  0  0  0  0  0
   -1.2551    1.1003    0.2764 C   0  0  0  0  0  0  0  0  0  0  0  0
   -2.3348    0.8896    1.1607 N   0  0  0  0  0  0  0  0  0  0  0  0
   -2.3111    1.4278    2.4802 C   0  0  0  0  0  0  0  0  0  0  0  0
   -1.2545    1.6126    3.0974 O   0  0  0  0  0  0  0  0  0  0  0  0
   -3.6472    1.7697    3.1055 C   0  0  0  0  0  0  0  0  0  0  0  0
   -4.4389    0.4920    3.0768 C   0  0  0  0  0  0  0  0  0  0  0  0
   -4.5197   -0.0453    1.7136 C   0  0  0  0  0  0  0  0  0  0  0  0
   -5.6753   -0.7647    1.3914 C   0  0  0  0  0  0  0  0  0  0  0  0
   -5.7836   -1.3022    0.1347 C   0  0  0  0  0  0  0  0  0  0  0  0
   -4.7709   -1.1294   -0.7771 C   0  0  0  0  0  0  0  0  0  0  0  0
   -3.6344   -0.4198   -0.4555 C   0  0  0  0  0  0  0  0  0  0  0  0
   -3.4928    0.1419    0.8180 C   0  0  0  0  0  0  0  0  0  0  0  0
    3.4982    1.0892   -2.0592 N   0  0  0  0  0  0  0  0  0  0  0  0
    3.4506    3.2177   -3.8336 H   0  0  0  0  0  0  0  0  0  0  0  0
    5.1774    3.0782   -4.2349 H   0  0  0  0  0  0  0  0  0  0  0  0
    4.6333    3.8136   -2.6554 H   0  0  0  0  0  0  0  0  0  0  0  0
    5.3883   -3.7324   -0.8437 H   0  0  0  0  0  0  0  0  0  0  0  0
    5.1956   -2.6139   -2.1935 H   0  0  0  0  0  0  0  0  0  0  0  0
    5.9732   -2.0196   -0.6504 H   0  0  0  0  0  0  0  0  0  0  0  0
    3.5300   -4.1561    0.6530 H   0  0  0  0  0  0  0  0  0  0  0  0
    0.9707    0.8735   -1.0879 H   0  0  0  0  0  0  0  0  0  0  0  0
   -0.7291    2.0670    0.4870 H   0  0  0  0  0  0  0  0  0  0  0  0
   -1.5270    1.1628   -0.7936 H   0  0  0  0  0  0  0  0  0  0  0  0
   -3.4512    2.0561    4.1724 H   0  0  0  0  0  0  0  0  0  0  0  0
   -4.1695    2.5457    2.5439 H   0  0  0  0  0  0  0  0  0  0  0  0
   -5.4314    0.5991    3.5635 H   0  0  0  0  0  0  0  0  0  0  0  0
   -3.9083   -0.2927    3.6879 H   0  0  0  0  0  0  0  0  0  0  0  0
   -6.4760   -0.9043    2.1044 H   0  0  0  0  0  0  0  0  0  0  0  0
   -6.6877   -1.8558   -0.0936 H   0  0  0  0  0  0  0  0  0  0  0  0
   -4.8605   -1.5557   -1.7679 H   0  0  0  0  0  0  0  0  0  0  0  0
   -2.8343   -0.2869   -1.1765 H   0  0  0  0  0  0  0  0  0  0  0  0
    2.6474    1.5924   -1.8272 H   0  0  0  0  0  0  0  0  0  0  0  0
  1  2  1  0
  2  3  2  0
  3  4  1  0
  4  5  2  0
  5  6  1  0
  6  7  1  0
  7  8  1  0
  7  9  2  0
  9 10  1  0
 10 11  1  0
 11 12  1  0
 12 13  1  0
 13 14  2  0
 13 15  1  0
 15 16  1  0
 16 17  1  0
 17 18  2  0
 17 19  1  0
 19 20  1  0
 20 21  1  0
 21 22  2  0
 22 23  1  0
 23 24  2  0
 24 25  1  0
 25 26  2  0
  5 27  1  0
 27  2  1  0
 11  6  2  0
 26 16  1  0
 26 21  1  0
  1 28  1  0
  1 29  1  0
  1 30  1  0
  8 31  1  0
  8 32  1  0
  8 33  1  0
  9 34  1  0
 12 35  1  0
 15 36  1  0
 15 37  1  0
 19 38  1  0
 19 39  1  0
 20 40  1  0
 20 41  1  0
 22 42  1  0
 23 43  1  0
 24 44  1  0
 25 45  1  0
 27 46  1  0
M  END
$$$$
