@<TRIPOS>MOLECULE
*****
 62 65 0 0 0
SMALL
GASTEIGER

@<TRIPOS>ATOM
      1 C          -2.9457   -2.4853   -2.6341 C.1     1  UNL1       -0.1179
      2 C          -2.3161   -1.5173   -2.6246 C.1     1  UNL1       -0.0900
      3 C          -1.4836   -0.2358   -2.6287 C.3     1  UNL1        0.0609
      4 N          -1.1582    0.1364   -1.2773 N.3     1  UNL1       -0.2858
      5 C          -0.5290   -0.9429   -0.6456 C.3     1  UNL1        0.0004
      6 C           0.2371   -0.7467    0.6061 C.3     1  UNL1       -0.0372
      7 C           1.4945    0.0455    0.5206 C.3     1  UNL1       -0.0376
      8 C           1.3747    1.4492    0.0115 C.3     1  UNL1       -0.0373
      9 C           2.7435    2.0764    0.3069 C.3     1  UNL1       -0.0005
     10 N           3.7664    1.4667   -0.4428 N.3     1  UNL1       -0.2981
     11 C           5.1143    1.7432   -0.1667 C.3     1  UNL1        0.0240
     12 C           5.5561    1.5008    1.1887 C.ar    1  UNL1       -0.0334
     13 C           6.1006    0.2778    1.6281 C.ar    1  UNL1       -0.0573
     14 C           6.5638    0.1427    2.9327 C.ar    1  UNL1       -0.0615
     15 C           6.5434    1.1350    3.8858 C.ar    1  UNL1       -0.0617
     16 C           5.9906    2.3570    3.4325 C.ar    1  UNL1       -0.0615
     17 C           5.5506    2.4867    2.2004 C.ar    1  UNL1       -0.0573
     18 C           3.4423    0.2153   -1.0434 C.3     1  UNL1       -0.0005
     19 C           2.5674   -0.6691   -0.2625 C.3     1  UNL1       -0.0373
     20 C          -2.1595    0.8862   -0.6561 C.3     1  UNL1        0.0421
     21 C          -3.4364    0.1255   -0.3994 C.ar    1  UNL1        0.0561
     22 C          -3.5989   -0.4992    0.8102 C.ar    1  UNL1       -0.0385
     23 C          -4.7336   -1.2362    0.9950 C.ar    1  UNL1       -0.0507
     24 C          -5.6739   -1.3399   -0.0109 C.ar    1  UNL1        0.0040
     25 C          -6.7898   -2.1217    0.2199 C.ar    1  UNL1       -0.0523
     26 C          -7.7231   -2.2483   -0.8245 C.ar    1  UNL1       -0.0576
     27 C          -7.5113   -1.6157   -1.9900 C.ar    1  UNL1       -0.0180
     28 C          -6.4092   -0.8093   -2.2959 C.ar    1  UNL1        0.1427
     29 O          -6.1972   -0.1643   -3.4878 O.3     1  UNL1       -0.5046
     30 C          -5.5013   -0.7112   -1.2212 C.ar    1  UNL1        0.1126
     31 N          -4.3714    0.0052   -1.3563 N.ar    1  UNL1       -0.2466
     32 H          -3.5290   -3.4041   -2.6528 H       1  UNL1        0.1228
     33 H          -2.2334    0.5198   -3.0582 H       1  UNL1        0.0563
     34 H          -0.6857   -0.3341   -3.3328 H       1  UNL1        0.0563
     35 H          -1.3408   -1.7483   -0.4161 H       1  UNL1        0.0427
     36 H           0.0952   -1.5034   -1.3870 H       1  UNL1        0.0427
     37 H           0.5229   -1.7584    1.0298 H       1  UNL1        0.0280
     38 H          -0.4099   -0.2511    1.3978 H       1  UNL1        0.0280
     39 H           1.9274    0.1797    1.5816 H       1  UNL1        0.0302
     40 H           0.6229    2.0218    0.5604 H       1  UNL1        0.0280
     41 H           1.1693    1.4936   -1.0760 H       1  UNL1        0.0280
     42 H           2.6594    3.1428    0.1204 H       1  UNL1        0.0427
     43 H           2.9322    1.8189    1.3963 H       1  UNL1        0.0427
     44 H           5.7352    1.1067   -0.8814 H       1  UNL1        0.0476
     45 H           5.3766    2.7946   -0.4995 H       1  UNL1        0.0476
     46 H           6.1548   -0.5414    0.9168 H       1  UNL1        0.0621
     47 H           6.9875   -0.8258    3.2342 H       1  UNL1        0.0618
     48 H           6.9252    1.0016    4.8767 H       1  UNL1        0.0618
     49 H           5.9727    3.1457    4.2081 H       1  UNL1        0.0618
     50 H           5.1129    3.4329    1.8204 H       1  UNL1        0.0621
     51 H           2.9856    0.4339   -2.0313 H       1  UNL1        0.0427
     52 H           4.4042   -0.3321   -1.2530 H       1  UNL1        0.0427
     53 H           2.0410   -1.4377   -0.8844 H       1  UNL1        0.0280
     54 H           3.2252   -1.2792    0.4377 H       1  UNL1        0.0280
     55 H          -1.9309    1.5159    0.2044 H       1  UNL1        0.0491
     56 H          -2.4893    1.6648   -1.4359 H       1  UNL1        0.0491
     57 H          -2.8466   -0.4012    1.6101 H       1  UNL1        0.0636
     58 H          -4.8877   -1.7463    1.9399 H       1  UNL1        0.0625
     59 H          -6.9463   -2.6245    1.1473 H       1  UNL1        0.0624
     60 H          -8.6051   -2.8615   -0.6835 H       1  UNL1        0.0619
     61 H          -8.2320   -1.7043   -2.8221 H       1  UNL1        0.0655
     62 H          -5.2208   -0.2262   -3.8350 H       1  UNL1        0.2922
@<TRIPOS>BOND
     1     1     2    3
     2     2     3    1
     3     3     4    1
     4     4     5    1
     5     5     6    1
     6     6     7    1
     7     7     8    1
     8     8     9    1
     9     9    10    1
    10    10    11    1
    11    11    12    1
    12    12    13   ar
    13    13    14   ar
    14    14    15   ar
    15    15    16   ar
    16    16    17   ar
    17    10    18    1
    18    18    19    1
    19     4    20    1
    20    20    21    1
    21    21    22   ar
    22    22    23   ar
    23    23    24   ar
    24    24    25   ar
    25    25    26   ar
    26    26    27   ar
    27    27    28   ar
    28    28    29    1
    29    28    30   ar
    30    30    31   ar
    31    19     7    1
    32    31    21   ar
    33    17    12   ar
    34    30    24   ar
    35     1    32    1
    36     3    33    1
    37     3    34    1
    38     5    35    1
    39     5    36    1
    40     6    37    1
    41     6    38    1
    42     7    39    1
    43     8    40    1
    44     8    41    1
    45     9    42    1
    46     9    43    1
    47    11    44    1
    48    11    45    1
    49    13    46    1
    50    14    47    1
    51    15    48    1
    52    16    49    1
    53    17    50    1
    54    18    51    1
    55    18    52    1
    56    19    53    1
    57    19    54    1
    58    20    55    1
    59    20    56    1
    60    22    57    1
    61    23    58    1
    62    25    59    1
    63    26    60    1
    64    27    61    1
    65    29    62    1
