
     RDKit          3D

 41 43  0  0  0  0  0  0  0  0999 V2000
   -4.1472   -0.8845    0.2066 C   0  0  1  0  0  0  0  0  0  0  0  0
   -4.2557   -2.1544    0.7216 O   0  0  0  0  0  0  0  0  0  0  0  0
   -4.9242    0.0674    1.1050 C   0  0  0  0  0  0  0  0  0  0  0  0
   -4.7521    1.4548    0.5686 C   0  0  0  0  0  0  0  0  0  0  0  0
   -3.3085    1.8643    0.6272 C   0  0  0  0  0  0  0  0  0  0  0  0
   -2.5474    0.9303   -0.1801 N   0  0  0  0  0  0  0  0  0  0  0  0
   -2.7210   -0.4291    0.2566 C   0  0  2  0  0  0  0  0  0  0  0  0
   -1.7490   -1.2983   -0.4744 C   0  0  0  0  0  0  0  0  0  0  0  0
   -0.3953   -0.6550   -0.2900 C   0  0  0  0  0  0  0  0  0  0  0  0
   -0.2691    0.3788    0.3587 O   0  0  0  0  0  0  0  0  0  0  0  0
    0.7095   -1.4105   -0.9701 C   0  0  0  0  0  0  0  0  0  0  0  0
    1.9638   -0.7376   -0.7495 N   0  0  0  0  0  0  0  0  0  0  0  0
    2.3063    0.2021   -1.6787 C   0  0  0  0  0  0  0  0  0  0  0  0
    3.4474    0.9127   -1.6069 N   0  0  0  0  0  0  0  0  0  0  0  0
    4.3409    0.7536   -0.6139 C   0  0  0  0  0  0  0  0  0  0  0  0
    3.9989   -0.2039    0.3391 C   0  0  0  0  0  0  0  0  0  0  0  0
    4.8723   -0.4231    1.3929 C   0  0  0  0  0  0  0  0  0  0  0  0
    6.0550    0.2930    1.4943 C   0  0  0  0  0  0  0  0  0  0  0  0
    7.1914    0.0594    2.7979 Cl  0  0  0  0  0  0  0  0  0  0  0  0
    6.3870    1.2426    0.5428 C   0  0  0  0  0  0  0  0  0  0  0  0
    7.9616    2.2987    0.5432 Br  0  0  0  0  0  0  0  0  0  0  0  0
    5.5193    1.4633   -0.5080 C   0  0  0  0  0  0  0  0  0  0  0  0
    2.8281   -0.9309    0.2625 C   0  0  0  0  0  0  0  0  0  0  0  0
    2.4955   -1.7946    1.1010 O   0  0  0  0  0  0  0  0  0  0  0  0
   -4.5816   -0.8421   -0.8123 H   0  0  0  0  0  0  0  0  0  0  0  0
   -3.8511   -2.8335    0.1160 H   0  0  0  0  0  0  0  0  0  0  0  0
   -6.0015   -0.1991    1.1499 H   0  0  0  0  0  0  0  0  0  0  0  0
   -4.4648   -0.0075    2.1234 H   0  0  0  0  0  0  0  0  0  0  0  0
   -5.0784    1.4653   -0.4897 H   0  0  0  0  0  0  0  0  0  0  0  0
   -5.3145    2.2032    1.1675 H   0  0  0  0  0  0  0  0  0  0  0  0
   -3.1365    2.8648    0.2102 H   0  0  0  0  0  0  0  0  0  0  0  0
   -2.9045    1.8134    1.6477 H   0  0  0  0  0  0  0  0  0  0  0  0
   -2.6982    1.0577   -1.2011 H   0  0  0  0  0  0  0  0  0  0  0  0
   -2.4232   -0.4570    1.3343 H   0  0  0  0  0  0  0  0  0  0  0  0
   -1.9547   -1.2192   -1.5799 H   0  0  0  0  0  0  0  0  0  0  0  0
   -1.7504   -2.3492   -0.1611 H   0  0  0  0  0  0  0  0  0  0  0  0
    0.4974   -1.4766   -2.0536 H   0  0  0  0  0  0  0  0  0  0  0  0
    0.7359   -2.4360   -0.5422 H   0  0  0  0  0  0  0  0  0  0  0  0
    1.6517    0.4083   -2.5234 H   0  0  0  0  0  0  0  0  0  0  0  0
    4.6274   -1.1631    2.1464 H   0  0  0  0  0  0  0  0  0  0  0  0
    5.6393    2.1714   -1.3295 H   0  0  0  0  0  0  0  0  0  0  0  0
  1  2  1  0
  1  3  1  0
  3  4  1  0
  4  5  1  0
  5  6  1  0
  6  7  1  0
  7  8  1  0
  8  9  1  0
  9 10  2  0
  9 11  1  0
 11 12  1  0
 12 13  1  0
 13 14  2  0
 14 15  1  0
 15 16  2  0
 16 17  1  0
 17 18  2  0
 18 19  1  0
 18 20  1  0
 20 21  1  0
 20 22  2  0
 16 23  1  0
 23 24  2  0
  7  1  1  0
 23 12  1  0
 22 15  1  0
  1 25  1  6
  2 26  1  0
  3 27  1  0
  3 28  1  0
  4 29  1  0
  4 30  1  0
  5 31  1  0
  5 32  1  0
  6 33  1  0
  7 34  1  1
  8 35  1  0
  8 36  1  0
 11 37  1  0
 11 38  1  0
 13 39  1  0
 17 40  1  0
 22 41  1  0
M  END
$$$$
