@<TRIPOS>MOLECULE
*****
 55 58 0 0 0
SMALL
GASTEIGER

@<TRIPOS>ATOM
      1 C           7.9406    1.1560    0.8609 C.3     1  UNL1       -0.0542
      2 C           7.3925    0.2315   -0.2449 C.3     1  UNL1        0.0325
      3 C           6.9862    1.0918   -1.4106 C.3     1  UNL1       -0.0542
      4 C           6.1866   -0.4803    0.2511 C.ar    1  UNL1        0.2313
      5 N           5.0184    0.1249    0.5006 N.ar    1  UNL1       -0.1781
      6 C           4.1338   -0.7835    0.9336 C.ar    1  UNL1        0.2581
      7 N           2.8038   -0.4727    1.2750 N.pl3   1  UNL1       -0.2939
      8 C           2.0060   -1.4247    2.0018 C.3     1  UNL1        0.0308
      9 C           0.7241   -1.6772    1.2368 C.3     1  UNL1        0.0310
     10 N           0.1166   -0.4546    0.7740 N.pl3   1  UNL1       -0.2939
     11 C          -1.2969   -0.2737    0.8617 C.ar    1  UNL1        0.2183
     12 N          -1.9687    0.4486   -0.0777 N.ar    1  UNL1       -0.2191
     13 C          -3.2877    0.6851   -0.0352 C.ar    1  UNL1        0.0743
     14 C          -4.0447    0.1687    1.0237 C.ar    1  UNL1        0.1571
     15 O          -5.3826    0.3719    1.1150 O.3     1  UNL1       -0.4843
     16 C          -6.3138    0.9935    0.3203 C.3     1  UNL1        0.1161
     17 C          -6.5052    0.3205   -1.0165 C.ar    1  UNL1        0.0099
     18 C          -6.0660    0.7589   -2.1943 C.ar    1  UNL1       -0.0360
     19 C          -6.2667    0.0507   -3.3777 C.ar    1  UNL1        0.0280
     20 N          -6.9459   -1.1038   -3.2420 N.ar    1  UNL1       -0.2620
     21 C          -7.4119   -1.5896   -2.0899 C.ar    1  UNL1        0.0453
     22 C          -7.2064   -0.8875   -0.9183 C.ar    1  UNL1        0.0762
     23 C          -7.7135   -1.3857    0.3395 C.1     1  UNL1        0.1011
     24 N          -8.0935   -1.7656    1.3255 N.1     1  UNL1       -0.1908
     25 C          -3.3503   -0.5665    1.9756 C.ar    1  UNL1        0.0743
     26 N          -2.0307   -0.7604    1.8666 N.ar    1  UNL1       -0.2191
     27 C           0.8773    0.6561    0.2394 C.3     1  UNL1        0.0392
     28 C           0.9511    0.6804   -1.2630 C.3     1  UNL1       -0.0449
     29 C           2.2182    0.7894    0.9045 C.3     1  UNL1        0.0334
     30 N           4.7939   -1.9662    0.9461 N.ar    1  UNL1       -0.0400
     31 O           6.0033   -1.7341    0.5326 O.2     1  UNL1       -0.3361
     32 H           8.3434    0.5329    1.6893 H       1  UNL1        0.0237
     33 H           8.6314    1.9084    0.4608 H       1  UNL1        0.0237
     34 H           7.0334    1.6603    1.2771 H       1  UNL1        0.0237
     35 H           8.1462   -0.5319   -0.4743 H       1  UNL1        0.0391
     36 H           6.7931    0.4255   -2.2691 H       1  UNL1        0.0237
     37 H           7.8270    1.7832   -1.6208 H       1  UNL1        0.0237
     38 H           6.0520    1.6271   -1.1139 H       1  UNL1        0.0237
     39 H           1.7735   -0.9820    3.0064 H       1  UNL1        0.0480
     40 H           2.5329   -2.4121    2.1062 H       1  UNL1        0.0480
     41 H           0.9820   -2.3834    0.4012 H       1  UNL1        0.0480
     42 H           0.0478   -2.2486    1.9067 H       1  UNL1        0.0480
     43 H          -3.7605    1.2663   -0.7786 H       1  UNL1        0.0869
     44 H          -6.1203    2.0904    0.1965 H       1  UNL1        0.0748
     45 H          -7.3198    0.9304    0.8257 H       1  UNL1        0.0748
     46 H          -5.5335    1.6886   -2.2800 H       1  UNL1        0.0637
     47 H          -5.8993    0.4131   -4.3113 H       1  UNL1        0.0829
     48 H          -7.9595   -2.5463   -2.0774 H       1  UNL1        0.0843
     49 H          -3.8832   -1.0025    2.8349 H       1  UNL1        0.0869
     50 H           0.3160    1.6070    0.5116 H       1  UNL1        0.0513
     51 H           1.3765    1.6738   -1.5519 H       1  UNL1        0.0248
     52 H          -0.0967    0.6864   -1.6884 H       1  UNL1        0.0248
     53 H           1.4819   -0.1575   -1.7232 H       1  UNL1        0.0248
     54 H           2.8777    1.4151    0.2871 H       1  UNL1        0.0483
     55 H           2.0902    1.3537    1.8747 H       1  UNL1        0.0483
@<TRIPOS>BOND
     1     1     2    1
     2     2     3    1
     3     2     4    1
     4     4     5   ar
     5     5     6   ar
     6     6     7    1
     7     7     8    1
     8     8     9    1
     9     9    10    1
    10    10    11    1
    11    11    12   ar
    12    12    13   ar
    13    13    14   ar
    14    14    15    1
    15    15    16    1
    16    16    17    1
    17    17    18   ar
    18    18    19   ar
    19    19    20   ar
    20    20    21   ar
    21    21    22   ar
    22    22    23    1
    23    23    24    3
    24    14    25   ar
    25    25    26   ar
    26    10    27    1
    27    27    28    1
    28    27    29    1
    29     6    30   ar
    30    30    31   ar
    31    31     4   ar
    32    29     7    1
    33    26    11   ar
    34    22    17   ar
    35     1    32    1
    36     1    33    1
    37     1    34    1
    38     2    35    1
    39     3    36    1
    40     3    37    1
    41     3    38    1
    42     8    39    1
    43     8    40    1
    44     9    41    1
    45     9    42    1
    46    13    43    1
    47    16    44    1
    48    16    45    1
    49    18    46    1
    50    19    47    1
    51    21    48    1
    52    25    49    1
    53    27    50    1
    54    28    51    1
    55    28    52    1
    56    28    53    1
    57    29    54    1
    58    29    55    1
