
     RDKit          3D

 55 58  0  0  0  0  0  0  0  0999 V2000
    7.9406    1.1560    0.8609 C   0  0  0  0  0  0  0  0  0  0  0  0
    7.3925    0.2315   -0.2449 C   0  0  0  0  0  0  0  0  0  0  0  0
    6.9862    1.0918   -1.4106 C   0  0  0  0  0  0  0  0  0  0  0  0
    6.1866   -0.4803    0.2511 C   0  0  0  0  0  0  0  0  0  0  0  0
    5.0184    0.1249    0.5006 N   0  0  0  0  0  0  0  0  0  0  0  0
    4.1338   -0.7835    0.9336 C   0  0  0  0  0  0  0  0  0  0  0  0
    2.8038   -0.4727    1.2750 N   0  0  0  0  0  0  0  0  0  0  0  0
    2.0060   -1.4247    2.0018 C   0  0  0  0  0  0  0  0  0  0  0  0
    0.7241   -1.6772    1.2368 C   0  0  0  0  0  0  0  0  0  0  0  0
    0.1166   -0.4546    0.7740 N   0  0  0  0  0  0  0  0  0  0  0  0
   -1.2969   -0.2737    0.8617 C   0  0  0  0  0  0  0  0  0  0  0  0
   -1.9687    0.4486   -0.0777 N   0  0  0  0  0  0  0  0  0  0  0  0
   -3.2877    0.6851   -0.0352 C   0  0  0  0  0  0  0  0  0  0  0  0
   -4.0447    0.1687    1.0237 C   0  0  0  0  0  0  0  0  0  0  0  0
   -5.3826    0.3719    1.1150 O   0  0  0  0  0  0  0  0  0  0  0  0
   -6.3138    0.9935    0.3203 C   0  0  0  0  0  0  0  0  0  0  0  0
   -6.5052    0.3205   -1.0165 C   0  0  0  0  0  0  0  0  0  0  0  0
   -6.0660    0.7589   -2.1943 C   0  0  0  0  0  0  0  0  0  0  0  0
   -6.2667    0.0507   -3.3777 C   0  0  0  0  0  0  0  0  0  0  0  0
   -6.9459   -1.1038   -3.2420 N   0  0  0  0  0  0  0  0  0  0  0  0
   -7.4119   -1.5896   -2.0899 C   0  0  0  0  0  0  0  0  0  0  0  0
   -7.2064   -0.8875   -0.9183 C   0  0  0  0  0  0  0  0  0  0  0  0
   -7.7135   -1.3857    0.3395 C   0  0  0  0  0  0  0  0  0  0  0  0
   -8.0935   -1.7656    1.3255 N   0  0  0  0  0  0  0  0  0  0  0  0
   -3.3503   -0.5665    1.9756 C   0  0  0  0  0  0  0  0  0  0  0  0
   -2.0307   -0.7604    1.8666 N   0  0  0  0  0  0  0  0  0  0  0  0
    0.8773    0.6561    0.2394 C   0  0  2  0  0  0  0  0  0  0  0  0
    0.9511    0.6804   -1.2630 C   0  0  0  0  0  0  0  0  0  0  0  0
    2.2182    0.7894    0.9045 C   0  0  0  0  0  0  0  0  0  0  0  0
    4.7939   -1.9662    0.9461 N   0  0  0  0  0  0  0  0  0  0  0  0
    6.0033   -1.7341    0.5326 O   0  0  0  0  0  0  0  0  0  0  0  0
    8.3434    0.5329    1.6893 H   0  0  0  0  0  0  0  0  0  0  0  0
    8.6314    1.9084    0.4608 H   0  0  0  0  0  0  0  0  0  0  0  0
    7.0334    1.6603    1.2771 H   0  0  0  0  0  0  0  0  0  0  0  0
    8.1462   -0.5319   -0.4743 H   0  0  0  0  0  0  0  0  0  0  0  0
    6.7931    0.4255   -2.2691 H   0  0  0  0  0  0  0  0  0  0  0  0
    7.8270    1.7832   -1.6208 H   0  0  0  0  0  0  0  0  0  0  0  0
    6.0520    1.6271   -1.1139 H   0  0  0  0  0  0  0  0  0  0  0  0
    1.7735   -0.9820    3.0064 H   0  0  0  0  0  0  0  0  0  0  0  0
    2.5329   -2.4121    2.1062 H   0  0  0  0  0  0  0  0  0  0  0  0
    0.9820   -2.3834    0.4012 H   0  0  0  0  0  0  0  0  0  0  0  0
    0.0478   -2.2486    1.9067 H   0  0  0  0  0  0  0  0  0  0  0  0
   -3.7605    1.2663   -0.7786 H   0  0  0  0  0  0  0  0  0  0  0  0
   -6.1203    2.0904    0.1965 H   0  0  0  0  0  0  0  0  0  0  0  0
   -7.3198    0.9304    0.8257 H   0  0  0  0  0  0  0  0  0  0  0  0
   -5.5335    1.6886   -2.2800 H   0  0  0  0  0  0  0  0  0  0  0  0
   -5.8993    0.4131   -4.3113 H   0  0  0  0  0  0  0  0  0  0  0  0
   -7.9595   -2.5463   -2.0774 H   0  0  0  0  0  0  0  0  0  0  0  0
   -3.8832   -1.0025    2.8349 H   0  0  0  0  0  0  0  0  0  0  0  0
    0.3160    1.6070    0.5116 H   0  0  0  0  0  0  0  0  0  0  0  0
    1.3765    1.6738   -1.5519 H   0  0  0  0  0  0  0  0  0  0  0  0
   -0.0967    0.6864   -1.6884 H   0  0  0  0  0  0  0  0  0  0  0  0
    1.4819   -0.1575   -1.7232 H   0  0  0  0  0  0  0  0  0  0  0  0
    2.8777    1.4151    0.2871 H   0  0  0  0  0  0  0  0  0  0  0  0
    2.0902    1.3537    1.8747 H   0  0  0  0  0  0  0  0  0  0  0  0
  1  2  1  0
  2  3  1  0
  2  4  1  0
  4  5  2  0
  5  6  1  0
  6  7  1  0
  7  8  1  0
  8  9  1  0
  9 10  1  0
 10 11  1  0
 11 12  2  0
 12 13  1  0
 13 14  2  0
 14 15  1  0
 15 16  1  0
 16 17  1  0
 17 18  2  0
 18 19  1  0
 19 20  2  0
 20 21  1  0
 21 22  2  0
 22 23  1  0
 23 24  3  0
 14 25  1  0
 25 26  2  0
 10 27  1  0
 27 28  1  0
 27 29  1  0
  6 30  2  0
 30 31  1  0
 31  4  1  0
 29  7  1  0
 26 11  1  0
 22 17  1  0
  1 32  1  0
  1 33  1  0
  1 34  1  0
  2 35  1  0
  3 36  1  0
  3 37  1  0
  3 38  1  0
  8 39  1  0
  8 40  1  0
  9 41  1  0
  9 42  1  0
 13 43  1  0
 16 44  1  0
 16 45  1  0
 18 46  1  0
 19 47  1  0
 21 48  1  0
 25 49  1  0
 27 50  1  1
 28 51  1  0
 28 52  1  0
 28 53  1  0
 29 54  1  0
 29 55  1  0
M  END
$$$$
