@<TRIPOS>MOLECULE
*****
 32 34 0 0 0
SMALL
GASTEIGER

@<TRIPOS>ATOM
      1 O          -1.9299   -2.9106   -0.8842 O.2     1  UNL1       -0.2830
      2 C          -1.4996   -1.8041   -0.5019 C.ar    1  UNL1        0.2379
      3 C          -0.1239   -1.5330   -0.3813 C.ar    1  UNL1        0.2082
      4 O           0.7482   -2.5535   -0.7070 O.3     1  UNL1       -0.5007
      5 C           0.3238   -0.3270    0.0350 C.ar    1  UNL1        0.1807
      6 C           1.7213    0.0305    0.1852 C.ar    1  UNL1        0.0247
      7 C           2.0431    1.3275    0.6294 C.ar    1  UNL1       -0.0473
      8 C           3.3243    1.7703    0.8059 C.ar    1  UNL1       -0.0159
      9 C           4.3961    0.9426    0.5496 C.ar    1  UNL1        0.1583
     10 O           5.7045    1.3804    0.7250 O.3     1  UNL1       -0.5033
     11 C           4.1111   -0.3239    0.1165 C.ar    1  UNL1        0.1589
     12 O           5.1863   -1.1666   -0.1449 O.3     1  UNL1       -0.5033
     13 C           2.7940   -0.7700   -0.0619 C.ar    1  UNL1       -0.0057
     14 O          -0.6142    0.5879    0.3237 O.2     1  UNL1       -0.4507
     15 C          -1.8770    0.4011    0.2339 C.ar    1  UNL1        0.1465
     16 C          -2.7192    1.4335    0.5642 C.ar    1  UNL1        0.0231
     17 C          -4.0843    1.2641    0.4781 C.ar    1  UNL1        0.1239
     18 O          -4.9320    2.3074    0.8120 O.3     1  UNL1       -0.5065
     19 C          -4.6369    0.0712    0.0641 C.ar    1  UNL1        0.0223
     20 C          -3.7560   -0.9651   -0.2668 C.ar    1  UNL1        0.1348
     21 O          -4.2670   -2.1737   -0.6853 O.3     1  UNL1       -0.5058
     22 C          -2.3808   -0.8086   -0.1848 C.ar    1  UNL1        0.1092
     23 H           0.5043   -3.1302   -1.5028 H       1  UNL1        0.2924
     24 H           1.2310    2.0034    0.8401 H       1  UNL1        0.0626
     25 H           3.5608    2.7689    1.1477 H       1  UNL1        0.0655
     26 H           6.0459    2.2407    0.3103 H       1  UNL1        0.2923
     27 H           6.0539   -0.8102   -0.5437 H       1  UNL1        0.2923
     28 H           2.6699   -1.7784   -0.4046 H       1  UNL1        0.0662
     29 H          -2.3348    2.3902    0.8950 H       1  UNL1        0.0691
     30 H          -4.9876    3.1338    0.2343 H       1  UNL1        0.2921
     31 H          -5.7074   -0.0858   -0.0116 H       1  UNL1        0.0691
     32 H          -4.5677   -2.9126   -0.0837 H       1  UNL1        0.2922
@<TRIPOS>BOND
     1     1     2    2
     2     2     3   ar
     3     3     4    1
     4     3     5   ar
     5     5     6    1
     6     6     7   ar
     7     7     8   ar
     8     8     9   ar
     9     9    10    1
    10     9    11   ar
    11    11    12    1
    12    11    13   ar
    13     5    14   ar
    14    14    15   ar
    15    15    16   ar
    16    16    17   ar
    17    17    18    1
    18    17    19   ar
    19    19    20   ar
    20    20    21    1
    21    20    22   ar
    22    22     2   ar
    23    13     6   ar
    24    22    15   ar
    25     4    23    1
    26     7    24    1
    27     8    25    1
    28    10    26    1
    29    12    27    1
    30    13    28    1
    31    16    29    1
    32    18    30    1
    33    19    31    1
    34    21    32    1
