@<TRIPOS>MOLECULE
*****
 68 73 0 0 0
SMALL
GASTEIGER

@<TRIPOS>ATOM
      1 C           9.1033    3.2195    0.5262 C.3     1  UNL1        0.0790
      2 O           8.0208    2.6810   -0.1642 O.3     1  UNL1       -0.4914
      3 C           7.4102    1.4663    0.0707 C.ar    1  UNL1        0.1635
      4 C           7.8404    0.6176    1.0739 C.ar    1  UNL1        0.0098
      5 C           7.2349   -0.6051    1.3189 C.ar    1  UNL1        0.0782
      6 N           7.7314   -1.3688    2.3122 N.ar    1  UNL1       -0.2546
      7 C           7.1848   -2.5560    2.5746 C.ar    1  UNL1        0.0318
      8 C           6.1231   -2.9812    1.8275 C.ar    1  UNL1       -0.0006
      9 C           5.5706   -2.2113    0.7765 C.ar    1  UNL1        0.1392
     10 O           4.5170   -2.7000    0.0796 O.3     1  UNL1       -0.4538
     11 C           3.2363   -2.2731   -0.0714 C.ar    1  UNL1        0.1466
     12 C           2.4071   -2.2809    1.0608 C.ar    1  UNL1       -0.0146
     13 C           1.0923   -1.8557    0.9313 C.ar    1  UNL1       -0.0180
     14 C           0.5414   -1.4250   -0.2331 C.ar    1  UNL1        0.1253
     15 N          -0.8039   -0.9786   -0.4296 N.am    1  UNL1       -0.2662
     16 C          -1.8146   -0.8938    0.5317 C.2     1  UNL1        0.2546
     17 O          -1.5261   -1.2490    1.7271 O.2     1  UNL1       -0.2696
     18 C          -3.1669   -0.4395    0.3043 C.ar    1  UNL1        0.1023
     19 C          -4.0632   -0.4152    1.3810 C.ar    1  UNL1       -0.0352
     20 C          -5.3696   -0.0036    1.2774 C.ar    1  UNL1        0.0010
     21 C          -6.2336   -0.0068    2.4303 C.ar    1  UNL1        0.0016
     22 C          -7.5791   -0.2260    2.2921 C.ar    1  UNL1       -0.0511
     23 C          -8.4037   -0.2274    3.4200 C.ar    1  UNL1       -0.0430
     24 C          -7.8732   -0.0098    4.6709 C.ar    1  UNL1        0.0276
     25 N          -6.5517    0.2028    4.7815 N.ar    1  UNL1       -0.2627
     26 C          -5.7307    0.2073    3.6862 C.ar    1  UNL1        0.0353
     27 C          -5.7835    0.4013    0.0247 C.ar    1  UNL1        0.0210
     28 N          -4.9612    0.3960   -1.0378 N.ar    1  UNL1       -0.2830
     29 C          -5.4903    0.8302   -2.2748 C.ar    1  UNL1        0.0495
     30 C          -5.4823    0.0503   -3.3975 C.ar    1  UNL1       -0.0377
     31 C          -6.0111    0.4929   -4.6107 C.ar    1  UNL1       -0.0598
     32 C          -6.5652    1.7505   -4.7117 C.ar    1  UNL1       -0.0616
     33 C          -6.5784    2.5461   -3.5846 C.ar    1  UNL1       -0.0598
     34 C          -6.0455    2.0849   -2.3846 C.ar    1  UNL1       -0.0377
     35 C          -3.6667   -0.0207   -0.8966 C.ar    1  UNL1        0.2679
     36 O          -2.9991    0.0160   -1.9414 O.2     1  UNL1       -0.2665
     37 N           1.3754   -1.4293   -1.3178 N.ar    1  UNL1       -0.2365
     38 C           2.6433   -1.8329   -1.2215 C.ar    1  UNL1        0.0719
     39 C           6.1599   -1.0053    0.5412 C.ar    1  UNL1        0.0463
     40 C           5.7492   -0.1414   -0.4541 C.ar    1  UNL1       -0.0036
     41 C           6.3391    1.0790   -0.7131 C.ar    1  UNL1        0.1623
     42 O           5.8906    1.9182   -1.7277 O.3     1  UNL1       -0.4914
     43 C           4.7925    1.4969   -2.5151 C.3     1  UNL1        0.0790
     44 H           8.7032    3.9134    1.3172 H       1  UNL1        0.0660
     45 H           9.7446    3.8693   -0.1346 H       1  UNL1        0.0660
     46 H           9.7974    2.4812    0.9649 H       1  UNL1        0.0660
     47 H           8.6779    0.9452    1.6706 H       1  UNL1        0.0677
     48 H           7.5977   -3.1723    3.3866 H       1  UNL1        0.0831
     49 H           5.6731   -3.9351    2.0282 H       1  UNL1        0.0670
     50 H           2.8099   -2.6166    2.0055 H       1  UNL1        0.0656
     51 H           0.5074   -1.8871    1.8433 H       1  UNL1        0.0653
     52 H          -1.0804   -0.6732   -1.4148 H       1  UNL1        0.1566
     53 H          -3.7201   -0.7345    2.3463 H       1  UNL1        0.0633
     54 H          -8.0461   -0.4003    1.3442 H       1  UNL1        0.0625
     55 H          -9.4603   -0.3956    3.3445 H       1  UNL1        0.0633
     56 H          -8.5052   -0.0076    5.5662 H       1  UNL1        0.0829
     57 H          -4.6631    0.3798    3.7817 H       1  UNL1        0.0836
     58 H          -6.8280    0.7277   -0.0468 H       1  UNL1        0.0820
     59 H          -5.0443   -0.9384   -3.3100 H       1  UNL1        0.0638
     60 H          -6.0022   -0.1274   -5.4927 H       1  UNL1        0.0618
     61 H          -6.9836    2.1213   -5.6410 H       1  UNL1        0.0618
     62 H          -7.0154    3.5290   -3.6774 H       1  UNL1        0.0618
     63 H          -6.0925    2.7669   -1.5465 H       1  UNL1        0.0638
     64 H           3.2912   -1.8283   -2.1086 H       1  UNL1        0.0868
     65 H           4.9340   -0.4450   -1.0647 H       1  UNL1        0.0663
     66 H           4.6266    2.1986   -3.3545 H       1  UNL1        0.0660
     67 H           4.9525    0.4909   -2.9672 H       1  UNL1        0.0660
     68 H           3.8619    1.4170   -1.9154 H       1  UNL1        0.0660
@<TRIPOS>BOND
     1     1     2    1
     2     2     3    1
     3     3     4   ar
     4     4     5   ar
     5     5     6   ar
     6     6     7   ar
     7     7     8   ar
     8     8     9   ar
     9     9    10    1
    10    10    11    1
    11    11    12   ar
    12    12    13   ar
    13    13    14   ar
    14    14    15    1
    15    15    16   am
    16    16    17    2
    17    16    18    1
    18    18    19   ar
    19    19    20   ar
    20    20    21    1
    21    21    22   ar
    22    22    23   ar
    23    23    24   ar
    24    24    25   ar
    25    25    26   ar
    26    20    27   ar
    27    27    28   ar
    28    28    29    1
    29    29    30   ar
    30    30    31   ar
    31    31    32   ar
    32    32    33   ar
    33    33    34   ar
    34    28    35   ar
    35    35    36    2
    36    14    37   ar
    37    37    38   ar
    38     9    39   ar
    39    39    40   ar
    40    40    41   ar
    41    41    42    1
    42    42    43    1
    43    41     3   ar
    44    39     5   ar
    45    38    11   ar
    46    35    18   ar
    47    26    21   ar
    48    34    29   ar
    49     1    44    1
    50     1    45    1
    51     1    46    1
    52     4    47    1
    53     7    48    1
    54     8    49    1
    55    12    50    1
    56    13    51    1
    57    15    52    1
    58    19    53    1
    59    22    54    1
    60    23    55    1
    61    24    56    1
    62    26    57    1
    63    27    58    1
    64    30    59    1
    65    31    60    1
    66    32    61    1
    67    33    62    1
    68    34    63    1
    69    38    64    1
    70    40    65    1
    71    43    66    1
    72    43    67    1
    73    43    68    1
