
     RDKit          3D

 49 52  0  0  0  0  0  0  0  0999 V2000
   -1.6991   -0.1749    0.7187 C   0  0  2  0  0  0  0  0  0  0  0  0
   -2.5360   -1.3203    1.1776 C   0  0  0  0  0  0  0  0  0  0  0  0
   -3.8886   -1.1031    0.4987 C   0  0  0  0  0  0  0  0  0  0  0  0
   -3.7038    0.1246   -0.3909 C   0  0  2  0  0  0  0  0  0  0  0  0
   -4.4089    0.0442   -1.5721 O   0  0  0  0  0  0  0  0  0  0  0  0
   -2.2243    0.0140   -0.7036 C   0  0  2  0  0  0  0  0  0  0  0  0
   -2.0139   -1.1692   -1.5833 C   0  0  0  0  0  0  0  0  0  0  0  0
   -1.6296    1.2869   -1.1965 C   0  0  0  0  0  0  0  0  0  0  0  0
   -0.1458    1.1695   -1.2702 C   0  0  0  0  0  0  0  0  0  0  0  0
    0.4686    0.7188    0.0294 C   0  0  1  0  0  0  0  0  0  0  0  0
   -0.2288   -0.4828    0.6136 C   0  0  1  0  0  0  0  0  0  0  0  0
    0.2664   -0.7301    2.0071 C   0  0  0  0  0  0  0  0  0  0  0  0
    1.7492   -0.7245    2.1492 C   0  0  0  0  0  0  0  0  0  0  0  0
    2.4560    0.1824    1.2202 C   0  0  0  0  0  0  0  0  0  0  0  0
    3.5457    0.8375    1.6572 C   0  0  0  0  0  0  0  0  0  0  0  0
    4.2481    1.7434    0.7226 C   0  0  0  0  0  0  0  0  0  0  0  0
    4.8095    2.7494    1.2495 O   0  0  0  0  0  0  0  0  0  0  0  0
    4.1582    1.2839   -0.7097 C   0  0  0  0  0  0  0  0  0  0  0  0
    2.6816    1.2232   -1.0418 C   0  0  0  0  0  0  0  0  0  0  0  0
    1.9057    0.3112   -0.1563 C   0  0  2  0  0  0  0  0  0  0  0  0
    1.9743   -1.0868   -0.7851 C   0  0  0  0  0  0  0  0  0  0  0  0
   -1.9068    0.7553    1.2599 H   0  0  0  0  0  0  0  0  0  0  0  0
   -2.7141   -1.1777    2.2717 H   0  0  0  0  0  0  0  0  0  0  0  0
   -2.1111   -2.2982    0.9614 H   0  0  0  0  0  0  0  0  0  0  0  0
   -4.1088   -1.9447   -0.1901 H   0  0  0  0  0  0  0  0  0  0  0  0
   -4.7001   -0.9597    1.2244 H   0  0  0  0  0  0  0  0  0  0  0  0
   -3.9236    1.0345    0.1932 H   0  0  0  0  0  0  0  0  0  0  0  0
   -5.2441   -0.4528   -1.5056 H   0  0  0  0  0  0  0  0  0  0  0  0
   -2.9612   -1.3282   -2.1780 H   0  0  0  0  0  0  0  0  0  0  0  0
   -1.8386   -2.1160   -1.0555 H   0  0  0  0  0  0  0  0  0  0  0  0
   -1.2233   -1.0014   -2.3597 H   0  0  0  0  0  0  0  0  0  0  0  0
   -2.0054    1.6062   -2.1825 H   0  0  0  0  0  0  0  0  0  0  0  0
   -1.8804    2.0805   -0.4729 H   0  0  0  0  0  0  0  0  0  0  0  0
    0.2621    2.1745   -1.5069 H   0  0  0  0  0  0  0  0  0  0  0  0
    0.1986    0.5153   -2.1005 H   0  0  0  0  0  0  0  0  0  0  0  0
    0.4606    1.5346    0.7862 H   0  0  0  0  0  0  0  0  0  0  0  0
   -0.1105   -1.3542   -0.0485 H   0  0  0  0  0  0  0  0  0  0  0  0
   -0.1986    0.0206    2.6828 H   0  0  0  0  0  0  0  0  0  0  0  0
   -0.1298   -1.7391    2.3112 H   0  0  0  0  0  0  0  0  0  0  0  0
    2.1849   -1.7614    2.0432 H   0  0  0  0  0  0  0  0  0  0  0  0
    1.9791   -0.4765    3.2265 H   0  0  0  0  0  0  0  0  0  0  0  0
    3.8783    0.6779    2.6951 H   0  0  0  0  0  0  0  0  0  0  0  0
    4.5658    2.1155   -1.3346 H   0  0  0  0  0  0  0  0  0  0  0  0
    4.6845    0.3247   -0.8675 H   0  0  0  0  0  0  0  0  0  0  0  0
    2.3098    2.2638   -1.0571 H   0  0  0  0  0  0  0  0  0  0  0  0
    2.6313    0.8707   -2.1110 H   0  0  0  0  0  0  0  0  0  0  0  0
    1.8748   -1.8889   -0.0248 H   0  0  0  0  0  0  0  0  0  0  0  0
    1.2474   -1.1738   -1.6094 H   0  0  0  0  0  0  0  0  0  0  0  0
    2.9948   -1.1983   -1.2053 H   0  0  0  0  0  0  0  0  0  0  0  0
  1  2  1  0
  2  3  1  0
  3  4  1  0
  4  5  1  0
  4  6  1  0
  6  7  1  6
  6  8  1  0
  8  9  1  0
  9 10  1  0
 10 11  1  0
 11 12  1  0
 12 13  1  0
 13 14  1  0
 14 15  2  0
 15 16  1  0
 16 17  2  0
 16 18  1  0
 18 19  1  0
 19 20  1  0
 20 21  1  6
  6  1  1  0
 20 10  1  0
 11  1  1  0
 20 14  1  0
  1 22  1  1
  2 23  1  0
  2 24  1  0
  3 25  1  0
  3 26  1  0
  4 27  1  1
  5 28  1  0
  7 29  1  0
  7 30  1  0
  7 31  1  0
  8 32  1  0
  8 33  1  0
  9 34  1  0
  9 35  1  0
 10 36  1  1
 11 37  1  6
 12 38  1  0
 12 39  1  0
 13 40  1  0
 13 41  1  0
 15 42  1  0
 18 43  1  0
 18 44  1  0
 19 45  1  0
 19 46  1  0
 21 47  1  0
 21 48  1  0
 21 49  1  0
M  END
$$$$
