@<TRIPOS>MOLECULE
*****
 53 57 0 0 0
SMALL
GASTEIGER

@<TRIPOS>ATOM
      1 F          -2.1274    6.8311   -2.2319 F       1  UNL1       -0.2054
      2 C          -1.7244    5.6010   -1.7875 C.ar    1  UNL1        0.1262
      3 C          -1.3306    4.6940   -2.7535 C.ar    1  UNL1       -0.0257
      4 C          -0.9136    3.4329   -2.3476 C.ar    1  UNL1       -0.0486
      5 C          -0.9088    3.1378   -1.0093 C.ar    1  UNL1        0.0179
      6 C          -1.3065    4.0524   -0.0275 C.ar    1  UNL1        0.1338
      7 F          -1.3122    3.7897    1.2976 F       1  UNL1       -0.2048
      8 C          -1.7202    5.3038   -0.4314 C.ar    1  UNL1        0.0094
      9 C          -0.4713    1.8076   -0.5476 C.ar    1  UNL1       -0.0069
     10 C           0.8774    1.5914   -0.2464 C.ar    1  UNL1       -0.0006
     11 C           1.7913    2.7501   -0.4195 C.3     1  UNL1        0.0407
     12 N           3.1304    2.3745   -0.0732 N.am    1  UNL1       -0.2945
     13 C           3.6206    1.1175    0.3767 C.2     1  UNL1        0.3113
     14 O           4.8281    0.9525    0.6384 O.2     1  UNL1       -0.2519
     15 N           2.6169    0.1161    0.4880 N.am    1  UNL1       -0.2212
     16 C           1.2454    0.3405    0.1801 C.ar    1  UNL1        0.0499
     17 C           0.2974   -0.6546    0.2998 C.ar    1  UNL1       -0.0184
     18 C          -1.0279   -0.4915    0.0182 C.ar    1  UNL1        0.0321
     19 C          -1.3779    0.7714   -0.4086 C.ar    1  UNL1       -0.0324
     20 N          -1.9702   -1.5308    0.1532 N.pl3   1  UNL1       -0.3274
     21 C          -3.3688   -1.4422   -0.1431 C.3     1  UNL1        0.0248
     22 C          -3.9890   -2.7444   -0.5897 C.3     1  UNL1        0.0117
     23 N          -3.7977   -3.8115    0.3288 N.3     1  UNL1       -0.3130
     24 C          -2.6952   -3.6133    1.2399 C.3     1  UNL1        0.0117
     25 C          -1.5558   -2.8281    0.6292 C.3     1  UNL1        0.0248
     26 C           3.0442   -1.1855    0.9393 C.ar    1  UNL1        0.0793
     27 C           3.4133   -2.0074   -0.1149 C.ar    1  UNL1        0.0641
     28 CL          3.3664   -1.5197   -1.8105 Cl      1  UNL1       -0.0816
     29 C           3.8520   -3.2952    0.1180 C.ar    1  UNL1       -0.0415
     30 C           3.9128   -3.7383    1.4138 C.ar    1  UNL1       -0.0589
     31 C           3.5477   -2.9263    2.4609 C.ar    1  UNL1       -0.0415
     32 C           3.1100   -1.6435    2.2388 C.ar    1  UNL1        0.0641
     33 CL          2.6080   -0.4773    3.4391 Cl      1  UNL1       -0.0816
     34 H          -1.3399    4.9446   -3.8194 H       1  UNL1        0.0646
     35 H          -0.5946    2.6811   -3.0492 H       1  UNL1        0.0625
     36 H          -2.0534    6.1075    0.2130 H       1  UNL1        0.0675
     37 H           1.4570    3.6357    0.1418 H       1  UNL1        0.0513
     38 H           1.7311    3.0362   -1.5002 H       1  UNL1        0.0513
     39 H           3.8278    3.1660   -0.1776 H       1  UNL1        0.1506
     40 H           0.6924   -1.6010    0.6427 H       1  UNL1        0.0655
     41 H          -2.3919    1.0202   -0.6597 H       1  UNL1        0.0642
     42 H          -3.9239   -1.0525    0.7601 H       1  UNL1        0.0476
     43 H          -3.5114   -0.6594   -0.9151 H       1  UNL1        0.0476
     44 H          -3.5198   -2.9944   -1.5788 H       1  UNL1        0.0439
     45 H          -5.0632   -2.5407   -0.7741 H       1  UNL1        0.0439
     46 H          -3.7906   -4.7595   -0.1096 H       1  UNL1        0.1220
     47 H          -2.2838   -4.6183    1.4788 H       1  UNL1        0.0439
     48 H          -3.0290   -3.1743    2.1925 H       1  UNL1        0.0439
     49 H          -0.8480   -2.6295    1.4872 H       1  UNL1        0.0476
     50 H          -0.9951   -3.3958   -0.1131 H       1  UNL1        0.0476
     51 H           4.1453   -3.9569   -0.6799 H       1  UNL1        0.0633
     52 H           4.2515   -4.7392    1.6250 H       1  UNL1        0.0618
     53 H           3.5750   -3.2244    3.5184 H       1  UNL1        0.0633
@<TRIPOS>BOND
     1     1     2    1
     2     2     3   ar
     3     3     4   ar
     4     4     5   ar
     5     5     6   ar
     6     6     7    1
     7     6     8   ar
     8     5     9    1
     9     9    10   ar
    10    10    11    1
    11    11    12    1
    12    12    13   am
    13    13    14    2
    14    13    15   am
    15    15    16    1
    16    16    17   ar
    17    17    18   ar
    18    18    19   ar
    19    18    20    1
    20    20    21    1
    21    21    22    1
    22    22    23    1
    23    23    24    1
    24    24    25    1
    25    15    26    1
    26    26    27   ar
    27    27    28    1
    28    27    29   ar
    29    29    30   ar
    30    30    31   ar
    31    31    32   ar
    32    32    33    1
    33     8     2   ar
    34    19     9   ar
    35    25    20    1
    36    32    26   ar
    37    16    10   ar
    38     3    34    1
    39     4    35    1
    40     8    36    1
    41    11    37    1
    42    11    38    1
    43    12    39    1
    44    17    40    1
    45    19    41    1
    46    21    42    1
    47    21    43    1
    48    22    44    1
    49    22    45    1
    50    23    46    1
    51    24    47    1
    52    24    48    1
    53    25    49    1
    54    25    50    1
    55    29    51    1
    56    30    52    1
    57    31    53    1
