
     RDKit          3D

 57 60  0  0  0  0  0  0  0  0999 V2000
    0.5824    3.1692    0.8480 C   0  0  0  0  0  0  0  0  0  0  0  0
    0.6922    2.1351   -0.2747 C   0  0  1  0  0  0  0  0  0  0  0  0
    1.9351    1.3276   -0.1131 C   0  0  0  0  0  0  0  0  0  0  0  0
    2.9607    1.7501    0.7071 C   0  0  0  0  0  0  0  0  0  0  0  0
    4.1139    1.0066    0.8620 C   0  0  0  0  0  0  0  0  0  0  0  0
    4.3074   -0.1980    0.2080 C   0  0  0  0  0  0  0  0  0  0  0  0
    5.5277   -0.9783    0.3759 C   0  0  0  0  0  0  0  0  0  0  0  0
    6.0438   -1.1658    1.6362 C   0  0  0  0  0  0  0  0  0  0  0  0
    7.1981   -1.9071    1.7639 C   0  0  0  0  0  0  0  0  0  0  0  0
    7.8391   -2.4596    0.6583 C   0  0  0  0  0  0  0  0  0  0  0  0
    8.9766   -3.1909    0.7778 F   0  0  0  0  0  0  0  0  0  0  0  0
    7.3229   -2.2717   -0.5996 C   0  0  0  0  0  0  0  0  0  0  0  0
    6.1664   -1.5274   -0.7146 C   0  0  0  0  0  0  0  0  0  0  0  0
    5.6501   -1.3376   -1.9587 F   0  0  0  0  0  0  0  0  0  0  0  0
    3.2758   -0.6142   -0.6114 C   0  0  0  0  0  0  0  0  0  0  0  0
    2.1227    0.1287   -0.7667 C   0  0  0  0  0  0  0  0  0  0  0  0
   -0.4920    1.3432   -0.2159 N   0  0  0  0  0  0  0  0  0  0  0  0
   -1.4364    1.4186   -1.3111 C   0  0  0  0  0  0  0  0  0  0  0  0
   -2.8255    1.2944   -0.7228 C   0  0  0  0  0  0  0  0  0  0  0  0
   -3.0045    0.0294    0.0691 C   0  0  2  0  0  0  0  0  0  0  0  0
   -2.6707   -1.2003   -0.7734 C   0  0  0  0  0  0  0  0  0  0  0  0
   -3.5763   -1.2758   -1.9893 C   0  0  0  0  0  0  0  0  0  0  0  0
   -3.1869   -2.4328   -2.6875 O   0  0  0  0  0  0  0  0  0  0  0  0
   -4.4023   -0.0735    0.5672 C   0  0  0  0  0  0  0  0  0  0  0  0
   -5.3574    0.8872    0.3286 C   0  0  0  0  0  0  0  0  0  0  0  0
   -6.6618    0.7562    0.8119 C   0  0  0  0  0  0  0  0  0  0  0  0
   -7.0413   -0.3426    1.5475 C   0  0  0  0  0  0  0  0  0  0  0  0
   -8.3216   -0.4734    2.0231 F   0  0  0  0  0  0  0  0  0  0  0  0
   -6.0866   -1.3062    1.7881 C   0  0  0  0  0  0  0  0  0  0  0  0
   -4.7980   -1.1739    1.3090 C   0  0  0  0  0  0  0  0  0  0  0  0
   -2.0802    0.0460    1.1426 O   0  0  0  0  0  0  0  0  0  0  0  0
   -0.7830    0.4685    0.8985 C   0  0  0  0  0  0  0  0  0  0  0  0
    0.2051    0.1356    1.6018 O   0  0  0  0  0  0  0  0  0  0  0  0
   -0.4044    3.6299    0.8798 H   0  0  0  0  0  0  0  0  0  0  0  0
    1.3261    3.9573    0.6108 H   0  0  0  0  0  0  0  0  0  0  0  0
    0.8882    2.7313    1.8291 H   0  0  0  0  0  0  0  0  0  0  0  0
    0.6970    2.7172   -1.2110 H   0  0  0  0  0  0  0  0  0  0  0  0
    2.8390    2.7043    1.2419 H   0  0  0  0  0  0  0  0  0  0  0  0
    4.9256    1.3388    1.5097 H   0  0  0  0  0  0  0  0  0  0  0  0
    5.6014   -0.7683    2.5355 H   0  0  0  0  0  0  0  0  0  0  0  0
    7.6592   -2.0946    2.7234 H   0  0  0  0  0  0  0  0  0  0  0  0
    7.7822   -2.6803   -1.4999 H   0  0  0  0  0  0  0  0  0  0  0  0
    3.4262   -1.5682   -1.1308 H   0  0  0  0  0  0  0  0  0  0  0  0
    1.3260   -0.2207   -1.4171 H   0  0  0  0  0  0  0  0  0  0  0  0
   -1.3951    2.4181   -1.8095 H   0  0  0  0  0  0  0  0  0  0  0  0
   -1.2419    0.6718   -2.1017 H   0  0  0  0  0  0  0  0  0  0  0  0
   -2.9640    2.1491   -0.0332 H   0  0  0  0  0  0  0  0  0  0  0  0
   -3.5951    1.4019   -1.5238 H   0  0  0  0  0  0  0  0  0  0  0  0
   -1.6172   -1.1989   -1.0455 H   0  0  0  0  0  0  0  0  0  0  0  0
   -2.8487   -2.0810   -0.1281 H   0  0  0  0  0  0  0  0  0  0  0  0
   -4.6291   -1.4179   -1.6818 H   0  0  0  0  0  0  0  0  0  0  0  0
   -3.5048   -0.3772   -2.6160 H   0  0  0  0  0  0  0  0  0  0  0  0
   -3.5604   -2.4546   -3.6027 H   0  0  0  0  0  0  0  0  0  0  0  0
   -5.0922    1.7689   -0.2454 H   0  0  0  0  0  0  0  0  0  0  0  0
   -7.4067    1.5204    0.6174 H   0  0  0  0  0  0  0  0  0  0  0  0
   -6.3698   -2.1763    2.3652 H   0  0  0  0  0  0  0  0  0  0  0  0
   -4.0370   -1.9381    1.5012 H   0  0  0  0  0  0  0  0  0  0  0  0
  1  2  1  0
  2  3  1  0
  3  4  2  0
  4  5  1  0
  5  6  2  0
  6  7  1  0
  7  8  2  0
  8  9  1  0
  9 10  2  0
 10 11  1  0
 10 12  1  0
 12 13  2  0
 13 14  1  0
  6 15  1  0
 15 16  2  0
  2 17  1  0
 17 18  1  0
 18 19  1  0
 19 20  1  0
 20 21  1  6
 21 22  1  0
 22 23  1  0
 20 24  1  0
 24 25  2  0
 25 26  1  0
 26 27  2  0
 27 28  1  0
 27 29  1  0
 29 30  2  0
 20 31  1  0
 31 32  1  0
 32 33  2  0
 16  3  1  0
 32 17  1  0
 13  7  1  0
 30 24  1  0
  1 34  1  0
  1 35  1  0
  1 36  1  0
  2 37  1  6
  4 38  1  0
  5 39  1  0
  8 40  1  0
  9 41  1  0
 12 42  1  0
 15 43  1  0
 16 44  1  0
 18 45  1  0
 18 46  1  0
 19 47  1  0
 19 48  1  0
 21 49  1  0
 21 50  1  0
 22 51  1  0
 22 52  1  0
 23 53  1  0
 25 54  1  0
 26 55  1  0
 29 56  1  0
 30 57  1  0
M  END
$$$$
