@<TRIPOS>MOLECULE
*****
 57 60 0 0 0
SMALL
GASTEIGER

@<TRIPOS>ATOM
      1 C           0.5824    3.1692    0.8480 C.3     1  UNL1       -0.0421
      2 C           0.6922    2.1351   -0.2747 C.3     1  UNL1        0.0515
      3 C           1.9351    1.3276   -0.1131 C.ar    1  UNL1       -0.0271
      4 C           2.9607    1.7501    0.7071 C.ar    1  UNL1       -0.0562
      5 C           4.1139    1.0066    0.8620 C.ar    1  UNL1       -0.0536
      6 C           4.3074   -0.1980    0.2080 C.ar    1  UNL1       -0.0151
      7 C           5.5277   -0.9783    0.3759 C.ar    1  UNL1        0.0175
      8 C           6.0438   -1.1658    1.6362 C.ar    1  UNL1       -0.0486
      9 C           7.1981   -1.9071    1.7639 C.ar    1  UNL1       -0.0257
     10 C           7.8391   -2.4596    0.6583 C.ar    1  UNL1        0.1262
     11 F           8.9766   -3.1909    0.7778 F       1  UNL1       -0.2054
     12 C           7.3229   -2.2717   -0.5996 C.ar    1  UNL1        0.0094
     13 C           6.1664   -1.5274   -0.7146 C.ar    1  UNL1        0.1338
     14 F           5.6501   -1.3376   -1.9587 F       1  UNL1       -0.2048
     15 C           3.2758   -0.6142   -0.6114 C.ar    1  UNL1       -0.0536
     16 C           2.1227    0.1287   -0.7667 C.ar    1  UNL1       -0.0562
     17 N          -0.4920    1.3432   -0.2159 N.am    1  UNL1       -0.2605
     18 C          -1.4364    1.4186   -1.3111 C.3     1  UNL1        0.0224
     19 C          -2.8255    1.2944   -0.7228 C.3     1  UNL1        0.0075
     20 C          -3.0045    0.0294    0.0691 C.3     1  UNL1        0.1435
     21 C          -2.6707   -1.2003   -0.7734 C.3     1  UNL1        0.0148
     22 C          -3.5763   -1.2758   -1.9893 C.3     1  UNL1        0.0482
     23 O          -3.1869   -2.4328   -2.6875 O.3     1  UNL1       -0.3949
     24 C          -4.4023   -0.0735    0.5672 C.ar    1  UNL1       -0.0039
     25 C          -5.3574    0.8872    0.3286 C.ar    1  UNL1       -0.0521
     26 C          -6.6618    0.7562    0.8119 C.ar    1  UNL1       -0.0261
     27 C          -7.0413   -0.3426    1.5475 C.ar    1  UNL1        0.1234
     28 F          -8.3216   -0.4734    2.0231 F       1  UNL1       -0.2055
     29 C          -6.0866   -1.3062    1.7881 C.ar    1  UNL1       -0.0261
     30 C          -4.7980   -1.1739    1.3090 C.ar    1  UNL1       -0.0521
     31 O          -2.0802    0.0460    1.1426 O.3     1  UNL1       -0.4388
     32 C          -0.7830    0.4685    0.8985 C.2     1  UNL1        0.4042
     33 O           0.2051    0.1356    1.6018 O.2     1  UNL1       -0.2262
     34 H          -0.4044    3.6299    0.8798 H       1  UNL1        0.0251
     35 H           1.3261    3.9573    0.6108 H       1  UNL1        0.0251
     36 H           0.8882    2.7313    1.8291 H       1  UNL1        0.0251
     37 H           0.6970    2.7172   -1.2110 H       1  UNL1        0.0549
     38 H           2.8390    2.7043    1.2419 H       1  UNL1        0.0621
     39 H           4.9256    1.3388    1.5097 H       1  UNL1        0.0624
     40 H           5.6014   -0.7683    2.5355 H       1  UNL1        0.0625
     41 H           7.6592   -2.0946    2.7234 H       1  UNL1        0.0646
     42 H           7.7822   -2.6803   -1.4999 H       1  UNL1        0.0675
     43 H           3.4262   -1.5682   -1.1308 H       1  UNL1        0.0624
     44 H           1.3260   -0.2207   -1.4171 H       1  UNL1        0.0621
     45 H          -1.3951    2.4181   -1.8095 H       1  UNL1        0.0467
     46 H          -1.2419    0.6718   -2.1017 H       1  UNL1        0.0467
     47 H          -2.9640    2.1491   -0.0332 H       1  UNL1        0.0322
     48 H          -3.5951    1.4019   -1.5238 H       1  UNL1        0.0322
     49 H          -1.6172   -1.1989   -1.0455 H       1  UNL1        0.0329
     50 H          -2.8487   -2.0810   -0.1281 H       1  UNL1        0.0329
     51 H          -4.6291   -1.4179   -1.6818 H       1  UNL1        0.0558
     52 H          -3.5048   -0.3772   -2.6160 H       1  UNL1        0.0558
     53 H          -3.5604   -2.4546   -3.6027 H       1  UNL1        0.2094
     54 H          -5.0922    1.7689   -0.2454 H       1  UNL1        0.0622
     55 H          -7.4067    1.5204    0.6174 H       1  UNL1        0.0646
     56 H          -6.3698   -2.1763    2.3652 H       1  UNL1        0.0646
     57 H          -4.0370   -1.9381    1.5012 H       1  UNL1        0.0622
@<TRIPOS>BOND
     1     1     2    1
     2     2     3    1
     3     3     4   ar
     4     4     5   ar
     5     5     6   ar
     6     6     7    1
     7     7     8   ar
     8     8     9   ar
     9     9    10   ar
    10    10    11    1
    11    10    12   ar
    12    12    13   ar
    13    13    14    1
    14     6    15   ar
    15    15    16   ar
    16     2    17    1
    17    17    18    1
    18    18    19    1
    19    19    20    1
    20    20    21    1
    21    21    22    1
    22    22    23    1
    23    20    24    1
    24    24    25   ar
    25    25    26   ar
    26    26    27   ar
    27    27    28    1
    28    27    29   ar
    29    29    30   ar
    30    20    31    1
    31    31    32    1
    32    32    33    2
    33    16     3   ar
    34    32    17   am
    35    13     7   ar
    36    30    24   ar
    37     1    34    1
    38     1    35    1
    39     1    36    1
    40     2    37    1
    41     4    38    1
    42     5    39    1
    43     8    40    1
    44     9    41    1
    45    12    42    1
    46    15    43    1
    47    16    44    1
    48    18    45    1
    49    18    46    1
    50    19    47    1
    51    19    48    1
    52    21    49    1
    53    21    50    1
    54    22    51    1
    55    22    52    1
    56    23    53    1
    57    25    54    1
    58    26    55    1
    59    29    56    1
    60    30    57    1
