
     RDKit          3D

 51 53  0  0  0  0  0  0  0  0999 V2000
   -6.8132   -1.4694   -0.0512 C   0  0  0  0  0  0  0  0  0  0  0  0
   -5.5416   -0.9383   -0.5450 N   0  0  0  0  0  0  0  0  0  0  0  0
   -5.7612   -0.1481   -1.7405 C   0  0  0  0  0  0  0  0  0  0  0  0
   -4.8270   -0.2494    0.4918 C   0  0  0  0  0  0  0  0  0  0  0  0
   -3.5017    0.2076   -0.0287 C   0  0  0  0  0  0  0  0  0  0  0  0
   -3.5777    1.0754   -1.1052 O   0  0  0  0  0  0  0  0  0  0  0  0
   -2.6938    0.9360    1.0354 C   0  0  0  0  0  0  0  0  0  0  0  0
   -1.5327    1.5856    0.3055 C   0  0  0  0  0  0  0  0  0  0  0  0
   -0.7242    0.5007   -0.2289 N   0  0  0  0  0  0  0  0  0  0  0  0
    0.7040    0.5840   -0.0379 C   0  0  0  0  0  0  0  0  0  0  0  0
    1.5030   -0.4105   -0.5016 N   0  0  0  0  0  0  0  0  0  0  0  0
    2.8326   -0.3342   -0.3247 C   0  0  0  0  0  0  0  0  0  0  0  0
    3.6901   -1.3227   -0.7790 O   0  0  0  0  0  0  0  0  0  0  0  0
    5.0514   -1.2543   -0.6027 C   0  0  0  0  0  0  0  0  0  0  0  0
    5.9265   -0.6762   -1.4964 C   0  0  0  0  0  0  0  0  0  0  0  0
    7.2814   -0.6359   -1.2681 C   0  0  0  0  0  0  0  0  0  0  0  0
    7.8283   -1.1784   -0.1222 C   0  0  0  0  0  0  0  0  0  0  0  0
    6.9521   -1.7587    0.7752 C   0  0  0  0  0  0  0  0  0  0  0  0
    7.4409   -2.3109    1.9259 F   0  0  0  0  0  0  0  0  0  0  0  0
    5.5908   -1.8039    0.5547 C   0  0  0  0  0  0  0  0  0  0  0  0
    3.3971    0.7532    0.3281 C   0  0  0  0  0  0  0  0  0  0  0  0
    2.5828    1.7602    0.7971 C   0  0  0  0  0  0  0  0  0  0  0  0
    3.1395    2.9417    1.5003 C   0  0  0  0  0  0  0  0  0  0  0  0
    2.6459    3.0543    2.7904 F   0  0  0  0  0  0  0  0  0  0  0  0
    2.7547    4.0815    0.8118 F   0  0  0  0  0  0  0  0  0  0  0  0
    4.5157    2.8499    1.5412 F   0  0  0  0  0  0  0  0  0  0  0  0
    1.2668    1.6289    0.5916 N   0  0  0  0  0  0  0  0  0  0  0  0
   -1.3172   -0.6000   -0.9140 C   0  0  0  0  0  0  0  0  0  0  0  0
   -2.6810   -0.9947   -0.4407 C   0  0  0  0  0  0  0  0  0  0  0  0
   -7.2292   -0.8534    0.7609 H   0  0  0  0  0  0  0  0  0  0  0  0
   -7.4774   -1.5381   -0.9358 H   0  0  0  0  0  0  0  0  0  0  0  0
   -6.6229   -2.4931    0.3104 H   0  0  0  0  0  0  0  0  0  0  0  0
   -6.6812   -0.4938   -2.2798 H   0  0  0  0  0  0  0  0  0  0  0  0
   -4.8999   -0.2881   -2.4161 H   0  0  0  0  0  0  0  0  0  0  0  0
   -5.8452    0.9184   -1.4890 H   0  0  0  0  0  0  0  0  0  0  0  0
   -4.6992   -0.8915    1.3835 H   0  0  0  0  0  0  0  0  0  0  0  0
   -5.3801    0.6482    0.8559 H   0  0  0  0  0  0  0  0  0  0  0  0
   -2.8864    0.8354   -1.7491 H   0  0  0  0  0  0  0  0  0  0  0  0
   -3.3043    1.7226    1.4799 H   0  0  0  0  0  0  0  0  0  0  0  0
   -2.2758    0.2460    1.7917 H   0  0  0  0  0  0  0  0  0  0  0  0
   -1.8989    2.1672   -0.5669 H   0  0  0  0  0  0  0  0  0  0  0  0
   -0.9396    2.2087    1.0032 H   0  0  0  0  0  0  0  0  0  0  0  0
    5.5197   -0.2442   -2.4024 H   0  0  0  0  0  0  0  0  0  0  0  0
    7.9673   -0.1739   -1.9858 H   0  0  0  0  0  0  0  0  0  0  0  0
    8.8910   -1.1401    0.0444 H   0  0  0  0  0  0  0  0  0  0  0  0
    4.9139   -2.2644    1.2708 H   0  0  0  0  0  0  0  0  0  0  0  0
    4.4550    0.8167    0.4705 H   0  0  0  0  0  0  0  0  0  0  0  0
   -1.3072   -0.4156   -2.0127 H   0  0  0  0  0  0  0  0  0  0  0  0
   -0.6485   -1.4938   -0.7330 H   0  0  0  0  0  0  0  0  0  0  0  0
   -3.2370   -1.5210   -1.2316 H   0  0  0  0  0  0  0  0  0  0  0  0
   -2.5465   -1.6256    0.4670 H   0  0  0  0  0  0  0  0  0  0  0  0
  1  2  1  0
  2  3  1  0
  2  4  1  0
  4  5  1  0
  5  6  1  0
  5  7  1  0
  7  8  1  0
  8  9  1  0
  9 10  1  0
 10 11  2  0
 11 12  1  0
 12 13  1  0
 13 14  1  0
 14 15  2  0
 15 16  1  0
 16 17  2  0
 17 18  1  0
 18 19  1  0
 18 20  2  0
 12 21  2  0
 21 22  1  0
 22 23  1  0
 23 24  1  0
 23 25  1  0
 23 26  1  0
 22 27  2  0
  9 28  1  0
 28 29  1  0
 29  5  1  0
 27 10  1  0
 20 14  1  0
  1 30  1  0
  1 31  1  0
  1 32  1  0
  3 33  1  0
  3 34  1  0
  3 35  1  0
  4 36  1  0
  4 37  1  0
  6 38  1  0
  7 39  1  0
  7 40  1  0
  8 41  1  0
  8 42  1  0
 15 43  1  0
 16 44  1  0
 17 45  1  0
 20 46  1  0
 21 47  1  0
 28 48  1  0
 28 49  1  0
 29 50  1  0
 29 51  1  0
M  END
$$$$
