@<TRIPOS>MOLECULE
*****
 51 53 0 0 0
SMALL
GASTEIGER

@<TRIPOS>ATOM
      1 C          -6.8132   -1.4694   -0.0512 C.3     1  UNL1       -0.0129
      2 N          -5.5416   -0.9383   -0.5450 N.3     1  UNL1       -0.3056
      3 C          -5.7612   -0.1481   -1.7405 C.3     1  UNL1       -0.0129
      4 C          -4.8270   -0.2494    0.4918 C.3     1  UNL1        0.0273
      5 C          -3.5017    0.2076   -0.0287 C.3     1  UNL1        0.0815
      6 O          -3.5777    1.0754   -1.1052 O.3     1  UNL1       -0.3872
      7 C          -2.6938    0.9360    1.0354 C.3     1  UNL1       -0.0069
      8 C          -1.5327    1.5856    0.3055 C.3     1  UNL1        0.0175
      9 N          -0.7242    0.5007   -0.2289 N.pl3   1  UNL1       -0.2994
     10 C           0.7040    0.5840   -0.0379 C.ar    1  UNL1        0.2214
     11 N           1.5030   -0.4105   -0.5016 N.ar    1  UNL1       -0.1790
     12 C           2.8326   -0.3342   -0.3247 C.ar    1  UNL1        0.2254
     13 O           3.6901   -1.3227   -0.7790 O.3     1  UNL1       -0.4378
     14 C           5.0514   -1.2543   -0.6027 C.ar    1  UNL1        0.1331
     15 C           5.9265   -0.6762   -1.4964 C.ar    1  UNL1       -0.0191
     16 C           7.2814   -0.6359   -1.2681 C.ar    1  UNL1       -0.0556
     17 C           7.8283   -1.1784   -0.1222 C.ar    1  UNL1       -0.0262
     18 C           6.9521   -1.7587    0.7752 C.ar    1  UNL1        0.1269
     19 F           7.4409   -2.3109    1.9259 F       1  UNL1       -0.2054
     20 C           5.5908   -1.8039    0.5547 C.ar    1  UNL1        0.0160
     21 C           3.3971    0.7532    0.3281 C.ar    1  UNL1        0.0305
     22 C           2.5828    1.7602    0.7971 C.ar    1  UNL1        0.1522
     23 C           3.1395    2.9417    1.5003 C.3     1  UNL1        0.4345
     24 F           2.6459    3.0543    2.7904 F       1  UNL1       -0.1644
     25 F           2.7547    4.0815    0.8118 F       1  UNL1       -0.1644
     26 F           4.5157    2.8499    1.5412 F       1  UNL1       -0.1644
     27 N           1.2668    1.6289    0.5916 N.ar    1  UNL1       -0.2101
     28 C          -1.3172   -0.6000   -0.9140 C.3     1  UNL1        0.0175
     29 C          -2.6810   -0.9947   -0.4407 C.3     1  UNL1       -0.0069
     30 H          -7.2292   -0.8534    0.7609 H       1  UNL1        0.0391
     31 H          -7.4774   -1.5381   -0.9358 H       1  UNL1        0.0391
     32 H          -6.6229   -2.4931    0.3104 H       1  UNL1        0.0391
     33 H          -6.6812   -0.4938   -2.2798 H       1  UNL1        0.0391
     34 H          -4.8999   -0.2881   -2.4161 H       1  UNL1        0.0391
     35 H          -5.8452    0.9184   -1.4890 H       1  UNL1        0.0391
     36 H          -4.6992   -0.8915    1.3835 H       1  UNL1        0.0454
     37 H          -5.3801    0.6482    0.8559 H       1  UNL1        0.0454
     38 H          -2.8864    0.8354   -1.7491 H       1  UNL1        0.2102
     39 H          -3.3043    1.7226    1.4799 H       1  UNL1        0.0308
     40 H          -2.2758    0.2460    1.7917 H       1  UNL1        0.0308
     41 H          -1.8989    2.1672   -0.5669 H       1  UNL1        0.0465
     42 H          -0.9396    2.2087    1.0032 H       1  UNL1        0.0465
     43 H           5.5197   -0.2442   -2.4024 H       1  UNL1        0.0654
     44 H           7.9673   -0.1739   -1.9858 H       1  UNL1        0.0620
     45 H           8.8910   -1.1401    0.0444 H       1  UNL1        0.0646
     46 H           4.9139   -2.2644    1.2708 H       1  UNL1        0.0683
     47 H           4.4550    0.8167    0.4705 H       1  UNL1        0.0692
     48 H          -1.3072   -0.4156   -2.0127 H       1  UNL1        0.0465
     49 H          -0.6485   -1.4938   -0.7330 H       1  UNL1        0.0465
     50 H          -3.2370   -1.5210   -1.2316 H       1  UNL1        0.0308
     51 H          -2.5465   -1.6256    0.4670 H       1  UNL1        0.0308
@<TRIPOS>BOND
     1     1     2    1
     2     2     3    1
     3     2     4    1
     4     4     5    1
     5     5     6    1
     6     5     7    1
     7     7     8    1
     8     8     9    1
     9     9    10    1
    10    10    11   ar
    11    11    12   ar
    12    12    13    1
    13    13    14    1
    14    14    15   ar
    15    15    16   ar
    16    16    17   ar
    17    17    18   ar
    18    18    19    1
    19    18    20   ar
    20    12    21   ar
    21    21    22   ar
    22    22    23    1
    23    23    24    1
    24    23    25    1
    25    23    26    1
    26    22    27   ar
    27     9    28    1
    28    28    29    1
    29    29     5    1
    30    27    10   ar
    31    20    14   ar
    32     1    30    1
    33     1    31    1
    34     1    32    1
    35     3    33    1
    36     3    34    1
    37     3    35    1
    38     4    36    1
    39     4    37    1
    40     6    38    1
    41     7    39    1
    42     7    40    1
    43     8    41    1
    44     8    42    1
    45    15    43    1
    46    16    44    1
    47    17    45    1
    48    20    46    1
    49    21    47    1
    50    28    48    1
    51    28    49    1
    52    29    50    1
    53    29    51    1
