@<TRIPOS>MOLECULE
*****
 53 57 0 0 0
SMALL
GASTEIGER

@<TRIPOS>ATOM
      1 C           2.5276    4.5644    1.6929 C.3     1  UNL1       -0.0397
      2 C           2.3036    3.1998    1.1346 C.ar    1  UNL1       -0.0504
      3 C           2.1721    2.0964    1.9548 C.ar    1  UNL1       -0.0586
      4 C           1.9647    0.8329    1.4362 C.ar    1  UNL1       -0.0580
      5 C           1.8795    0.6167    0.0750 C.ar    1  UNL1       -0.0435
      6 C           1.6556   -0.7504   -0.4721 C.3     1  UNL1       -0.0032
      7 C           2.8635   -1.5769   -0.0890 C.3     1  UNL1       -0.0298
      8 C           2.6105   -3.0474   -0.3218 C.3     1  UNL1        0.0110
      9 C           2.2303   -3.2888   -1.7624 C.3     1  UNL1       -0.0359
     10 C           0.7326   -3.0776   -1.7253 C.3     1  UNL1       -0.0352
     11 C           0.3735   -2.8185   -0.2996 C.3     1  UNL1        0.0208
     12 C           0.3722   -1.3583    0.0345 C.3     1  UNL1        0.0422
     13 C          -0.7589   -0.6323   -0.5670 C.ar    1  UNL1        0.1430
     14 C          -1.7235    0.0810    0.1295 C.ar    1  UNL1        0.0085
     15 C          -2.5890    0.5993   -0.8088 C.ar    1  UNL1        0.1136
     16 C          -3.7693    1.4267   -0.5396 C.ar    1  UNL1        0.0037
     17 C          -4.5606    1.8874   -1.5633 C.ar    1  UNL1       -0.0511
     18 C          -5.6768    2.6655   -1.3647 C.ar    1  UNL1       -0.0428
     19 C          -6.0006    2.9884   -0.0617 C.ar    1  UNL1        0.0410
     20 CL         -7.4296    3.9841    0.1866 Cl      1  UNL1       -0.0835
     21 C          -5.2226    2.5387    0.9872 C.ar    1  UNL1       -0.0428
     22 C          -4.1074    1.7586    0.7541 C.ar    1  UNL1       -0.0511
     23 N          -2.1272    0.1912   -1.9970 N.ar    1  UNL1       -0.0781
     24 O          -1.0488   -0.5325   -1.8282 O.2     1  UNL1       -0.3587
     25 N           1.4556   -3.4272    0.4615 N.3     1  UNL1       -0.2988
     26 C           1.3010   -4.8404    0.6163 C.3     1  UNL1       -0.0122
     27 C           2.0120    1.7250   -0.7384 C.ar    1  UNL1       -0.0580
     28 C           2.2197    2.9921   -0.2269 C.ar    1  UNL1       -0.0586
     29 H           3.0371    4.5379    2.6728 H       1  UNL1        0.0278
     30 H           1.5471    5.0849    1.7200 H       1  UNL1        0.0278
     31 H           3.2088    5.0915    0.9846 H       1  UNL1        0.0278
     32 H           2.2376    2.2596    3.0117 H       1  UNL1        0.0620
     33 H           1.8633   -0.0219    2.0841 H       1  UNL1        0.0620
     34 H           1.6247   -0.6745   -1.5590 H       1  UNL1        0.0357
     35 H           3.7059   -1.2199   -0.7486 H       1  UNL1        0.0286
     36 H           3.1248   -1.4496    0.9855 H       1  UNL1        0.0286
     37 H           3.5174   -3.6057   -0.0231 H       1  UNL1        0.0463
     38 H           2.7383   -2.5655   -2.4332 H       1  UNL1        0.0281
     39 H           2.4243   -4.3141   -2.0963 H       1  UNL1        0.0281
     40 H           0.5066   -2.1994   -2.3281 H       1  UNL1        0.0281
     41 H           0.1754   -3.9320   -2.1619 H       1  UNL1        0.0281
     42 H          -0.5589   -3.3288    0.0165 H       1  UNL1        0.0470
     43 H           0.3804   -1.2740    1.1423 H       1  UNL1        0.0401
     44 H          -1.7924    0.2114    1.1989 H       1  UNL1        0.0674
     45 H          -4.2891    1.6219   -2.5891 H       1  UNL1        0.0625
     46 H          -6.2626    2.9995   -2.2139 H       1  UNL1        0.0632
     47 H          -5.4909    2.8010    1.9999 H       1  UNL1        0.0632
     48 H          -3.4985    1.4078    1.5905 H       1  UNL1        0.0625
     49 H           1.8227   -5.4352   -0.1699 H       1  UNL1        0.0391
     50 H           1.8054   -5.1162    1.5881 H       1  UNL1        0.0391
     51 H           0.2390   -5.1260    0.7350 H       1  UNL1        0.0391
     52 H           1.9487    1.5767   -1.7962 H       1  UNL1        0.0620
     53 H           2.3252    3.8726   -0.8645 H       1  UNL1        0.0620
@<TRIPOS>BOND
     1     1     2    1
     2     2     3   ar
     3     3     4   ar
     4     4     5   ar
     5     5     6    1
     6     6     7    1
     7     7     8    1
     8     8     9    1
     9     9    10    1
    10    10    11    1
    11    11    12    1
    12    12    13    1
    13    13    14   ar
    14    14    15   ar
    15    15    16    1
    16    16    17   ar
    17    17    18   ar
    18    18    19   ar
    19    19    20    1
    20    19    21   ar
    21    21    22   ar
    22    15    23   ar
    23    23    24   ar
    24    11    25    1
    25    25    26    1
    26     5    27   ar
    27    27    28   ar
    28    28     2   ar
    29    12     6    1
    30    24    13   ar
    31    25     8    1
    32    22    16   ar
    33     1    29    1
    34     1    30    1
    35     1    31    1
    36     3    32    1
    37     4    33    1
    38     6    34    1
    39     7    35    1
    40     7    36    1
    41     8    37    1
    42     9    38    1
    43     9    39    1
    44    10    40    1
    45    10    41    1
    46    11    42    1
    47    12    43    1
    48    14    44    1
    49    17    45    1
    50    18    46    1
    51    21    47    1
    52    22    48    1
    53    26    49    1
    54    26    50    1
    55    26    51    1
    56    27    52    1
    57    28    53    1
