@<TRIPOS>MOLECULE
*****
 37 39 0 0 0
SMALL
GASTEIGER

@<TRIPOS>ATOM
      1 C          -2.4202    1.6965    1.7602 C.3     1  UNL1       -0.0386
      2 C          -2.7671    0.7346    0.6238 C.3     1  UNL1        0.1454
      3 C          -1.4587    0.2070    0.1341 C.ar    1  UNL1       -0.0237
      4 C          -0.9064    0.5585   -1.0790 C.ar    1  UNL1       -0.0536
      5 C           0.3223    0.0102   -1.4463 C.ar    1  UNL1       -0.0190
      6 C           0.9702   -0.8704   -0.6037 C.ar    1  UNL1        0.1285
      7 O           2.1902   -1.4029   -0.9894 O.3     1  UNL1       -0.4560
      8 C           3.4038   -0.8186   -0.7010 C.ar    1  UNL1        0.1284
      9 C           3.5330    0.3617    0.0043 C.ar    1  UNL1       -0.0193
     10 C           4.7644    0.9174    0.2746 C.ar    1  UNL1       -0.0583
     11 C           5.9228    0.2781   -0.1723 C.ar    1  UNL1       -0.0615
     12 C           5.8051   -0.9047   -0.8797 C.ar    1  UNL1       -0.0583
     13 C           4.5481   -1.4493   -1.1419 C.ar    1  UNL1       -0.0193
     14 C           0.4265   -1.2310    0.6160 C.ar    1  UNL1       -0.0190
     15 C          -0.7971   -0.6742    0.9630 C.ar    1  UNL1       -0.0536
     16 C          -3.5113   -0.4274    1.1639 C.2     1  UNL1        0.2396
     17 O          -3.5476   -0.6743    2.4108 O.2     1  UNL1       -0.2739
     18 N          -4.1986   -1.2841    0.2720 N.am    1  UNL1       -0.2387
     19 C          -4.5611   -0.7825   -1.0072 C.2     1  UNL1        0.3122
     20 O          -5.1699   -1.4962   -1.8331 O.2     1  UNL1       -0.2520
     21 N          -4.2192    0.5761   -1.3575 N.am    1  UNL1       -0.2387
     22 C          -3.5303    1.3949   -0.4355 C.2     1  UNL1        0.2396
     23 O          -3.5717    2.6385   -0.5220 O.2     1  UNL1       -0.2739
     24 H          -3.1224    1.4995    2.5986 H       1  UNL1        0.0247
     25 H          -1.3998    1.5129    2.1546 H       1  UNL1        0.0247
     26 H          -2.4660    2.7502    1.4365 H       1  UNL1        0.0247
     27 H          -1.4384    1.2508   -1.7170 H       1  UNL1        0.0622
     28 H           0.7535    0.2841   -2.3923 H       1  UNL1        0.0654
     29 H           2.6555    0.8642    0.3538 H       1  UNL1        0.0654
     30 H           4.8923    1.8410    0.8250 H       1  UNL1        0.0619
     31 H           6.8809    0.7272    0.0481 H       1  UNL1        0.0618
     32 H           6.6802   -1.4275   -1.2413 H       1  UNL1        0.0619
     33 H           4.5193   -2.3744   -1.6984 H       1  UNL1        0.0654
     34 H           0.9551   -1.9202    1.2522 H       1  UNL1        0.0654
     35 H          -1.1921   -0.9828    1.9307 H       1  UNL1        0.0622
     36 H          -4.4431   -2.2879    0.5476 H       1  UNL1        0.1591
     37 H          -4.5022    0.9053   -2.2997 H       1  UNL1        0.1591
@<TRIPOS>BOND
     1     1     2    1
     2     2     3    1
     3     3     4   ar
     4     4     5   ar
     5     5     6   ar
     6     6     7    1
     7     7     8    1
     8     8     9   ar
     9     9    10   ar
    10    10    11   ar
    11    11    12   ar
    12    12    13   ar
    13     6    14   ar
    14    14    15   ar
    15     2    16    1
    16    16    17    2
    17    16    18   am
    18    18    19   am
    19    19    20    2
    20    19    21   am
    21    21    22   am
    22    22    23    2
    23    22     2    1
    24    15     3   ar
    25    13     8   ar
    26     1    24    1
    27     1    25    1
    28     1    26    1
    29     4    27    1
    30     5    28    1
    31     9    29    1
    32    10    30    1
    33    11    31    1
    34    12    32    1
    35    13    33    1
    36    14    34    1
    37    15    35    1
    38    18    36    1
    39    21    37    1
