
     RDKit          3D

 37 39  0  0  0  0  0  0  0  0999 V2000
   -2.4202    1.6965    1.7602 C   0  0  0  0  0  0  0  0  0  0  0  0
   -2.7671    0.7346    0.6238 C   0  0  0  0  0  0  0  0  0  0  0  0
   -1.4587    0.2070    0.1341 C   0  0  0  0  0  0  0  0  0  0  0  0
   -0.9064    0.5585   -1.0790 C   0  0  0  0  0  0  0  0  0  0  0  0
    0.3223    0.0102   -1.4463 C   0  0  0  0  0  0  0  0  0  0  0  0
    0.9702   -0.8704   -0.6037 C   0  0  0  0  0  0  0  0  0  0  0  0
    2.1902   -1.4029   -0.9894 O   0  0  0  0  0  0  0  0  0  0  0  0
    3.4038   -0.8186   -0.7010 C   0  0  0  0  0  0  0  0  0  0  0  0
    3.5330    0.3617    0.0043 C   0  0  0  0  0  0  0  0  0  0  0  0
    4.7644    0.9174    0.2746 C   0  0  0  0  0  0  0  0  0  0  0  0
    5.9228    0.2781   -0.1723 C   0  0  0  0  0  0  0  0  0  0  0  0
    5.8051   -0.9047   -0.8797 C   0  0  0  0  0  0  0  0  0  0  0  0
    4.5481   -1.4493   -1.1419 C   0  0  0  0  0  0  0  0  0  0  0  0
    0.4265   -1.2310    0.6160 C   0  0  0  0  0  0  0  0  0  0  0  0
   -0.7971   -0.6742    0.9630 C   0  0  0  0  0  0  0  0  0  0  0  0
   -3.5113   -0.4274    1.1639 C   0  0  0  0  0  0  0  0  0  0  0  0
   -3.5476   -0.6743    2.4108 O   0  0  0  0  0  0  0  0  0  0  0  0
   -4.1986   -1.2841    0.2720 N   0  0  0  0  0  0  0  0  0  0  0  0
   -4.5611   -0.7825   -1.0072 C   0  0  0  0  0  0  0  0  0  0  0  0
   -5.1699   -1.4962   -1.8331 O   0  0  0  0  0  0  0  0  0  0  0  0
   -4.2192    0.5761   -1.3575 N   0  0  0  0  0  0  0  0  0  0  0  0
   -3.5303    1.3949   -0.4355 C   0  0  0  0  0  0  0  0  0  0  0  0
   -3.5717    2.6385   -0.5220 O   0  0  0  0  0  0  0  0  0  0  0  0
   -3.1224    1.4995    2.5986 H   0  0  0  0  0  0  0  0  0  0  0  0
   -1.3998    1.5129    2.1546 H   0  0  0  0  0  0  0  0  0  0  0  0
   -2.4660    2.7502    1.4365 H   0  0  0  0  0  0  0  0  0  0  0  0
   -1.4384    1.2508   -1.7170 H   0  0  0  0  0  0  0  0  0  0  0  0
    0.7535    0.2841   -2.3923 H   0  0  0  0  0  0  0  0  0  0  0  0
    2.6555    0.8642    0.3538 H   0  0  0  0  0  0  0  0  0  0  0  0
    4.8923    1.8410    0.8250 H   0  0  0  0  0  0  0  0  0  0  0  0
    6.8809    0.7272    0.0481 H   0  0  0  0  0  0  0  0  0  0  0  0
    6.6802   -1.4275   -1.2413 H   0  0  0  0  0  0  0  0  0  0  0  0
    4.5193   -2.3744   -1.6984 H   0  0  0  0  0  0  0  0  0  0  0  0
    0.9551   -1.9202    1.2522 H   0  0  0  0  0  0  0  0  0  0  0  0
   -1.1921   -0.9828    1.9307 H   0  0  0  0  0  0  0  0  0  0  0  0
   -4.4431   -2.2879    0.5476 H   0  0  0  0  0  0  0  0  0  0  0  0
   -4.5022    0.9053   -2.2997 H   0  0  0  0  0  0  0  0  0  0  0  0
  1  2  1  0
  2  3  1  0
  3  4  2  0
  4  5  1  0
  5  6  2  0
  6  7  1  0
  7  8  1  0
  8  9  2  0
  9 10  1  0
 10 11  2  0
 11 12  1  0
 12 13  2  0
  6 14  1  0
 14 15  2  0
  2 16  1  0
 16 17  2  0
 16 18  1  0
 18 19  1  0
 19 20  2  0
 19 21  1  0
 21 22  1  0
 22 23  2  0
 22  2  1  0
 15  3  1  0
 13  8  1  0
  1 24  1  0
  1 25  1  0
  1 26  1  0
  4 27  1  0
  5 28  1  0
  9 29  1  0
 10 30  1  0
 11 31  1  0
 12 32  1  0
 13 33  1  0
 14 34  1  0
 15 35  1  0
 18 36  1  0
 21 37  1  0
M  END
$$$$
