
     RDKit          3D

 38 39  0  0  0  0  0  0  0  0999 V2000
    4.0286    2.8727    0.1744 C   0  0  0  0  0  0  0  0  0  0  0  0
    3.8482    1.5227   -0.1527 O   0  0  0  0  0  0  0  0  0  0  0  0
    2.7019    0.7814   -0.0179 C   0  0  0  0  0  0  0  0  0  0  0  0
    2.6433   -0.5803   -0.3833 C   0  0  0  0  0  0  0  0  0  0  0  0
    1.4249   -1.1691   -0.1838 C   0  0  0  0  0  0  0  0  0  0  0  0
    1.3709   -2.4935   -0.5330 C   0  0  0  0  0  0  0  0  0  0  0  0
    0.2256   -3.2396   -0.3923 C   0  0  0  0  0  0  0  0  0  0  0  0
   -0.9397   -2.6620    0.1197 C   0  0  0  0  0  0  0  0  0  0  0  0
   -0.8577   -1.3077    0.4688 C   0  0  0  0  0  0  0  0  0  0  0  0
   -2.0905   -0.7380    1.0025 C   0  0  0  0  0  0  0  0  0  0  0  0
   -1.7526   -0.9098    2.6010 S   0  0  0  0  0  0  0  0  0  0  0  0
   -3.3173   -0.1701    0.6386 N   0  0  0  0  0  0  0  0  0  0  0  0
   -4.2734    0.2673    1.6683 C   0  0  0  0  0  0  0  0  0  0  0  0
   -3.7429    0.0326   -0.7243 C   0  0  0  0  0  0  0  0  0  0  0  0
   -2.9274    1.0913   -1.4179 C   0  0  0  0  0  0  0  0  0  0  0  0
   -1.8917    2.0000   -1.3012 O   0  0  0  0  0  0  0  0  0  0  0  0
   -3.2886    1.2790   -2.6096 O   0  0  0  0  0  0  0  0  0  0  0  0
    0.2970   -0.5741    0.3218 C   0  0  0  0  0  0  0  0  0  0  0  0
    0.3587    0.7464    0.6742 C   0  0  0  0  0  0  0  0  0  0  0  0
    1.5652    1.4044    0.4976 C   0  0  0  0  0  0  0  0  0  0  0  0
    3.9188   -1.0480   -0.8882 C   0  0  0  0  0  0  0  0  0  0  0  0
    4.8969   -0.9272    0.1070 F   0  0  0  0  0  0  0  0  0  0  0  0
    4.3781   -0.1340   -1.8760 F   0  0  0  0  0  0  0  0  0  0  0  0
    4.0179   -2.3134   -1.3597 F   0  0  0  0  0  0  0  0  0  0  0  0
    3.2960    3.3065    0.8471 H   0  0  0  0  0  0  0  0  0  0  0  0
    5.0786    3.0762    0.4950 H   0  0  0  0  0  0  0  0  0  0  0  0
    3.9252    3.4281   -0.8043 H   0  0  0  0  0  0  0  0  0  0  0  0
    2.1584   -3.0885   -0.9326 H   0  0  0  0  0  0  0  0  0  0  0  0
    0.1144   -4.3045   -0.6512 H   0  0  0  0  0  0  0  0  0  0  0  0
   -1.8582   -3.2282    0.2412 H   0  0  0  0  0  0  0  0  0  0  0  0
   -5.2055   -0.3316    1.4911 H   0  0  0  0  0  0  0  0  0  0  0  0
   -4.5299    1.3456    1.5438 H   0  0  0  0  0  0  0  0  0  0  0  0
   -3.9256   -0.0020    2.6728 H   0  0  0  0  0  0  0  0  0  0  0  0
   -3.6732   -0.9113   -1.3197 H   0  0  0  0  0  0  0  0  0  0  0  0
   -4.7964    0.3708   -0.8063 H   0  0  0  0  0  0  0  0  0  0  0  0
   -2.1376    2.9607   -1.0900 H   0  0  0  0  0  0  0  0  0  0  0  0
   -0.5361    1.2033    1.0700 H   0  0  0  0  0  0  0  0  0  0  0  0
    1.4954    2.4439    0.8090 H   0  0  0  0  0  0  0  0  0  0  0  0
  1  2  1  0
  2  3  1  0
  3  4  2  0
  4  5  1  0
  5  6  2  0
  6  7  1  0
  7  8  2  0
  8  9  1  0
  9 10  1  0
 10 11  2  0
 10 12  1  0
 12 13  1  0
 12 14  1  0
 14 15  1  0
 15 16  1  0
 15 17  2  0
  9 18  2  0
 18 19  1  0
 19 20  2  0
  4 21  1  0
 21 22  1  0
 21 23  1  0
 21 24  1  0
 20  3  1  0
 18  5  1  0
  1 25  1  0
  1 26  1  0
  1 27  1  0
  6 28  1  0
  7 29  1  0
  8 30  1  0
 13 31  1  0
 13 32  1  0
 13 33  1  0
 14 34  1  0
 14 35  1  0
 16 36  1  0
 19 37  1  0
 20 38  1  0
M  END
$$$$
