@<TRIPOS>MOLECULE
*****
 38 39 0 0 0
SMALL
GASTEIGER

@<TRIPOS>ATOM
      1 C           4.0286    2.8727    0.1744 C.3     1  UNL1        0.0788
      2 O           3.8482    1.5227   -0.1527 O.3     1  UNL1       -0.4945
      3 C           2.7019    0.7814   -0.0179 C.ar    1  UNL1        0.1324
      4 C           2.6433   -0.5803   -0.3833 C.ar    1  UNL1        0.1040
      5 C           1.4249   -1.1691   -0.1838 C.ar    1  UNL1       -0.0021
      6 C           1.3709   -2.4935   -0.5330 C.ar    1  UNL1       -0.0533
      7 C           0.2256   -3.2396   -0.3923 C.ar    1  UNL1       -0.0605
      8 C          -0.9397   -2.6620    0.1197 C.ar    1  UNL1       -0.0517
      9 C          -0.8577   -1.3077    0.4688 C.ar    1  UNL1        0.0110
     10 C          -2.0905   -0.7380    1.0025 C.2     1  UNL1        0.0828
     11 S          -1.7526   -0.9098    2.6010 S.2     1  UNL1       -0.0348
     12 N          -3.3173   -0.1701    0.6386 N.am    1  UNL1       -0.3162
     13 C          -4.2734    0.2673    1.6683 C.3     1  UNL1        0.0017
     14 C          -3.7429    0.0326   -0.7243 C.3     1  UNL1        0.1095
     15 C          -2.9274    1.0913   -1.4179 C.2     1  UNL1        0.3222
     16 O          -1.8917    2.0000   -1.3012 O.3     1  UNL1       -0.4795
     17 O          -3.2886    1.2790   -2.6096 O.2     1  UNL1       -0.2492
     18 C           0.2970   -0.5741    0.3218 C.ar    1  UNL1       -0.0077
     19 C           0.3587    0.7464    0.6742 C.ar    1  UNL1       -0.0499
     20 C           1.5652    1.4044    0.4976 C.ar    1  UNL1       -0.0188
     21 C           3.9188   -1.0480   -0.8882 C.3     1  UNL1        0.4213
     22 F           4.8969   -0.9272    0.1070 F       1  UNL1       -0.1657
     23 F           4.3781   -0.1340   -1.8760 F       1  UNL1       -0.1657
     24 F           4.0179   -2.3134   -1.3597 F       1  UNL1       -0.1657
     25 H           3.2960    3.3065    0.8471 H       1  UNL1        0.0660
     26 H           5.0786    3.0762    0.4950 H       1  UNL1        0.0660
     27 H           3.9252    3.4281   -0.8043 H       1  UNL1        0.0660
     28 H           2.1584   -3.0885   -0.9326 H       1  UNL1        0.0624
     29 H           0.1144   -4.3045   -0.6512 H       1  UNL1        0.0618
     30 H          -1.8582   -3.2282    0.2412 H       1  UNL1        0.0624
     31 H          -5.2055   -0.3316    1.4911 H       1  UNL1        0.0428
     32 H          -4.5299    1.3456    1.5438 H       1  UNL1        0.0428
     33 H          -3.9256   -0.0020    2.6728 H       1  UNL1        0.0428
     34 H          -3.6732   -0.9113   -1.3197 H       1  UNL1        0.0579
     35 H          -4.7964    0.3708   -0.8063 H       1  UNL1        0.0579
     36 H          -2.1376    2.9607   -1.0900 H       1  UNL1        0.2951
     37 H          -0.5361    1.2033    1.0700 H       1  UNL1        0.0625
     38 H           1.4954    2.4439    0.8090 H       1  UNL1        0.0654
@<TRIPOS>BOND
     1     1     2    1
     2     2     3    1
     3     3     4   ar
     4     4     5   ar
     5     5     6   ar
     6     6     7   ar
     7     7     8   ar
     8     8     9   ar
     9     9    10    1
    10    10    11    2
    11    10    12    1
    12    12    13    1
    13    12    14    1
    14    14    15    1
    15    15    16    1
    16    15    17    2
    17     9    18   ar
    18    18    19   ar
    19    19    20   ar
    20     4    21    1
    21    21    22    1
    22    21    23    1
    23    21    24    1
    24    20     3   ar
    25    18     5   ar
    26     1    25    1
    27     1    26    1
    28     1    27    1
    29     6    28    1
    30     7    29    1
    31     8    30    1
    32    13    31    1
    33    13    32    1
    34    13    33    1
    35    14    34    1
    36    14    35    1
    37    16    36    1
    38    19    37    1
    39    20    38    1
