@<TRIPOS>MOLECULE
*****
 247 247 0 0 0
SMALL
GASTEIGER

@<TRIPOS>ATOM
      1 C          -3.3482   -8.8787   -1.7835 C.3     1  UNL1       -0.0600
      2 C          -1.8899   -8.6362   -2.2441 C.3     1  UNL1       -0.0369
      3 C          -2.0080   -7.5026   -3.2043 C.3     1  UNL1       -0.0600
      4 C          -1.5007   -9.9510   -2.9049 C.3     1  UNL1       -0.0600
      5 C          -1.1668   -8.3808   -0.9851 C.3     1  UNL1       -0.0389
      6 C           0.2704   -8.1040   -0.9714 C.3     1  UNL1       -0.0094
      7 C           0.6137   -7.9109    0.5262 C.3     1  UNL1       -0.0558
      8 C           1.1683   -9.2483   -1.3665 C.3     1  UNL1       -0.0558
      9 C           0.7050   -6.8481   -1.6344 C.ar    1  UNL1       -0.0415
     10 C           1.0670   -6.7784   -2.9858 C.ar    1  UNL1       -0.0546
     11 C           1.4733   -5.6011   -3.5946 C.ar    1  UNL1       -0.0197
     12 C           1.5338   -4.4407   -2.8721 C.ar    1  UNL1        0.1206
     13 O           1.9321   -3.2087   -3.4086 O.3     1  UNL1       -0.4897
     14 C           1.9496   -2.1168   -2.5132 C.3     1  UNL1        0.1128
     15 C           2.3891   -0.8136   -3.1766 C.3     1  UNL1        0.0818
     16 O           1.5651   -0.4429   -4.1892 O.3     1  UNL1       -0.3742
     17 C           1.8699    0.7168   -4.8154 C.3     1  UNL1        0.0711
     18 C           3.1269    0.7378   -5.5695 C.3     1  UNL1        0.0711
     19 O           4.3164    0.5156   -4.8876 O.3     1  UNL1       -0.3752
     20 C           5.3144    0.5122   -5.8489 C.3     1  UNL1        0.0711
     21 C           6.6732    0.2759   -5.3376 C.3     1  UNL1        0.0711
     22 O           7.2132    1.1196   -4.4687 O.3     1  UNL1       -0.3752
     23 C           6.6673    1.2676   -3.2197 C.3     1  UNL1        0.0711
     24 C           7.5441    2.2441   -2.5002 C.3     1  UNL1        0.0711
     25 O           7.2116    2.5467   -1.2006 O.3     1  UNL1       -0.3752
     26 C           8.1456    3.4523   -0.6927 C.3     1  UNL1        0.0711
     27 C           7.9794    3.8035    0.7160 C.3     1  UNL1        0.0711
     28 O           8.0548    2.7536    1.6388 O.3     1  UNL1       -0.3752
     29 C           8.1361    3.3908    2.9008 C.3     1  UNL1        0.0711
     30 C           8.2451    2.4417    4.0365 C.3     1  UNL1        0.0711
     31 O           7.1716    1.5832    4.2203 O.3     1  UNL1       -0.3752
     32 C           6.0416    2.3358    4.6133 C.3     1  UNL1        0.0711
     33 C           4.8938    1.3973    4.8617 C.3     1  UNL1        0.0711
     34 O           3.8229    2.1536    5.2758 O.3     1  UNL1       -0.3752
     35 C           3.3504    3.1330    4.5133 C.3     1  UNL1        0.0711
     36 C           2.1873    3.9137    5.1418 C.3     1  UNL1        0.0711
     37 O           2.5192    4.4727    6.2888 O.3     1  UNL1       -0.3752
     38 C           2.4289    4.0771    7.5318 C.3     1  UNL1        0.0711
     39 C           2.8076    2.6971    7.9941 C.3     1  UNL1        0.0711
     40 O           1.9994    1.7738    7.3855 O.3     1  UNL1       -0.3752
     41 C           2.3012    0.4662    7.7554 C.3     1  UNL1        0.0711
     42 C           1.2679   -0.4342    7.0578 C.3     1  UNL1        0.0711
     43 O           1.3320   -0.3007    5.6935 O.3     1  UNL1       -0.3752
     44 C           0.3299   -1.0129    5.0135 C.3     1  UNL1        0.0711
     45 C           0.4913   -0.7732    3.5145 C.3     1  UNL1        0.0711
     46 O          -0.4224   -1.3724    2.7362 O.3     1  UNL1       -0.3752
     47 C          -0.5058   -2.7396    2.7652 C.3     1  UNL1        0.0711
     48 C          -1.6785   -3.1215    1.8054 C.3     1  UNL1        0.0711
     49 O          -1.3614   -2.6455    0.5563 O.3     1  UNL1       -0.3752
     50 C          -2.4080   -2.7525   -0.3172 C.3     1  UNL1        0.0711
     51 C          -2.8483   -4.1547   -0.5591 C.3     1  UNL1        0.0711
     52 O          -3.9483   -4.1973   -1.4431 O.3     1  UNL1       -0.3752
     53 C          -3.6017   -3.6425   -2.6478 C.3     1  UNL1        0.0711
     54 C          -4.8239   -3.5947   -3.6102 C.3     1  UNL1        0.0711
     55 O          -4.3555   -3.0326   -4.7499 O.3     1  UNL1       -0.3752
     56 C          -5.1433   -2.7345   -5.7929 C.3     1  UNL1        0.0711
     57 C          -6.1409   -1.6507   -5.4593 C.3     1  UNL1        0.0711
     58 O          -6.9570   -2.0375   -4.4533 O.3     1  UNL1       -0.3752
     59 C          -7.8848   -1.1247   -3.9868 C.3     1  UNL1        0.0711
     60 C          -7.2576    0.1136   -3.4280 C.3     1  UNL1        0.0711
     61 O          -8.2024    1.0408   -2.9243 O.3     1  UNL1       -0.3752
     62 C          -7.4142    2.0997   -2.4068 C.3     1  UNL1        0.0711
     63 C          -8.2848    3.1072   -1.7002 C.3     1  UNL1        0.0711
     64 O          -7.5211    4.1734   -1.1559 O.3     1  UNL1       -0.3752
     65 C          -8.3377    4.9745   -0.3792 C.3     1  UNL1        0.0711
     66 C          -7.5894    6.0971    0.3356 C.3     1  UNL1        0.0711
     67 O          -6.6022    5.5619    1.1342 O.3     1  UNL1       -0.3752
     68 C          -6.0691    6.4941    1.9910 C.3     1  UNL1        0.0711
     69 C          -4.8738    5.8696    2.7514 C.3     1  UNL1        0.0711
     70 O          -5.2962    4.7794    3.3877 O.3     1  UNL1       -0.3752
     71 C          -6.2518    4.7112    4.2970 C.3     1  UNL1        0.0711
     72 C          -6.4714    3.2195    4.6557 C.3     1  UNL1        0.0711
     73 O          -6.8381    2.4737    3.5771 O.3     1  UNL1       -0.3752
     74 C          -5.9932    2.3003    2.5407 C.3     1  UNL1        0.0711
     75 C          -4.7182    1.5192    2.8440 C.3     1  UNL1        0.0711
     76 O          -3.9929    1.5101    1.6671 O.3     1  UNL1       -0.3752
     77 C          -2.8965    0.7036    1.6410 C.3     1  UNL1        0.0711
     78 C          -2.0532    0.8692    0.3785 C.3     1  UNL1        0.0711
     79 O          -2.7681    0.6411   -0.7567 O.3     1  UNL1       -0.3752
     80 C          -1.9628    0.7174   -1.8959 C.3     1  UNL1        0.0711
     81 C          -2.8394    0.6467   -3.1393 C.3     1  UNL1        0.0711
     82 O          -3.7382    1.7413   -3.1588 O.3     1  UNL1       -0.3752
     83 C          -3.0462    2.8647   -3.4842 C.3     1  UNL1        0.0711
     84 C          -3.8018    4.1718   -3.3748 C.3     1  UNL1        0.0711
     85 O          -4.2105    4.3875   -2.0503 O.3     1  UNL1       -0.3752
     86 C          -3.0950    4.3765   -1.2080 C.3     1  UNL1        0.0711
     87 C          -2.0691    5.4087   -1.4740 C.3     1  UNL1        0.0711
     88 O          -0.9821    5.2600   -0.5767 O.3     1  UNL1       -0.3752
     89 C          -0.0493    6.2506   -0.7478 C.3     1  UNL1        0.0711
     90 C           1.1455    5.9866    0.1389 C.3     1  UNL1        0.0711
     91 O           1.7412    4.7605   -0.2145 O.3     1  UNL1       -0.3752
     92 C           2.8348    4.5466    0.6031 C.3     1  UNL1        0.0711
     93 C           3.6029    3.3024    0.2221 C.3     1  UNL1        0.0711
     94 O           2.8901    2.1343    0.2731 O.3     1  UNL1       -0.3752
     95 C           3.6321    1.0422   -0.1482 C.3     1  UNL1        0.0711
     96 C           4.8445    0.7303    0.6548 C.3     1  UNL1        0.0711
     97 O           5.5133   -0.3857    0.1310 O.3     1  UNL1       -0.3752
     98 C           6.6351   -0.6566    0.8671 C.3     1  UNL1        0.0711
     99 C           7.3657   -1.8408    0.3137 C.3     1  UNL1        0.0711
    100 O           6.7069   -3.0248    0.2771 O.3     1  UNL1       -0.3752
    101 C           5.5466   -3.0971   -0.4623 C.3     1  UNL1        0.0708
    102 C           5.0734   -4.5608   -0.3269 C.3     1  UNL1        0.0676
    103 O           4.8707   -4.7828    1.0146 O.3     1  UNL1       -0.3927
    104 C           1.1657   -4.5495   -1.5318 C.ar    1  UNL1       -0.0197
    105 C           0.7580   -5.6711   -0.8713 C.ar    1  UNL1       -0.0546
    106 H          -3.7071   -8.0277   -1.2043 H       1  UNL1        0.0235
    107 H          -3.3647   -9.7757   -1.1368 H       1  UNL1        0.0235
    108 H          -3.9669   -9.1173   -2.6815 H       1  UNL1        0.0235
    109 H          -1.7901   -6.5547   -2.6685 H       1  UNL1        0.0235
    110 H          -3.0605   -7.3456   -3.5939 H       1  UNL1        0.0235
    111 H          -1.4228   -7.6437   -4.1363 H       1  UNL1        0.0235
    112 H          -0.8499   -9.8245   -3.7856 H       1  UNL1        0.0235
    113 H          -1.0375  -10.5817   -2.0986 H       1  UNL1        0.0235
    114 H          -2.3898  -10.5160   -3.2519 H       1  UNL1        0.0235
    115 H          -1.6752   -7.4876   -0.5052 H       1  UNL1        0.0279
    116 H          -1.4438   -9.2107   -0.2816 H       1  UNL1        0.0279
    117 H           0.5874   -8.9058    1.0260 H       1  UNL1        0.0238
    118 H          -0.2258   -7.3451    0.9826 H       1  UNL1        0.0238
    119 H           1.5285   -7.3447    0.6781 H       1  UNL1        0.0238
    120 H           1.1477   -9.5100   -2.4187 H       1  UNL1        0.0238
    121 H           0.9934  -10.0966   -0.6612 H       1  UNL1        0.0238
    122 H           2.2056   -8.9062   -1.1306 H       1  UNL1        0.0238
    123 H           1.0286   -7.6839   -3.5770 H       1  UNL1        0.0622
    124 H           1.7504   -5.5739   -4.6384 H       1  UNL1        0.0654
    125 H           0.9581   -1.9611   -2.0392 H       1  UNL1        0.0720
    126 H           2.6791   -2.3463   -1.7153 H       1  UNL1        0.0720
    127 H           3.4499   -0.8889   -3.4265 H       1  UNL1        0.0594
    128 H           2.2466   -0.0338   -2.3676 H       1  UNL1        0.0594
    129 H           1.0410    0.9497   -5.5614 H       1  UNL1        0.0583
    130 H           1.8310    1.6054   -4.1166 H       1  UNL1        0.0583
    131 H           3.0498   -0.0414   -6.3891 H       1  UNL1        0.0583
    132 H           3.2091    1.7514   -6.0922 H       1  UNL1        0.0583
    133 H           5.0146   -0.2570   -6.6299 H       1  UNL1        0.0583
    134 H           5.2166    1.5025   -6.3813 H       1  UNL1        0.0583
    135 H           7.3590    0.2196   -6.2494 H       1  UNL1        0.0583
    136 H           6.6933   -0.8071   -4.9193 H       1  UNL1        0.0583
    137 H           6.6781    0.2686   -2.7153 H       1  UNL1        0.0583
    138 H           5.6127    1.6269   -3.2484 H       1  UNL1        0.0583
    139 H           8.5932    1.8307   -2.5513 H       1  UNL1        0.0583
    140 H           7.5782    3.1698   -3.1335 H       1  UNL1        0.0583
    141 H           9.1893    3.1160   -0.9571 H       1  UNL1        0.0583
    142 H           8.0328    4.4149   -1.2929 H       1  UNL1        0.0583
    143 H           7.0095    4.3508    0.8627 H       1  UNL1        0.0583
    144 H           8.7955    4.5142    1.0429 H       1  UNL1        0.0583
    145 H           9.0662    4.0026    2.8603 H       1  UNL1        0.0583
    146 H           7.2915    4.1059    2.9893 H       1  UNL1        0.0583
    147 H           9.1364    1.7978    3.8688 H       1  UNL1        0.0583
    148 H           8.4636    2.9948    4.9774 H       1  UNL1        0.0583
    149 H           5.7561    2.9861    3.7343 H       1  UNL1        0.0583
    150 H           6.2177    2.9428    5.5050 H       1  UNL1        0.0583
    151 H           5.1677    0.6402    5.6534 H       1  UNL1        0.0583
    152 H           4.6290    0.8016    3.9892 H       1  UNL1        0.0583
    153 H           3.0380    2.8201    3.4824 H       1  UNL1        0.0583
    154 H           4.1468    3.9270    4.3516 H       1  UNL1        0.0583
    155 H           1.8453    4.6849    4.3756 H       1  UNL1        0.0583
    156 H           1.3074    3.2195    5.1861 H       1  UNL1        0.0583
    157 H           1.3479    4.2158    7.9111 H       1  UNL1        0.0583
    158 H           3.0131    4.7960    8.2071 H       1  UNL1        0.0583
    159 H           2.5570    2.6962    9.1091 H       1  UNL1        0.0583
    160 H           3.8887    2.5333    7.9180 H       1  UNL1        0.0583
    161 H           3.2949    0.1648    7.4225 H       1  UNL1        0.0583
    162 H           2.2308    0.3212    8.8451 H       1  UNL1        0.0583
    163 H           0.2798   -0.1541    7.4655 H       1  UNL1        0.0583
    164 H           1.4619   -1.4701    7.4199 H       1  UNL1        0.0583
    165 H          -0.6483   -0.7069    5.3845 H       1  UNL1        0.0583
    166 H           0.4671   -2.0843    5.2600 H       1  UNL1        0.0583
    167 H           1.5154   -1.1334    3.2504 H       1  UNL1        0.0583
    168 H           0.5242    0.3305    3.3677 H       1  UNL1        0.0583
    169 H          -0.8212   -3.1054    3.7600 H       1  UNL1        0.0583
    170 H           0.3956   -3.2593    2.4076 H       1  UNL1        0.0583
    171 H          -2.6191   -2.6852    2.1591 H       1  UNL1        0.0583
    172 H          -1.7517   -4.2194    1.7705 H       1  UNL1        0.0583
    173 H          -1.9972   -2.3254   -1.2863 H       1  UNL1        0.0583
    174 H          -3.2830   -2.1353   -0.0056 H       1  UNL1        0.0583
    175 H          -3.0448   -4.7426    0.3460 H       1  UNL1        0.0583
    176 H          -2.0224   -4.6533   -1.1500 H       1  UNL1        0.0583
    177 H          -2.8090   -4.1779   -3.1947 H       1  UNL1        0.0583
    178 H          -3.3263   -2.5752   -2.5069 H       1  UNL1        0.0583
    179 H          -5.6413   -3.0992   -3.0965 H       1  UNL1        0.0583
    180 H          -5.1034   -4.6599   -3.8245 H       1  UNL1        0.0583
    181 H          -5.6688   -3.6544   -6.1704 H       1  UNL1        0.0583
    182 H          -4.5263   -2.3170   -6.6372 H       1  UNL1        0.0583
    183 H          -5.5095   -0.7863   -5.0927 H       1  UNL1        0.0583
    184 H          -6.6746   -1.3317   -6.3889 H       1  UNL1        0.0583
    185 H          -8.4305   -1.6431   -3.1497 H       1  UNL1        0.0583
    186 H          -8.6633   -0.8896   -4.7510 H       1  UNL1        0.0583
    187 H          -6.6700    0.6236   -4.2453 H       1  UNL1        0.0583
    188 H          -6.5301   -0.1394   -2.6453 H       1  UNL1        0.0583
    189 H          -6.6063    1.7127   -1.7590 H       1  UNL1        0.0583
    190 H          -6.9716    2.6017   -3.2889 H       1  UNL1        0.0583
    191 H          -8.8568    2.5909   -0.9075 H       1  UNL1        0.0583
    192 H          -9.0267    3.5057   -2.4225 H       1  UNL1        0.0583
    193 H          -9.0777    5.4542   -1.0737 H       1  UNL1        0.0583
    194 H          -8.9262    4.4289    0.3796 H       1  UNL1        0.0583
    195 H          -8.3280    6.6500    0.9555 H       1  UNL1        0.0583
    196 H          -7.1958    6.7885   -0.4264 H       1  UNL1        0.0583
    197 H          -5.7046    7.3544    1.4142 H       1  UNL1        0.0583
    198 H          -6.8361    6.7682    2.7310 H       1  UNL1        0.0583
    199 H          -4.5957    6.6674    3.5075 H       1  UNL1        0.0583
    200 H          -4.0269    5.7555    2.0693 H       1  UNL1        0.0583
    201 H          -7.2233    5.1297    3.9148 H       1  UNL1        0.0583
    202 H          -6.0661    5.2558    5.2504 H       1  UNL1        0.0583
    203 H          -5.6348    2.8507    5.2506 H       1  UNL1        0.0583
    204 H          -7.3591    3.2300    5.3552 H       1  UNL1        0.0583
    205 H          -5.7299    3.2128    2.0259 H       1  UNL1        0.0583
    206 H          -6.5642    1.6656    1.7713 H       1  UNL1        0.0583
    207 H          -4.1414    1.9366    3.6657 H       1  UNL1        0.0583
    208 H          -4.9764    0.4525    3.0641 H       1  UNL1        0.0583
    209 H          -2.2646    0.8659    2.5321 H       1  UNL1        0.0583
    210 H          -3.2692   -0.3532    1.6068 H       1  UNL1        0.0583
    211 H          -1.6026    1.8744    0.3545 H       1  UNL1        0.0583
    212 H          -1.1942    0.1500    0.3941 H       1  UNL1        0.0583
    213 H          -1.2714   -0.1785   -1.9154 H       1  UNL1        0.0583
    214 H          -1.2975    1.5760   -1.9375 H       1  UNL1        0.0583
    215 H          -3.3955   -0.3026   -3.1960 H       1  UNL1        0.0583
    216 H          -2.1991    0.7149   -4.0394 H       1  UNL1        0.0583
    217 H          -2.7533    2.7249   -4.5796 H       1  UNL1        0.0583
    218 H          -2.0714    2.9091   -2.9787 H       1  UNL1        0.0583
    219 H          -4.7248    4.0673   -3.9672 H       1  UNL1        0.0583
    220 H          -3.2149    4.9891   -3.8118 H       1  UNL1        0.0583
    221 H          -2.6820    3.3638   -1.1042 H       1  UNL1        0.0583
    222 H          -3.5328    4.6261   -0.1944 H       1  UNL1        0.0583
    223 H          -2.4238    6.4451   -1.3070 H       1  UNL1        0.0583
    224 H          -1.6308    5.3822   -2.4866 H       1  UNL1        0.0583
    225 H           0.2995    6.1658   -1.8174 H       1  UNL1        0.0583
    226 H          -0.4818    7.2479   -0.5753 H       1  UNL1        0.0583
    227 H           0.9066    5.9332    1.2000 H       1  UNL1        0.0583
    228 H           1.8843    6.8207   -0.0051 H       1  UNL1        0.0583
    229 H           3.4861    5.4353    0.5103 H       1  UNL1        0.0583
    230 H           2.5377    4.4558    1.6723 H       1  UNL1        0.0583
    231 H           4.0431    3.5039   -0.7817 H       1  UNL1        0.0583
    232 H           4.4575    3.2224    0.9354 H       1  UNL1        0.0583
    233 H           3.9349    1.1961   -1.2283 H       1  UNL1        0.0583
    234 H           2.9453    0.1656   -0.0731 H       1  UNL1        0.0583
    235 H           5.5561    1.5621    0.6895 H       1  UNL1        0.0583
    236 H           4.5760    0.4608    1.7105 H       1  UNL1        0.0583
    237 H           6.4093   -0.8775    1.9402 H       1  UNL1        0.0583
    238 H           7.3548    0.2151    0.8732 H       1  UNL1        0.0583
    239 H           7.7420   -1.6446   -0.7249 H       1  UNL1        0.0583
    240 H           8.3158   -2.0253    0.9048 H       1  UNL1        0.0583
    241 H           5.6676   -2.9096   -1.5292 H       1  UNL1        0.0583
    242 H           4.7368   -2.5191    0.0334 H       1  UNL1        0.0583
    243 H           5.8066   -5.2568   -0.7389 H       1  UNL1        0.0580
    244 H           4.1152   -4.6919   -0.8681 H       1  UNL1        0.0580
    245 H           4.8253   -3.9336    1.5318 H       1  UNL1        0.2095
    246 H           1.2014   -3.6350   -0.9246 H       1  UNL1        0.0654
    247 H           0.4971   -5.6237    0.1770 H       1  UNL1        0.0622
@<TRIPOS>BOND
     1     1     2    1
     2     2     3    1
     3     2     4    1
     4     2     5    1
     5     5     6    1
     6     6     7    1
     7     6     8    1
     8     6     9    1
     9     9    10   ar
    10    10    11   ar
    11    11    12   ar
    12    12    13    1
    13    13    14    1
    14    14    15    1
    15    15    16    1
    16    16    17    1
    17    17    18    1
    18    18    19    1
    19    19    20    1
    20    20    21    1
    21    21    22    1
    22    22    23    1
    23    23    24    1
    24    24    25    1
    25    25    26    1
    26    26    27    1
    27    27    28    1
    28    28    29    1
    29    29    30    1
    30    30    31    1
    31    31    32    1
    32    32    33    1
    33    33    34    1
    34    34    35    1
    35    35    36    1
    36    36    37    1
    37    37    38    1
    38    38    39    1
    39    39    40    1
    40    40    41    1
    41    41    42    1
    42    42    43    1
    43    43    44    1
    44    44    45    1
    45    45    46    1
    46    46    47    1
    47    47    48    1
    48    48    49    1
    49    49    50    1
    50    50    51    1
    51    51    52    1
    52    52    53    1
    53    53    54    1
    54    54    55    1
    55    55    56    1
    56    56    57    1
    57    57    58    1
    58    58    59    1
    59    59    60    1
    60    60    61    1
    61    61    62    1
    62    62    63    1
    63    63    64    1
    64    64    65    1
    65    65    66    1
    66    66    67    1
    67    67    68    1
    68    68    69    1
    69    69    70    1
    70    70    71    1
    71    71    72    1
    72    72    73    1
    73    73    74    1
    74    74    75    1
    75    75    76    1
    76    76    77    1
    77    77    78    1
    78    78    79    1
    79    79    80    1
    80    80    81    1
    81    81    82    1
    82    82    83    1
    83    83    84    1
    84    84    85    1
    85    85    86    1
    86    86    87    1
    87    87    88    1
    88    88    89    1
    89    89    90    1
    90    90    91    1
    91    91    92    1
    92    92    93    1
    93    93    94    1
    94    94    95    1
    95    95    96    1
    96    96    97    1
    97    97    98    1
    98    98    99    1
    99    99   100    1
   100   100   101    1
   101   101   102    1
   102   102   103    1
   103    12   104   ar
   104   104   105   ar
   105   105     9   ar
   106     1   106    1
   107     1   107    1
   108     1   108    1
   109     3   109    1
   110     3   110    1
   111     3   111    1
   112     4   112    1
   113     4   113    1
   114     4   114    1
   115     5   115    1
   116     5   116    1
   117     7   117    1
   118     7   118    1
   119     7   119    1
   120     8   120    1
   121     8   121    1
   122     8   122    1
   123    10   123    1
   124    11   124    1
   125    14   125    1
   126    14   126    1
   127    15   127    1
   128    15   128    1
   129    17   129    1
   130    17   130    1
   131    18   131    1
   132    18   132    1
   133    20   133    1
   134    20   134    1
   135    21   135    1
   136    21   136    1
   137    23   137    1
   138    23   138    1
   139    24   139    1
   140    24   140    1
   141    26   141    1
   142    26   142    1
   143    27   143    1
   144    27   144    1
   145    29   145    1
   146    29   146    1
   147    30   147    1
   148    30   148    1
   149    32   149    1
   150    32   150    1
   151    33   151    1
   152    33   152    1
   153    35   153    1
   154    35   154    1
   155    36   155    1
   156    36   156    1
   157    38   157    1
   158    38   158    1
   159    39   159    1
   160    39   160    1
   161    41   161    1
   162    41   162    1
   163    42   163    1
   164    42   164    1
   165    44   165    1
   166    44   166    1
   167    45   167    1
   168    45   168    1
   169    47   169    1
   170    47   170    1
   171    48   171    1
   172    48   172    1
   173    50   173    1
   174    50   174    1
   175    51   175    1
   176    51   176    1
   177    53   177    1
   178    53   178    1
   179    54   179    1
   180    54   180    1
   181    56   181    1
   182    56   182    1
   183    57   183    1
   184    57   184    1
   185    59   185    1
   186    59   186    1
   187    60   187    1
   188    60   188    1
   189    62   189    1
   190    62   190    1
   191    63   191    1
   192    63   192    1
   193    65   193    1
   194    65   194    1
   195    66   195    1
   196    66   196    1
   197    68   197    1
   198    68   198    1
   199    69   199    1
   200    69   200    1
   201    71   201    1
   202    71   202    1
   203    72   203    1
   204    72   204    1
   205    74   205    1
   206    74   206    1
   207    75   207    1
   208    75   208    1
   209    77   209    1
   210    77   210    1
   211    78   211    1
   212    78   212    1
   213    80   213    1
   214    80   214    1
   215    81   215    1
   216    81   216    1
   217    83   217    1
   218    83   218    1
   219    84   219    1
   220    84   220    1
   221    86   221    1
   222    86   222    1
   223    87   223    1
   224    87   224    1
   225    89   225    1
   226    89   226    1
   227    90   227    1
   228    90   228    1
   229    92   229    1
   230    92   230    1
   231    93   231    1
   232    93   232    1
   233    95   233    1
   234    95   234    1
   235    96   235    1
   236    96   236    1
   237    98   237    1
   238    98   238    1
   239    99   239    1
   240    99   240    1
   241   101   241    1
   242   101   242    1
   243   102   243    1
   244   102   244    1
   245   103   245    1
   246   104   246    1
   247   105   247    1
