
     RDKit          3D

247247  0  0  0  0  0  0  0  0999 V2000
   -3.3482   -8.8787   -1.7835 C   0  0  0  0  0  0  0  0  0  0  0  0
   -1.8899   -8.6362   -2.2441 C   0  0  0  0  0  0  0  0  0  0  0  0
   -2.0080   -7.5026   -3.2043 C   0  0  0  0  0  0  0  0  0  0  0  0
   -1.5007   -9.9510   -2.9049 C   0  0  0  0  0  0  0  0  0  0  0  0
   -1.1668   -8.3808   -0.9851 C   0  0  0  0  0  0  0  0  0  0  0  0
    0.2704   -8.1040   -0.9714 C   0  0  0  0  0  0  0  0  0  0  0  0
    0.6137   -7.9109    0.5262 C   0  0  0  0  0  0  0  0  0  0  0  0
    1.1683   -9.2483   -1.3665 C   0  0  0  0  0  0  0  0  0  0  0  0
    0.7050   -6.8481   -1.6344 C   0  0  0  0  0  0  0  0  0  0  0  0
    1.0670   -6.7784   -2.9858 C   0  0  0  0  0  0  0  0  0  0  0  0
    1.4733   -5.6011   -3.5946 C   0  0  0  0  0  0  0  0  0  0  0  0
    1.5338   -4.4407   -2.8721 C   0  0  0  0  0  0  0  0  0  0  0  0
    1.9321   -3.2087   -3.4086 O   0  0  0  0  0  0  0  0  0  0  0  0
    1.9496   -2.1168   -2.5132 C   0  0  0  0  0  0  0  0  0  0  0  0
    2.3891   -0.8136   -3.1766 C   0  0  0  0  0  0  0  0  0  0  0  0
    1.5651   -0.4429   -4.1892 O   0  0  0  0  0  0  0  0  0  0  0  0
    1.8699    0.7168   -4.8154 C   0  0  0  0  0  0  0  0  0  0  0  0
    3.1269    0.7378   -5.5695 C   0  0  0  0  0  0  0  0  0  0  0  0
    4.3164    0.5156   -4.8876 O   0  0  0  0  0  0  0  0  0  0  0  0
    5.3144    0.5122   -5.8489 C   0  0  0  0  0  0  0  0  0  0  0  0
    6.6732    0.2759   -5.3376 C   0  0  0  0  0  0  0  0  0  0  0  0
    7.2132    1.1196   -4.4687 O   0  0  0  0  0  0  0  0  0  0  0  0
    6.6673    1.2676   -3.2197 C   0  0  0  0  0  0  0  0  0  0  0  0
    7.5441    2.2441   -2.5002 C   0  0  0  0  0  0  0  0  0  0  0  0
    7.2116    2.5467   -1.2006 O   0  0  0  0  0  0  0  0  0  0  0  0
    8.1456    3.4523   -0.6927 C   0  0  0  0  0  0  0  0  0  0  0  0
    7.9794    3.8035    0.7160 C   0  0  0  0  0  0  0  0  0  0  0  0
    8.0548    2.7536    1.6388 O   0  0  0  0  0  0  0  0  0  0  0  0
    8.1361    3.3908    2.9008 C   0  0  0  0  0  0  0  0  0  0  0  0
    8.2451    2.4417    4.0365 C   0  0  0  0  0  0  0  0  0  0  0  0
    7.1716    1.5832    4.2203 O   0  0  0  0  0  0  0  0  0  0  0  0
    6.0416    2.3358    4.6133 C   0  0  0  0  0  0  0  0  0  0  0  0
    4.8938    1.3973    4.8617 C   0  0  0  0  0  0  0  0  0  0  0  0
    3.8229    2.1536    5.2758 O   0  0  0  0  0  0  0  0  0  0  0  0
    3.3504    3.1330    4.5133 C   0  0  0  0  0  0  0  0  0  0  0  0
    2.1873    3.9137    5.1418 C   0  0  0  0  0  0  0  0  0  0  0  0
    2.5192    4.4727    6.2888 O   0  0  0  0  0  0  0  0  0  0  0  0
    2.4289    4.0771    7.5318 C   0  0  0  0  0  0  0  0  0  0  0  0
    2.8076    2.6971    7.9941 C   0  0  0  0  0  0  0  0  0  0  0  0
    1.9994    1.7738    7.3855 O   0  0  0  0  0  0  0  0  0  0  0  0
    2.3012    0.4662    7.7554 C   0  0  0  0  0  0  0  0  0  0  0  0
    1.2679   -0.4342    7.0578 C   0  0  0  0  0  0  0  0  0  0  0  0
    1.3320   -0.3007    5.6935 O   0  0  0  0  0  0  0  0  0  0  0  0
    0.3299   -1.0129    5.0135 C   0  0  0  0  0  0  0  0  0  0  0  0
    0.4913   -0.7732    3.5145 C   0  0  0  0  0  0  0  0  0  0  0  0
   -0.4224   -1.3724    2.7362 O   0  0  0  0  0  0  0  0  0  0  0  0
   -0.5058   -2.7396    2.7652 C   0  0  0  0  0  0  0  0  0  0  0  0
   -1.6785   -3.1215    1.8054 C   0  0  0  0  0  0  0  0  0  0  0  0
   -1.3614   -2.6455    0.5563 O   0  0  0  0  0  0  0  0  0  0  0  0
   -2.4080   -2.7525   -0.3172 C   0  0  0  0  0  0  0  0  0  0  0  0
   -2.8483   -4.1547   -0.5591 C   0  0  0  0  0  0  0  0  0  0  0  0
   -3.9483   -4.1973   -1.4431 O   0  0  0  0  0  0  0  0  0  0  0  0
   -3.6017   -3.6425   -2.6478 C   0  0  0  0  0  0  0  0  0  0  0  0
   -4.8239   -3.5947   -3.6102 C   0  0  0  0  0  0  0  0  0  0  0  0
   -4.3555   -3.0326   -4.7499 O   0  0  0  0  0  0  0  0  0  0  0  0
   -5.1433   -2.7345   -5.7929 C   0  0  0  0  0  0  0  0  0  0  0  0
   -6.1409   -1.6507   -5.4593 C   0  0  0  0  0  0  0  0  0  0  0  0
   -6.9570   -2.0375   -4.4533 O   0  0  0  0  0  0  0  0  0  0  0  0
   -7.8848   -1.1247   -3.9868 C   0  0  0  0  0  0  0  0  0  0  0  0
   -7.2576    0.1136   -3.4280 C   0  0  0  0  0  0  0  0  0  0  0  0
   -8.2024    1.0408   -2.9243 O   0  0  0  0  0  0  0  0  0  0  0  0
   -7.4142    2.0997   -2.4068 C   0  0  0  0  0  0  0  0  0  0  0  0
   -8.2848    3.1072   -1.7002 C   0  0  0  0  0  0  0  0  0  0  0  0
   -7.5211    4.1734   -1.1559 O   0  0  0  0  0  0  0  0  0  0  0  0
   -8.3377    4.9745   -0.3792 C   0  0  0  0  0  0  0  0  0  0  0  0
   -7.5894    6.0971    0.3356 C   0  0  0  0  0  0  0  0  0  0  0  0
   -6.6022    5.5619    1.1342 O   0  0  0  0  0  0  0  0  0  0  0  0
   -6.0691    6.4941    1.9910 C   0  0  0  0  0  0  0  0  0  0  0  0
   -4.8738    5.8696    2.7514 C   0  0  0  0  0  0  0  0  0  0  0  0
   -5.2962    4.7794    3.3877 O   0  0  0  0  0  0  0  0  0  0  0  0
   -6.2518    4.7112    4.2970 C   0  0  0  0  0  0  0  0  0  0  0  0
   -6.4714    3.2195    4.6557 C   0  0  0  0  0  0  0  0  0  0  0  0
   -6.8381    2.4737    3.5771 O   0  0  0  0  0  0  0  0  0  0  0  0
   -5.9932    2.3003    2.5407 C   0  0  0  0  0  0  0  0  0  0  0  0
   -4.7182    1.5192    2.8440 C   0  0  0  0  0  0  0  0  0  0  0  0
   -3.9929    1.5101    1.6671 O   0  0  0  0  0  0  0  0  0  0  0  0
   -2.8965    0.7036    1.6410 C   0  0  0  0  0  0  0  0  0  0  0  0
   -2.0532    0.8692    0.3785 C   0  0  0  0  0  0  0  0  0  0  0  0
   -2.7681    0.6411   -0.7567 O   0  0  0  0  0  0  0  0  0  0  0  0
   -1.9628    0.7174   -1.8959 C   0  0  0  0  0  0  0  0  0  0  0  0
   -2.8394    0.6467   -3.1393 C   0  0  0  0  0  0  0  0  0  0  0  0
   -3.7382    1.7413   -3.1588 O   0  0  0  0  0  0  0  0  0  0  0  0
   -3.0462    2.8647   -3.4842 C   0  0  0  0  0  0  0  0  0  0  0  0
   -3.8018    4.1718   -3.3748 C   0  0  0  0  0  0  0  0  0  0  0  0
   -4.2105    4.3875   -2.0503 O   0  0  0  0  0  0  0  0  0  0  0  0
   -3.0950    4.3765   -1.2080 C   0  0  0  0  0  0  0  0  0  0  0  0
   -2.0691    5.4087   -1.4740 C   0  0  0  0  0  0  0  0  0  0  0  0
   -0.9821    5.2600   -0.5767 O   0  0  0  0  0  0  0  0  0  0  0  0
   -0.0493    6.2506   -0.7478 C   0  0  0  0  0  0  0  0  0  0  0  0
    1.1455    5.9866    0.1389 C   0  0  0  0  0  0  0  0  0  0  0  0
    1.7412    4.7605   -0.2145 O   0  0  0  0  0  0  0  0  0  0  0  0
    2.8348    4.5466    0.6031 C   0  0  0  0  0  0  0  0  0  0  0  0
    3.6029    3.3024    0.2221 C   0  0  0  0  0  0  0  0  0  0  0  0
    2.8901    2.1343    0.2731 O   0  0  0  0  0  0  0  0  0  0  0  0
    3.6321    1.0422   -0.1482 C   0  0  0  0  0  0  0  0  0  0  0  0
    4.8445    0.7303    0.6548 C   0  0  0  0  0  0  0  0  0  0  0  0
    5.5133   -0.3857    0.1310 O   0  0  0  0  0  0  0  0  0  0  0  0
    6.6351   -0.6566    0.8671 C   0  0  0  0  0  0  0  0  0  0  0  0
    7.3657   -1.8408    0.3137 C   0  0  0  0  0  0  0  0  0  0  0  0
    6.7069   -3.0248    0.2771 O   0  0  0  0  0  0  0  0  0  0  0  0
    5.5466   -3.0971   -0.4623 C   0  0  0  0  0  0  0  0  0  0  0  0
    5.0734   -4.5608   -0.3269 C   0  0  0  0  0  0  0  0  0  0  0  0
    4.8707   -4.7828    1.0146 O   0  0  0  0  0  0  0  0  0  0  0  0
    1.1657   -4.5495   -1.5318 C   0  0  0  0  0  0  0  0  0  0  0  0
    0.7580   -5.6711   -0.8713 C   0  0  0  0  0  0  0  0  0  0  0  0
   -3.7071   -8.0277   -1.2043 H   0  0  0  0  0  0  0  0  0  0  0  0
   -3.3647   -9.7757   -1.1368 H   0  0  0  0  0  0  0  0  0  0  0  0
   -3.9669   -9.1173   -2.6815 H   0  0  0  0  0  0  0  0  0  0  0  0
   -1.7901   -6.5547   -2.6685 H   0  0  0  0  0  0  0  0  0  0  0  0
   -3.0605   -7.3456   -3.5939 H   0  0  0  0  0  0  0  0  0  0  0  0
   -1.4228   -7.6437   -4.1363 H   0  0  0  0  0  0  0  0  0  0  0  0
   -0.8499   -9.8245   -3.7856 H   0  0  0  0  0  0  0  0  0  0  0  0
   -1.0375  -10.5817   -2.0986 H   0  0  0  0  0  0  0  0  0  0  0  0
   -2.3898  -10.5160   -3.2519 H   0  0  0  0  0  0  0  0  0  0  0  0
   -1.6752   -7.4876   -0.5052 H   0  0  0  0  0  0  0  0  0  0  0  0
   -1.4438   -9.2107   -0.2816 H   0  0  0  0  0  0  0  0  0  0  0  0
    0.5874   -8.9058    1.0260 H   0  0  0  0  0  0  0  0  0  0  0  0
   -0.2258   -7.3451    0.9826 H   0  0  0  0  0  0  0  0  0  0  0  0
    1.5285   -7.3447    0.6781 H   0  0  0  0  0  0  0  0  0  0  0  0
    1.1477   -9.5100   -2.4187 H   0  0  0  0  0  0  0  0  0  0  0  0
    0.9934  -10.0966   -0.6612 H   0  0  0  0  0  0  0  0  0  0  0  0
    2.2056   -8.9062   -1.1306 H   0  0  0  0  0  0  0  0  0  0  0  0
    1.0286   -7.6839   -3.5770 H   0  0  0  0  0  0  0  0  0  0  0  0
    1.7504   -5.5739   -4.6384 H   0  0  0  0  0  0  0  0  0  0  0  0
    0.9581   -1.9611   -2.0392 H   0  0  0  0  0  0  0  0  0  0  0  0
    2.6791   -2.3463   -1.7153 H   0  0  0  0  0  0  0  0  0  0  0  0
    3.4499   -0.8889   -3.4265 H   0  0  0  0  0  0  0  0  0  0  0  0
    2.2466   -0.0338   -2.3676 H   0  0  0  0  0  0  0  0  0  0  0  0
    1.0410    0.9497   -5.5614 H   0  0  0  0  0  0  0  0  0  0  0  0
    1.8310    1.6054   -4.1166 H   0  0  0  0  0  0  0  0  0  0  0  0
    3.0498   -0.0414   -6.3891 H   0  0  0  0  0  0  0  0  0  0  0  0
    3.2091    1.7514   -6.0922 H   0  0  0  0  0  0  0  0  0  0  0  0
    5.0146   -0.2570   -6.6299 H   0  0  0  0  0  0  0  0  0  0  0  0
    5.2166    1.5025   -6.3813 H   0  0  0  0  0  0  0  0  0  0  0  0
    7.3590    0.2196   -6.2494 H   0  0  0  0  0  0  0  0  0  0  0  0
    6.6933   -0.8071   -4.9193 H   0  0  0  0  0  0  0  0  0  0  0  0
    6.6781    0.2686   -2.7153 H   0  0  0  0  0  0  0  0  0  0  0  0
    5.6127    1.6269   -3.2484 H   0  0  0  0  0  0  0  0  0  0  0  0
    8.5932    1.8307   -2.5513 H   0  0  0  0  0  0  0  0  0  0  0  0
    7.5782    3.1698   -3.1335 H   0  0  0  0  0  0  0  0  0  0  0  0
    9.1893    3.1160   -0.9571 H   0  0  0  0  0  0  0  0  0  0  0  0
    8.0328    4.4149   -1.2929 H   0  0  0  0  0  0  0  0  0  0  0  0
    7.0095    4.3508    0.8627 H   0  0  0  0  0  0  0  0  0  0  0  0
    8.7955    4.5142    1.0429 H   0  0  0  0  0  0  0  0  0  0  0  0
    9.0662    4.0026    2.8603 H   0  0  0  0  0  0  0  0  0  0  0  0
    7.2915    4.1059    2.9893 H   0  0  0  0  0  0  0  0  0  0  0  0
    9.1364    1.7978    3.8688 H   0  0  0  0  0  0  0  0  0  0  0  0
    8.4636    2.9948    4.9774 H   0  0  0  0  0  0  0  0  0  0  0  0
    5.7561    2.9861    3.7343 H   0  0  0  0  0  0  0  0  0  0  0  0
    6.2177    2.9428    5.5050 H   0  0  0  0  0  0  0  0  0  0  0  0
    5.1677    0.6402    5.6534 H   0  0  0  0  0  0  0  0  0  0  0  0
    4.6290    0.8016    3.9892 H   0  0  0  0  0  0  0  0  0  0  0  0
    3.0380    2.8201    3.4824 H   0  0  0  0  0  0  0  0  0  0  0  0
    4.1468    3.9270    4.3516 H   0  0  0  0  0  0  0  0  0  0  0  0
    1.8453    4.6849    4.3756 H   0  0  0  0  0  0  0  0  0  0  0  0
    1.3074    3.2195    5.1861 H   0  0  0  0  0  0  0  0  0  0  0  0
    1.3479    4.2158    7.9111 H   0  0  0  0  0  0  0  0  0  0  0  0
    3.0131    4.7960    8.2071 H   0  0  0  0  0  0  0  0  0  0  0  0
    2.5570    2.6962    9.1091 H   0  0  0  0  0  0  0  0  0  0  0  0
    3.8887    2.5333    7.9180 H   0  0  0  0  0  0  0  0  0  0  0  0
    3.2949    0.1648    7.4225 H   0  0  0  0  0  0  0  0  0  0  0  0
    2.2308    0.3212    8.8451 H   0  0  0  0  0  0  0  0  0  0  0  0
    0.2798   -0.1541    7.4655 H   0  0  0  0  0  0  0  0  0  0  0  0
    1.4619   -1.4701    7.4199 H   0  0  0  0  0  0  0  0  0  0  0  0
   -0.6483   -0.7069    5.3845 H   0  0  0  0  0  0  0  0  0  0  0  0
    0.4671   -2.0843    5.2600 H   0  0  0  0  0  0  0  0  0  0  0  0
    1.5154   -1.1334    3.2504 H   0  0  0  0  0  0  0  0  0  0  0  0
    0.5242    0.3305    3.3677 H   0  0  0  0  0  0  0  0  0  0  0  0
   -0.8212   -3.1054    3.7600 H   0  0  0  0  0  0  0  0  0  0  0  0
    0.3956   -3.2593    2.4076 H   0  0  0  0  0  0  0  0  0  0  0  0
   -2.6191   -2.6852    2.1591 H   0  0  0  0  0  0  0  0  0  0  0  0
   -1.7517   -4.2194    1.7705 H   0  0  0  0  0  0  0  0  0  0  0  0
   -1.9972   -2.3254   -1.2863 H   0  0  0  0  0  0  0  0  0  0  0  0
   -3.2830   -2.1353   -0.0056 H   0  0  0  0  0  0  0  0  0  0  0  0
   -3.0448   -4.7426    0.3460 H   0  0  0  0  0  0  0  0  0  0  0  0
   -2.0224   -4.6533   -1.1500 H   0  0  0  0  0  0  0  0  0  0  0  0
   -2.8090   -4.1779   -3.1947 H   0  0  0  0  0  0  0  0  0  0  0  0
   -3.3263   -2.5752   -2.5069 H   0  0  0  0  0  0  0  0  0  0  0  0
   -5.6413   -3.0992   -3.0965 H   0  0  0  0  0  0  0  0  0  0  0  0
   -5.1034   -4.6599   -3.8245 H   0  0  0  0  0  0  0  0  0  0  0  0
   -5.6688   -3.6544   -6.1704 H   0  0  0  0  0  0  0  0  0  0  0  0
   -4.5263   -2.3170   -6.6372 H   0  0  0  0  0  0  0  0  0  0  0  0
   -5.5095   -0.7863   -5.0927 H   0  0  0  0  0  0  0  0  0  0  0  0
   -6.6746   -1.3317   -6.3889 H   0  0  0  0  0  0  0  0  0  0  0  0
   -8.4305   -1.6431   -3.1497 H   0  0  0  0  0  0  0  0  0  0  0  0
   -8.6633   -0.8896   -4.7510 H   0  0  0  0  0  0  0  0  0  0  0  0
   -6.6700    0.6236   -4.2453 H   0  0  0  0  0  0  0  0  0  0  0  0
   -6.5301   -0.1394   -2.6453 H   0  0  0  0  0  0  0  0  0  0  0  0
   -6.6063    1.7127   -1.7590 H   0  0  0  0  0  0  0  0  0  0  0  0
   -6.9716    2.6017   -3.2889 H   0  0  0  0  0  0  0  0  0  0  0  0
   -8.8568    2.5909   -0.9075 H   0  0  0  0  0  0  0  0  0  0  0  0
   -9.0267    3.5057   -2.4225 H   0  0  0  0  0  0  0  0  0  0  0  0
   -9.0777    5.4542   -1.0737 H   0  0  0  0  0  0  0  0  0  0  0  0
   -8.9262    4.4289    0.3796 H   0  0  0  0  0  0  0  0  0  0  0  0
   -8.3280    6.6500    0.9555 H   0  0  0  0  0  0  0  0  0  0  0  0
   -7.1958    6.7885   -0.4264 H   0  0  0  0  0  0  0  0  0  0  0  0
   -5.7046    7.3544    1.4142 H   0  0  0  0  0  0  0  0  0  0  0  0
   -6.8361    6.7682    2.7310 H   0  0  0  0  0  0  0  0  0  0  0  0
   -4.5957    6.6674    3.5075 H   0  0  0  0  0  0  0  0  0  0  0  0
   -4.0269    5.7555    2.0693 H   0  0  0  0  0  0  0  0  0  0  0  0
   -7.2233    5.1297    3.9148 H   0  0  0  0  0  0  0  0  0  0  0  0
   -6.0661    5.2558    5.2504 H   0  0  0  0  0  0  0  0  0  0  0  0
   -5.6348    2.8507    5.2506 H   0  0  0  0  0  0  0  0  0  0  0  0
   -7.3591    3.2300    5.3552 H   0  0  0  0  0  0  0  0  0  0  0  0
   -5.7299    3.2128    2.0259 H   0  0  0  0  0  0  0  0  0  0  0  0
   -6.5642    1.6656    1.7713 H   0  0  0  0  0  0  0  0  0  0  0  0
   -4.1414    1.9366    3.6657 H   0  0  0  0  0  0  0  0  0  0  0  0
   -4.9764    0.4525    3.0641 H   0  0  0  0  0  0  0  0  0  0  0  0
   -2.2646    0.8659    2.5321 H   0  0  0  0  0  0  0  0  0  0  0  0
   -3.2692   -0.3532    1.6068 H   0  0  0  0  0  0  0  0  0  0  0  0
   -1.6026    1.8744    0.3545 H   0  0  0  0  0  0  0  0  0  0  0  0
   -1.1942    0.1500    0.3941 H   0  0  0  0  0  0  0  0  0  0  0  0
   -1.2714   -0.1785   -1.9154 H   0  0  0  0  0  0  0  0  0  0  0  0
   -1.2975    1.5760   -1.9375 H   0  0  0  0  0  0  0  0  0  0  0  0
   -3.3955   -0.3026   -3.1960 H   0  0  0  0  0  0  0  0  0  0  0  0
   -2.1991    0.7149   -4.0394 H   0  0  0  0  0  0  0  0  0  0  0  0
   -2.7533    2.7249   -4.5796 H   0  0  0  0  0  0  0  0  0  0  0  0
   -2.0714    2.9091   -2.9787 H   0  0  0  0  0  0  0  0  0  0  0  0
   -4.7248    4.0673   -3.9672 H   0  0  0  0  0  0  0  0  0  0  0  0
   -3.2149    4.9891   -3.8118 H   0  0  0  0  0  0  0  0  0  0  0  0
   -2.6820    3.3638   -1.1042 H   0  0  0  0  0  0  0  0  0  0  0  0
   -3.5328    4.6261   -0.1944 H   0  0  0  0  0  0  0  0  0  0  0  0
   -2.4238    6.4451   -1.3070 H   0  0  0  0  0  0  0  0  0  0  0  0
   -1.6308    5.3822   -2.4866 H   0  0  0  0  0  0  0  0  0  0  0  0
    0.2995    6.1658   -1.8174 H   0  0  0  0  0  0  0  0  0  0  0  0
   -0.4818    7.2479   -0.5753 H   0  0  0  0  0  0  0  0  0  0  0  0
    0.9066    5.9332    1.2000 H   0  0  0  0  0  0  0  0  0  0  0  0
    1.8843    6.8207   -0.0051 H   0  0  0  0  0  0  0  0  0  0  0  0
    3.4861    5.4353    0.5103 H   0  0  0  0  0  0  0  0  0  0  0  0
    2.5377    4.4558    1.6723 H   0  0  0  0  0  0  0  0  0  0  0  0
    4.0431    3.5039   -0.7817 H   0  0  0  0  0  0  0  0  0  0  0  0
    4.4575    3.2224    0.9354 H   0  0  0  0  0  0  0  0  0  0  0  0
    3.9349    1.1961   -1.2283 H   0  0  0  0  0  0  0  0  0  0  0  0
    2.9453    0.1656   -0.0731 H   0  0  0  0  0  0  0  0  0  0  0  0
    5.5561    1.5621    0.6895 H   0  0  0  0  0  0  0  0  0  0  0  0
    4.5760    0.4608    1.7105 H   0  0  0  0  0  0  0  0  0  0  0  0
    6.4093   -0.8775    1.9402 H   0  0  0  0  0  0  0  0  0  0  0  0
    7.3548    0.2151    0.8732 H   0  0  0  0  0  0  0  0  0  0  0  0
    7.7420   -1.6446   -0.7249 H   0  0  0  0  0  0  0  0  0  0  0  0
    8.3158   -2.0253    0.9048 H   0  0  0  0  0  0  0  0  0  0  0  0
    5.6676   -2.9096   -1.5292 H   0  0  0  0  0  0  0  0  0  0  0  0
    4.7368   -2.5191    0.0334 H   0  0  0  0  0  0  0  0  0  0  0  0
    5.8066   -5.2568   -0.7389 H   0  0  0  0  0  0  0  0  0  0  0  0
    4.1152   -4.6919   -0.8681 H   0  0  0  0  0  0  0  0  0  0  0  0
    4.8253   -3.9336    1.5318 H   0  0  0  0  0  0  0  0  0  0  0  0
    1.2014   -3.6350   -0.9246 H   0  0  0  0  0  0  0  0  0  0  0  0
    0.4971   -5.6237    0.1770 H   0  0  0  0  0  0  0  0  0  0  0  0
  1  2  1  0
  2  3  1  0
  2  4  1  0
  2  5  1  0
  5  6  1  0
  6  7  1  0
  6  8  1  0
  6  9  1  0
  9 10  2  0
 10 11  1  0
 11 12  2  0
 12 13  1  0
 13 14  1  0
 14 15  1  0
 15 16  1  0
 16 17  1  0
 17 18  1  0
 18 19  1  0
 19 20  1  0
 20 21  1  0
 21 22  1  0
 22 23  1  0
 23 24  1  0
 24 25  1  0
 25 26  1  0
 26 27  1  0
 27 28  1  0
 28 29  1  0
 29 30  1  0
 30 31  1  0
 31 32  1  0
 32 33  1  0
 33 34  1  0
 34 35  1  0
 35 36  1  0
 36 37  1  0
 37 38  1  0
 38 39  1  0
 39 40  1  0
 40 41  1  0
 41 42  1  0
 42 43  1  0
 43 44  1  0
 44 45  1  0
 45 46  1  0
 46 47  1  0
 47 48  1  0
 48 49  1  0
 49 50  1  0
 50 51  1  0
 51 52  1  0
 52 53  1  0
 53 54  1  0
 54 55  1  0
 55 56  1  0
 56 57  1  0
 57 58  1  0
 58 59  1  0
 59 60  1  0
 60 61  1  0
 61 62  1  0
 62 63  1  0
 63 64  1  0
 64 65  1  0
 65 66  1  0
 66 67  1  0
 67 68  1  0
 68 69  1  0
 69 70  1  0
 70 71  1  0
 71 72  1  0
 72 73  1  0
 73 74  1  0
 74 75  1  0
 75 76  1  0
 76 77  1  0
 77 78  1  0
 78 79  1  0
 79 80  1  0
 80 81  1  0
 81 82  1  0
 82 83  1  0
 83 84  1  0
 84 85  1  0
 85 86  1  0
 86 87  1  0
 87 88  1  0
 88 89  1  0
 89 90  1  0
 90 91  1  0
 91 92  1  0
 92 93  1  0
 93 94  1  0
 94 95  1  0
 95 96  1  0
 96 97  1  0
 97 98  1  0
 98 99  1  0
 99100  1  0
100101  1  0
101102  1  0
102103  1  0
 12104  1  0
104105  2  0
105  9  1  0
  1106  1  0
  1107  1  0
  1108  1  0
  3109  1  0
  3110  1  0
  3111  1  0
  4112  1  0
  4113  1  0
  4114  1  0
  5115  1  0
  5116  1  0
  7117  1  0
  7118  1  0
  7119  1  0
  8120  1  0
  8121  1  0
  8122  1  0
 10123  1  0
 11124  1  0
 14125  1  0
 14126  1  0
 15127  1  0
 15128  1  0
 17129  1  0
 17130  1  0
 18131  1  0
 18132  1  0
 20133  1  0
 20134  1  0
 21135  1  0
 21136  1  0
 23137  1  0
 23138  1  0
 24139  1  0
 24140  1  0
 26141  1  0
 26142  1  0
 27143  1  0
 27144  1  0
 29145  1  0
 29146  1  0
 30147  1  0
 30148  1  0
 32149  1  0
 32150  1  0
 33151  1  0
 33152  1  0
 35153  1  0
 35154  1  0
 36155  1  0
 36156  1  0
 38157  1  0
 38158  1  0
 39159  1  0
 39160  1  0
 41161  1  0
 41162  1  0
 42163  1  0
 42164  1  0
 44165  1  0
 44166  1  0
 45167  1  0
 45168  1  0
 47169  1  0
 47170  1  0
 48171  1  0
 48172  1  0
 50173  1  0
 50174  1  0
 51175  1  0
 51176  1  0
 53177  1  0
 53178  1  0
 54179  1  0
 54180  1  0
 56181  1  0
 56182  1  0
 57183  1  0
 57184  1  0
 59185  1  0
 59186  1  0
 60187  1  0
 60188  1  0
 62189  1  0
 62190  1  0
 63191  1  0
 63192  1  0
 65193  1  0
 65194  1  0
 66195  1  0
 66196  1  0
 68197  1  0
 68198  1  0
 69199  1  0
 69200  1  0
 71201  1  0
 71202  1  0
 72203  1  0
 72204  1  0
 74205  1  0
 74206  1  0
 75207  1  0
 75208  1  0
 77209  1  0
 77210  1  0
 78211  1  0
 78212  1  0
 80213  1  0
 80214  1  0
 81215  1  0
 81216  1  0
 83217  1  0
 83218  1  0
 84219  1  0
 84220  1  0
 86221  1  0
 86222  1  0
 87223  1  0
 87224  1  0
 89225  1  0
 89226  1  0
 90227  1  0
 90228  1  0
 92229  1  0
 92230  1  0
 93231  1  0
 93232  1  0
 95233  1  0
 95234  1  0
 96235  1  0
 96236  1  0
 98237  1  0
 98238  1  0
 99239  1  0
 99240  1  0
101241  1  0
101242  1  0
102243  1  0
102244  1  0
103245  1  0
104246  1  0
105247  1  0
M  END
$$$$
