@<TRIPOS>MOLECULE
*****
 59 63 0 0 0
SMALL
GASTEIGER

@<TRIPOS>ATOM
      1 C          -4.5235    3.2685    1.1565 C.3     1  UNL1       -0.0376
      2 C          -4.8261    1.8758    0.7461 C.ar    1  UNL1       -0.0223
      3 C          -6.1458    1.4960    0.6548 C.ar    1  UNL1       -0.0489
      4 C          -6.4667    0.1983    0.2732 C.ar    1  UNL1       -0.0127
      5 C          -7.8609   -0.2027    0.1701 C.ar    1  UNL1        0.0188
      6 C          -8.5548   -0.0689   -1.0304 C.ar    1  UNL1        0.0501
      7 CL         -7.6452    0.6018   -2.3806 Cl      1  UNL1       -0.0829
      8 C          -9.8708   -0.4396   -1.1508 C.ar    1  UNL1       -0.0427
      9 C         -10.5478   -0.9594   -0.0758 C.ar    1  UNL1       -0.0590
     10 C          -9.8806   -1.1057    1.1396 C.ar    1  UNL1       -0.0427
     11 C          -8.5456   -0.7228    1.2377 C.ar    1  UNL1        0.0501
     12 CL         -7.7684   -0.9339    2.7966 Cl      1  UNL1       -0.0829
     13 C          -5.4241   -0.6637   -0.0008 C.ar    1  UNL1       -0.0246
     14 C          -4.1003   -0.2597    0.0974 C.ar    1  UNL1        0.1125
     15 N          -3.0791   -1.0834   -0.1690 N.ar    1  UNL1       -0.1444
     16 N          -1.8269   -0.6827   -0.0744 N.ar    1  UNL1       -0.1123
     17 C          -1.4534    0.5426    0.2840 C.ar    1  UNL1        0.2398
     18 N          -0.1454    1.0477    0.3999 N.pl3   1  UNL1       -0.2824
     19 C           1.0019    0.2874    0.1740 C.ar    1  UNL1        0.0338
     20 C           1.0316   -1.0628    0.0621 C.ar    1  UNL1       -0.0370
     21 C           2.1791   -1.7914   -0.1835 C.ar    1  UNL1       -0.0182
     22 C           3.3978   -1.0880   -0.3268 C.ar    1  UNL1        0.1207
     23 O           4.5410   -1.8034   -0.5765 O.3     1  UNL1       -0.4907
     24 C           5.8068   -1.2687   -0.6866 C.3     1  UNL1        0.1022
     25 C           6.2876   -0.7261    0.6193 C.3     1  UNL1        0.0331
     26 N           7.6111   -0.1305    0.5196 N.3     1  UNL1       -0.2991
     27 C           8.6271   -1.1293    0.2617 C.3     1  UNL1       -0.0010
     28 C           9.0854   -0.9398   -1.1530 C.3     1  UNL1       -0.0390
     29 C           8.4836    0.3357   -1.6496 C.3     1  UNL1       -0.0390
     30 C           7.7131    0.8754   -0.4904 C.3     1  UNL1       -0.0010
     31 C           3.4084    0.2753   -0.2214 C.ar    1  UNL1       -0.0182
     32 C           2.2094    0.9510    0.0291 C.ar    1  UNL1       -0.0370
     33 N          -2.4951    1.3938    0.5594 N.ar    1  UNL1       -0.2112
     34 C          -3.7807    1.0256    0.4752 C.ar    1  UNL1        0.0975
     35 H          -3.7981    3.7703    0.4946 H       1  UNL1        0.0278
     36 H          -4.0693    3.2139    2.1801 H       1  UNL1        0.0278
     37 H          -5.4368    3.8792    1.2672 H       1  UNL1        0.0278
     38 H          -6.9810    2.1507    0.8638 H       1  UNL1        0.0627
     39 H         -10.3905   -0.3300   -2.0833 H       1  UNL1        0.0632
     40 H         -11.6041   -1.2600   -0.1618 H       1  UNL1        0.0618
     41 H         -10.4107   -1.5137    1.9841 H       1  UNL1        0.0632
     42 H          -5.6347   -1.6744   -0.2984 H       1  UNL1        0.0646
     43 H          -0.0489    2.0861    0.6829 H       1  UNL1        0.1551
     44 H           0.1385   -1.6721    0.1707 H       1  UNL1        0.0637
     45 H           2.2103   -2.8678   -0.2741 H       1  UNL1        0.0655
     46 H           6.5004   -2.0445   -1.1024 H       1  UNL1        0.0709
     47 H           5.7422   -0.4505   -1.4739 H       1  UNL1        0.0709
     48 H           5.6007   -0.0821    1.1166 H       1  UNL1        0.0460
     49 H           6.4891   -1.6668    1.2560 H       1  UNL1        0.0460
     50 H           9.4756   -0.9715    0.9636 H       1  UNL1        0.0427
     51 H           8.1686   -2.1242    0.4377 H       1  UNL1        0.0427
     52 H          10.2105   -0.9211   -1.1766 H       1  UNL1        0.0278
     53 H           8.7759   -1.7780   -1.8138 H       1  UNL1        0.0278
     54 H           9.3113    1.0291   -1.9057 H       1  UNL1        0.0278
     55 H           7.8069    0.1996   -2.5095 H       1  UNL1        0.0278
     56 H           8.2402    1.7688   -0.0510 H       1  UNL1        0.0427
     57 H           6.7238    1.2748   -0.8240 H       1  UNL1        0.0427
     58 H           4.3084    0.8472   -0.3604 H       1  UNL1        0.0655
     59 H           2.2287    2.0249    0.1119 H       1  UNL1        0.0637
@<TRIPOS>BOND
     1     1     2    1
     2     2     3   ar
     3     3     4   ar
     4     4     5    1
     5     5     6   ar
     6     6     7    1
     7     6     8   ar
     8     8     9   ar
     9     9    10   ar
    10    10    11   ar
    11    11    12    1
    12     4    13   ar
    13    13    14   ar
    14    14    15   ar
    15    15    16   ar
    16    16    17   ar
    17    17    18    1
    18    18    19    1
    19    19    20   ar
    20    20    21   ar
    21    21    22   ar
    22    22    23    1
    23    23    24    1
    24    24    25    1
    25    25    26    1
    26    26    27    1
    27    27    28    1
    28    28    29    1
    29    29    30    1
    30    22    31   ar
    31    31    32   ar
    32    17    33   ar
    33    33    34   ar
    34    34     2   ar
    35    11     5   ar
    36    34    14   ar
    37    32    19   ar
    38    30    26    1
    39     1    35    1
    40     1    36    1
    41     1    37    1
    42     3    38    1
    43     8    39    1
    44     9    40    1
    45    10    41    1
    46    13    42    1
    47    18    43    1
    48    20    44    1
    49    21    45    1
    50    24    46    1
    51    24    47    1
    52    25    48    1
    53    25    49    1
    54    27    50    1
    55    27    51    1
    56    28    52    1
    57    28    53    1
    58    29    54    1
    59    29    55    1
    60    30    56    1
    61    30    57    1
    62    31    58    1
    63    32    59    1
