
     RDKit          3D

 30 31  0  0  0  0  0  0  0  0999 V2000
    2.2558   -1.5279   -0.1426 C   0  0  0  0  0  0  0  0  0  0  0  0
    1.8849   -0.5965    0.9871 C   0  0  0  0  0  0  0  0  0  0  0  0
    1.2755    0.6479    0.4899 C   0  0  0  0  0  0  0  0  0  0  0  0
    2.0146    1.7673    0.4587 N   0  0  0  0  0  0  0  0  0  0  0  0
    1.5258    2.9310    0.0181 C   0  0  0  0  0  0  0  0  0  0  0  0
    2.3542    4.1033    0.0032 N   0  0  0  0  0  0  0  0  0  0  0  0
    0.2489    2.9646   -0.4046 N   0  0  0  0  0  0  0  0  0  0  0  0
   -0.5284    1.8739   -0.3927 C   0  0  0  0  0  0  0  0  0  0  0  0
   -1.8852    1.9280   -0.8449 N   0  0  0  0  0  0  0  0  0  0  0  0
   -0.0355    0.6555    0.0625 C   0  0  0  0  0  0  0  0  0  0  0  0
   -0.9025   -0.5105    0.0647 C   0  0  0  0  0  0  0  0  0  0  0  0
   -0.9492   -1.3114   -1.0540 C   0  0  0  0  0  0  0  0  0  0  0  0
   -1.7429   -2.4371   -1.1397 C   0  0  0  0  0  0  0  0  0  0  0  0
   -2.5363   -2.8025   -0.0739 C   0  0  0  0  0  0  0  0  0  0  0  0
   -3.5654   -4.2441   -0.1627 Cl  0  0  0  0  0  0  0  0  0  0  0  0
   -2.5064   -2.0199    1.0518 C   0  0  0  0  0  0  0  0  0  0  0  0
   -1.6971   -0.8815    1.1247 C   0  0  0  0  0  0  0  0  0  0  0  0
    1.9288   -1.0916   -1.1267 H   0  0  0  0  0  0  0  0  0  0  0  0
    1.8371   -2.5360    0.0268 H   0  0  0  0  0  0  0  0  0  0  0  0
    3.3576   -1.6584   -0.2316 H   0  0  0  0  0  0  0  0  0  0  0  0
    1.2209   -1.1569    1.6752 H   0  0  0  0  0  0  0  0  0  0  0  0
    2.8478   -0.3718    1.5343 H   0  0  0  0  0  0  0  0  0  0  0  0
    2.5263    4.6158    0.8894 H   0  0  0  0  0  0  0  0  0  0  0  0
    2.7989    4.4756   -0.8570 H   0  0  0  0  0  0  0  0  0  0  0  0
   -2.1512    1.8440   -1.8346 H   0  0  0  0  0  0  0  0  0  0  0  0
   -2.6246    2.0624   -0.1035 H   0  0  0  0  0  0  0  0  0  0  0  0
   -0.3360   -1.0422   -1.9016 H   0  0  0  0  0  0  0  0  0  0  0  0
   -1.7813   -3.0676   -2.0154 H   0  0  0  0  0  0  0  0  0  0  0  0
   -3.1376   -2.3206    1.8836 H   0  0  0  0  0  0  0  0  0  0  0  0
   -1.6976   -0.2927    2.0156 H   0  0  0  0  0  0  0  0  0  0  0  0
  1  2  1  0
  2  3  1  0
  3  4  2  0
  4  5  1  0
  5  6  1  0
  5  7  2  0
  7  8  1  0
  8  9  1  0
  8 10  2  0
 10 11  1  0
 11 12  2  0
 12 13  1  0
 13 14  2  0
 14 15  1  0
 14 16  1  0
 16 17  2  0
 10  3  1  0
 17 11  1  0
  1 18  1  0
  1 19  1  0
  1 20  1  0
  2 21  1  0
  2 22  1  0
  6 23  1  0
  6 24  1  0
  9 25  1  0
  9 26  1  0
 12 27  1  0
 13 28  1  0
 16 29  1  0
 17 30  1  0
M  END
$$$$
