@<TRIPOS>MOLECULE
*****
 30 31 0 0 0
SMALL
GASTEIGER

@<TRIPOS>ATOM
      1 C           2.2558   -1.5279   -0.1426 C.3     1  UNL1       -0.0598
      2 C           1.8849   -0.5965    0.9871 C.3     1  UNL1       -0.0124
      3 C           1.2755    0.6479    0.4899 C.ar    1  UNL1        0.0556
      4 N           2.0146    1.7673    0.4587 N.ar    1  UNL1       -0.2190
      5 C           1.5258    2.9310    0.0181 C.ar    1  UNL1        0.2145
      6 N           2.3542    4.1033    0.0032 N.pl3   1  UNL1       -0.3274
      7 N           0.2489    2.9646   -0.4046 N.ar    1  UNL1       -0.1995
      8 C          -0.5284    1.8739   -0.3927 C.ar    1  UNL1        0.1293
      9 N          -1.8852    1.9280   -0.8449 N.pl3   1  UNL1       -0.3425
     10 C          -0.0355    0.6555    0.0625 C.ar    1  UNL1        0.0430
     11 C          -0.9025   -0.5105    0.0647 C.ar    1  UNL1       -0.0128
     12 C          -0.9492   -1.3114   -1.0540 C.ar    1  UNL1       -0.0525
     13 C          -1.7429   -2.4371   -1.1397 C.ar    1  UNL1       -0.0428
     14 C          -2.5363   -2.8025   -0.0739 C.ar    1  UNL1        0.0410
     15 CL         -3.5654   -4.2441   -0.1627 Cl      1  UNL1       -0.0835
     16 C          -2.5064   -2.0199    1.0518 C.ar    1  UNL1       -0.0428
     17 C          -1.6971   -0.8815    1.1247 C.ar    1  UNL1       -0.0525
     18 H           1.9288   -1.0916   -1.1267 H       1  UNL1        0.0233
     19 H           1.8371   -2.5360    0.0268 H       1  UNL1        0.0233
     20 H           3.3576   -1.6584   -0.2316 H       1  UNL1        0.0233
     21 H           1.2209   -1.1569    1.6752 H       1  UNL1        0.0326
     22 H           2.8478   -0.3718    1.5343 H       1  UNL1        0.0326
     23 H           2.5263    4.6158    0.8894 H       1  UNL1        0.1452
     24 H           2.7989    4.4756   -0.8570 H       1  UNL1        0.1452
     25 H          -2.1512    1.8440   -1.8346 H       1  UNL1        0.1437
     26 H          -2.6246    2.0624   -0.1035 H       1  UNL1        0.1437
     27 H          -0.3360   -1.0422   -1.9016 H       1  UNL1        0.0624
     28 H          -1.7813   -3.0676   -2.0154 H       1  UNL1        0.0632
     29 H          -3.1376   -2.3206    1.8836 H       1  UNL1        0.0632
     30 H          -1.6976   -0.2927    2.0156 H       1  UNL1        0.0624
@<TRIPOS>BOND
     1     1     2    1
     2     2     3    1
     3     3     4   ar
     4     4     5   ar
     5     5     6    1
     6     5     7   ar
     7     7     8   ar
     8     8     9    1
     9     8    10   ar
    10    10    11    1
    11    11    12   ar
    12    12    13   ar
    13    13    14   ar
    14    14    15    1
    15    14    16   ar
    16    16    17   ar
    17    10     3   ar
    18    17    11   ar
    19     1    18    1
    20     1    19    1
    21     1    20    1
    22     2    21    1
    23     2    22    1
    24     6    23    1
    25     6    24    1
    26     9    25    1
    27     9    26    1
    28    12    27    1
    29    13    28    1
    30    16    29    1
    31    17    30    1
