@<TRIPOS>MOLECULE
*****
 55 59 0 0 0
SMALL
GASTEIGER

@<TRIPOS>ATOM
      1 C          -6.9232   -4.1305   -4.2028 C.3     1  UNL1        0.0736
      2 S          -6.4955   -3.5042   -5.8370 S.O2    1  UNL1        0.0403
      3 O          -7.6376   -3.6807   -6.7612 O.2     1  UNL1       -0.1555
      4 O          -5.3451   -4.3062   -6.3422 O.2     1  UNL1       -0.1555
      5 N          -6.1269   -1.8546   -5.6477 N.pl3   1  UNL1       -0.2209
      6 C          -5.0551   -1.4422   -4.8186 C.ar    1  UNL1        0.0477
      7 C          -3.7789   -2.0222   -4.8970 C.ar    1  UNL1       -0.0388
      8 C          -2.7619   -1.5414   -4.0708 C.ar    1  UNL1       -0.0520
      9 C          -2.9527   -0.5127   -3.1702 C.ar    1  UNL1       -0.0112
     10 C          -1.8960    0.0077   -2.3357 C.ar    1  UNL1        0.0643
     11 C          -1.7723    1.3911   -2.1695 C.ar    1  UNL1        0.1038
     12 O          -0.8475    1.9517   -1.4370 O.2     1  UNL1       -0.4621
     13 C           0.0585    1.2288   -0.7894 C.ar    1  UNL1        0.1396
     14 C           1.0281    1.7845   -0.0327 C.ar    1  UNL1       -0.0032
     15 C           2.0209    1.0894    0.6739 C.ar    1  UNL1        0.0285
     16 C           3.0129    1.7276    1.3578 C.1     1  UNL1       -0.0658
     17 C           3.9589    2.3425    2.0132 C.1     1  UNL1       -0.0905
     18 C           5.0131    3.0555    2.7397 C.3     1  UNL1        0.0524
     19 C           5.6948    2.0672    3.6753 C.3     1  UNL1        0.0298
     20 N           4.7819    2.4594    4.7143 N.am    1  UNL1       -0.2988
     21 C           4.2753    1.8773    5.8936 C.2     1  UNL1        0.2187
     22 O           3.4284    2.5303    6.5880 O.2     1  UNL1       -0.2753
     23 C           4.7421    0.5177    6.3007 C.3     1  UNL1        0.0358
     24 C           5.1593    0.3787    7.7322 C.3     1  UNL1       -0.0412
     25 C           3.9215   -0.2688    7.2615 C.3     1  UNL1       -0.0412
     26 C           4.5757    3.7229    4.0104 C.3     1  UNL1        0.0298
     27 C           1.9138   -0.3078    0.5257 C.ar    1  UNL1       -0.0454
     28 C           0.9602   -0.8998   -0.2212 C.ar    1  UNL1       -0.0462
     29 C           0.0123   -0.1593   -0.8962 C.ar    1  UNL1        0.0646
     30 C          -0.9631   -0.7483   -1.6667 C.ar    1  UNL1        0.2001
     31 O          -1.0415   -2.0180   -1.7941 O.2     1  UNL1       -0.2864
     32 C          -4.2405    0.0406   -3.1139 C.ar    1  UNL1       -0.0520
     33 C          -5.2430   -0.4279   -3.9235 C.ar    1  UNL1       -0.0388
     34 H          -7.3709   -5.1230   -4.2442 H       1  UNL1        0.0482
     35 H          -6.0443   -4.0907   -3.5412 H       1  UNL1        0.0482
     36 H          -7.6668   -3.3884   -3.8165 H       1  UNL1        0.0482
     37 H          -6.6796   -1.1357   -6.1205 H       1  UNL1        0.1733
     38 H          -3.6253   -2.8163   -5.6025 H       1  UNL1        0.0637
     39 H          -1.7875   -1.9940   -4.1377 H       1  UNL1        0.0624
     40 H          -2.5054    2.0054   -2.6945 H       1  UNL1        0.1037
     41 H           1.1023    2.8761    0.0855 H       1  UNL1        0.0667
     42 H           5.7136    3.6122    2.0782 H       1  UNL1        0.0464
     43 H           6.7081    2.4201    3.9294 H       1  UNL1        0.0477
     44 H           5.6098    1.0019    3.3522 H       1  UNL1        0.0477
     45 H           5.4360    0.0220    5.5882 H       1  UNL1        0.0394
     46 H           5.0624    1.2647    8.4054 H       1  UNL1        0.0273
     47 H           6.0446   -0.2658    7.9757 H       1  UNL1        0.0273
     48 H           2.9124    0.0762    7.5886 H       1  UNL1        0.0273
     49 H           3.9086   -1.3793    7.0815 H       1  UNL1        0.0273
     50 H           3.4871    3.9885    3.9744 H       1  UNL1        0.0477
     51 H           5.2415    4.5282    4.3182 H       1  UNL1        0.0477
     52 H           2.7011   -0.8319    1.1023 H       1  UNL1        0.0630
     53 H           0.9301   -1.9694   -0.3020 H       1  UNL1        0.0626
     54 H          -4.4086    0.8584   -2.4110 H       1  UNL1        0.0624
     55 H          -6.2460   -0.0076   -3.8772 H       1  UNL1        0.0637
@<TRIPOS>BOND
     1     1     2    1
     2     2     3    2
     3     2     4    2
     4     2     5    1
     5     5     6    1
     6     6     7   ar
     7     7     8   ar
     8     8     9   ar
     9     9    10    1
    10    10    11   ar
    11    11    12   ar
    12    12    13   ar
    13    13    14   ar
    14    14    15   ar
    15    15    16    1
    16    16    17    3
    17    17    18    1
    18    18    19    1
    19    19    20    1
    20    20    21   am
    21    21    22    2
    22    21    23    1
    23    23    24    1
    24    24    25    1
    25    20    26    1
    26    15    27   ar
    27    27    28   ar
    28    28    29   ar
    29    29    30   ar
    30    30    31    2
    31     9    32   ar
    32    32    33   ar
    33    33     6   ar
    34    30    10   ar
    35    29    13   ar
    36    26    18    1
    37    25    23    1
    38     1    34    1
    39     1    35    1
    40     1    36    1
    41     5    37    1
    42     7    38    1
    43     8    39    1
    44    11    40    1
    45    14    41    1
    46    18    42    1
    47    19    43    1
    48    19    44    1
    49    23    45    1
    50    24    46    1
    51    24    47    1
    52    25    48    1
    53    25    49    1
    54    26    50    1
    55    26    51    1
    56    27    52    1
    57    28    53    1
    58    32    54    1
    59    33    55    1
