
     RDKit          3D

 59 62  0  0  0  0  0  0  0  0999 V2000
   -8.3700    0.2727   -0.0165 C   0  0  0  0  0  0  0  0  0  0  0  0
   -7.4971   -0.1613    1.1355 C   0  0  0  0  0  0  0  0  0  0  0  0
   -7.4718    0.9668    2.1363 C   0  0  0  0  0  0  0  0  0  0  0  0
   -6.1255   -0.5959    0.7275 C   0  0  2  0  0  0  0  0  0  0  0  0
   -6.2449   -1.7150   -0.1826 N   0  0  0  0  0  0  0  0  0  0  0  0
   -5.5907   -1.4377   -1.7312 S   0  0  0  0  0  6  0  0  0  0  0  0
   -6.2711   -0.3440   -2.4994 O   0  0  0  0  0  0  0  0  0  0  0  0
   -5.7422   -2.6967   -2.5339 O   0  0  0  0  0  0  0  0  0  0  0  0
   -3.8724   -1.1223   -1.5685 C   0  0  0  0  0  0  0  0  0  0  0  0
   -3.3488    0.1424   -1.4386 C   0  0  0  0  0  0  0  0  0  0  0  0
   -1.9734    0.3089   -1.3089 C   0  0  0  0  0  0  0  0  0  0  0  0
   -1.1012   -0.7591   -1.3053 C   0  0  0  0  0  0  0  0  0  0  0  0
    0.3505   -0.5471   -1.1668 C   0  0  0  0  0  0  0  0  0  0  0  0
    0.9634    0.5829   -1.6667 C   0  0  0  0  0  0  0  0  0  0  0  0
    2.3335    0.7617   -1.5205 C   0  0  0  0  0  0  0  0  0  0  0  0
    3.1193   -0.1717   -0.8788 C   0  0  0  0  0  0  0  0  0  0  0  0
    4.4974    0.0546   -0.7589 N   0  0  0  0  0  0  0  0  0  0  0  0
    5.1067    0.7480    0.3198 C   0  0  0  0  0  0  0  0  0  0  0  0
    4.3950    1.1965    1.2298 O   0  0  0  0  0  0  0  0  0  0  0  0
    6.5623    0.9479    0.3843 C   0  0  0  0  0  0  0  0  0  0  0  0
    7.5139    0.5132   -0.5128 C   0  0  0  0  0  0  0  0  0  0  0  0
    8.7646    0.9109   -0.0824 C   0  0  0  0  0  0  0  0  0  0  0  0
   10.0561    0.7805   -0.5360 C   0  0  0  0  0  0  0  0  0  0  0  0
   11.1377    1.3056    0.1377 C   0  0  0  0  0  0  0  0  0  0  0  0
   10.8524    1.9808    1.3114 C   0  0  0  0  0  0  0  0  0  0  0  0
    9.5801    2.1325    1.7970 C   0  0  0  0  0  0  0  0  0  0  0  0
    8.5236    1.5910    1.0916 C   0  0  0  0  0  0  0  0  0  0  0  0
    7.2093    1.5842    1.3221 O   0  0  0  0  0  0  0  0  0  0  0  0
    2.4752   -1.2939   -0.3886 C   0  0  0  0  0  0  0  0  0  0  0  0
    1.1329   -1.4977   -0.5167 C   0  0  0  0  0  0  0  0  0  0  0  0
   -1.6348   -2.0246   -1.4361 C   0  0  0  0  0  0  0  0  0  0  0  0
   -3.0171   -2.2034   -1.5673 C   0  0  0  0  0  0  0  0  0  0  0  0
   -5.2753   -0.9343    1.8986 C   0  0  0  0  0  0  0  0  0  0  0  0
   -4.7613   -2.0693    2.0228 O   0  0  0  0  0  0  0  0  0  0  0  0
   -5.0284   -0.0013    2.8862 O   0  0  0  0  0  0  0  0  0  0  0  0
   -8.0623    1.2562   -0.3773 H   0  0  0  0  0  0  0  0  0  0  0  0
   -8.4069   -0.5150   -0.8146 H   0  0  0  0  0  0  0  0  0  0  0  0
   -9.3930    0.4062    0.4270 H   0  0  0  0  0  0  0  0  0  0  0  0
   -8.0692   -0.9961    1.6341 H   0  0  0  0  0  0  0  0  0  0  0  0
   -7.2750    0.5687    3.1541 H   0  0  0  0  0  0  0  0  0  0  0  0
   -8.4869    1.4212    2.1931 H   0  0  0  0  0  0  0  0  0  0  0  0
   -6.7809    1.7718    1.8438 H   0  0  0  0  0  0  0  0  0  0  0  0
   -5.6406    0.2302    0.1734 H   0  0  0  0  0  0  0  0  0  0  0  0
   -7.2267   -2.0767   -0.2333 H   0  0  0  0  0  0  0  0  0  0  0  0
   -4.0266    0.9691   -1.4415 H   0  0  0  0  0  0  0  0  0  0  0  0
   -1.5558    1.2834   -1.2076 H   0  0  0  0  0  0  0  0  0  0  0  0
    0.3770    1.3389   -2.1773 H   0  0  0  0  0  0  0  0  0  0  0  0
    2.7397    1.6730   -1.9400 H   0  0  0  0  0  0  0  0  0  0  0  0
    5.1623   -0.3020   -1.5059 H   0  0  0  0  0  0  0  0  0  0  0  0
    7.3197   -0.0434   -1.4010 H   0  0  0  0  0  0  0  0  0  0  0  0
   10.2287    0.2473   -1.4526 H   0  0  0  0  0  0  0  0  0  0  0  0
   12.1594    1.2116   -0.2055 H   0  0  0  0  0  0  0  0  0  0  0  0
   11.7076    2.4082    1.8655 H   0  0  0  0  0  0  0  0  0  0  0  0
    9.3725    2.6698    2.7260 H   0  0  0  0  0  0  0  0  0  0  0  0
    3.0719   -2.0492    0.1238 H   0  0  0  0  0  0  0  0  0  0  0  0
    0.6258   -2.3758   -0.1345 H   0  0  0  0  0  0  0  0  0  0  0  0
   -0.9578   -2.8607   -1.4337 H   0  0  0  0  0  0  0  0  0  0  0  0
   -3.4172   -3.2102   -1.6691 H   0  0  0  0  0  0  0  0  0  0  0  0
   -4.7140   -0.2320    3.8055 H   0  0  0  0  0  0  0  0  0  0  0  0
  1  2  1  0
  2  3  1  0
  2  4  1  0
  4  5  1  0
  5  6  1  0
  6  7  2  0
  6  8  2  0
  6  9  1  0
  9 10  2  0
 10 11  1  0
 11 12  2  0
 12 13  1  0
 13 14  2  0
 14 15  1  0
 15 16  2  0
 16 17  1  0
 17 18  1  0
 18 19  2  0
 18 20  1  0
 20 21  2  0
 21 22  1  0
 22 23  2  0
 23 24  1  0
 24 25  2  0
 25 26  1  0
 26 27  2  0
 27 28  1  0
 16 29  1  0
 29 30  2  0
 12 31  1  0
 31 32  2  0
  4 33  1  0
 33 34  2  0
 33 35  1  0
 32  9  1  0
 30 13  1  0
 28 20  1  0
 27 22  1  0
  1 36  1  0
  1 37  1  0
  1 38  1  0
  2 39  1  0
  3 40  1  0
  3 41  1  0
  3 42  1  0
  4 43  1  6
  5 44  1  0
 10 45  1  0
 11 46  1  0
 14 47  1  0
 15 48  1  0
 17 49  1  0
 21 50  1  0
 23 51  1  0
 24 52  1  0
 25 53  1  0
 26 54  1  0
 29 55  1  0
 30 56  1  0
 31 57  1  0
 32 58  1  0
 35 59  1  0
M  END
$$$$
