@<TRIPOS>MOLECULE
*****
 59 62 0 0 0
SMALL
GASTEIGER

@<TRIPOS>ATOM
      1 C          -8.3700    0.2727   -0.0165 C.3     1  UNL1       -0.0607
      2 C          -7.4971   -0.1613    1.1355 C.3     1  UNL1       -0.0194
      3 C          -7.4718    0.9668    2.1363 C.3     1  UNL1       -0.0607
      4 C          -6.1255   -0.5959    0.7275 C.3     1  UNL1        0.1276
      5 N          -6.2449   -1.7150   -0.1826 N.3     1  UNL1       -0.1759
      6 S          -5.5907   -1.4377   -1.7312 S.O2    1  UNL1        0.0591
      7 O          -6.2711   -0.3440   -2.4994 O.2     1  UNL1       -0.1530
      8 O          -5.7422   -2.6967   -2.5339 O.2     1  UNL1       -0.1530
      9 C          -3.8724   -1.1223   -1.5685 C.ar    1  UNL1        0.1053
     10 C          -3.3488    0.1424   -1.4386 C.ar    1  UNL1       -0.0348
     11 C          -1.9734    0.3089   -1.3089 C.ar    1  UNL1       -0.0522
     12 C          -1.1012   -0.7591   -1.3053 C.ar    1  UNL1       -0.0178
     13 C           0.3505   -0.5471   -1.1668 C.ar    1  UNL1       -0.0178
     14 C           0.9634    0.5829   -1.6667 C.ar    1  UNL1       -0.0523
     15 C           2.3335    0.7617   -1.5205 C.ar    1  UNL1       -0.0399
     16 C           3.1193   -0.1717   -0.8788 C.ar    1  UNL1        0.0338
     17 N           4.4974    0.0546   -0.7589 N.am    1  UNL1       -0.2790
     18 C           5.1067    0.7480    0.3198 C.2     1  UNL1        0.2836
     19 O           4.3950    1.1965    1.2298 O.2     1  UNL1       -0.2665
     20 C           6.5623    0.9479    0.3843 C.ar    1  UNL1        0.1908
     21 C           7.5139    0.5132   -0.5128 C.ar    1  UNL1       -0.0035
     22 C           8.7646    0.9109   -0.0824 C.ar    1  UNL1        0.0209
     23 C          10.0561    0.7805   -0.5360 C.ar    1  UNL1       -0.0510
     24 C          11.1377    1.3056    0.1377 C.ar    1  UNL1       -0.0610
     25 C          10.8524    1.9808    1.3114 C.ar    1  UNL1       -0.0582
     26 C           9.5801    2.1325    1.7970 C.ar    1  UNL1       -0.0187
     27 C           8.5236    1.5910    1.0916 C.ar    1  UNL1        0.1359
     28 O           7.2093    1.5842    1.3221 O.2     1  UNL1       -0.4502
     29 C           2.4752   -1.2939   -0.3886 C.ar    1  UNL1       -0.0399
     30 C           1.1329   -1.4977   -0.5167 C.ar    1  UNL1       -0.0523
     31 C          -1.6348   -2.0246   -1.4361 C.ar    1  UNL1       -0.0522
     32 C          -3.0171   -2.2034   -1.5673 C.ar    1  UNL1       -0.0348
     33 C          -5.2753   -0.9343    1.8986 C.2     1  UNL1        0.3238
     34 O          -4.7613   -2.0693    2.0228 O.2     1  UNL1       -0.2492
     35 O          -5.0284   -0.0013    2.8862 O.3     1  UNL1       -0.4795
     36 H          -8.0623    1.2562   -0.3773 H       1  UNL1        0.0233
     37 H          -8.4069   -0.5150   -0.8146 H       1  UNL1        0.0233
     38 H          -9.3930    0.4062    0.4270 H       1  UNL1        0.0233
     39 H          -8.0692   -0.9961    1.6341 H       1  UNL1        0.0316
     40 H          -7.2750    0.5687    3.1541 H       1  UNL1        0.0233
     41 H          -8.4869    1.4212    2.1931 H       1  UNL1        0.0233
     42 H          -6.7809    1.7718    1.8438 H       1  UNL1        0.0233
     43 H          -5.6406    0.2302    0.1734 H       1  UNL1        0.0595
     44 H          -7.2267   -2.0767   -0.2333 H       1  UNL1        0.1489
     45 H          -4.0266    0.9691   -1.4415 H       1  UNL1        0.0637
     46 H          -1.5558    1.2834   -1.2076 H       1  UNL1        0.0624
     47 H           0.3770    1.3389   -2.1773 H       1  UNL1        0.0624
     48 H           2.7397    1.6730   -1.9400 H       1  UNL1        0.0636
     49 H           5.1623   -0.3020   -1.5059 H       1  UNL1        0.1552
     50 H           7.3197   -0.0434   -1.4010 H       1  UNL1        0.0663
     51 H          10.2287    0.2473   -1.4526 H       1  UNL1        0.0625
     52 H          12.1594    1.2116   -0.2055 H       1  UNL1        0.0618
     53 H          11.7076    2.4082    1.8655 H       1  UNL1        0.0619
     54 H           9.3725    2.6698    2.7260 H       1  UNL1        0.0654
     55 H           3.0719   -2.0492    0.1238 H       1  UNL1        0.0636
     56 H           0.6258   -2.3758   -0.1345 H       1  UNL1        0.0624
     57 H          -0.9578   -2.8607   -1.4337 H       1  UNL1        0.0624
     58 H          -3.4172   -3.2102   -1.6691 H       1  UNL1        0.0637
     59 H          -4.7140   -0.2320    3.8055 H       1  UNL1        0.2951
@<TRIPOS>BOND
     1     1     2    1
     2     2     3    1
     3     2     4    1
     4     4     5    1
     5     5     6    1
     6     6     7    2
     7     6     8    2
     8     6     9    1
     9     9    10   ar
    10    10    11   ar
    11    11    12   ar
    12    12    13    1
    13    13    14   ar
    14    14    15   ar
    15    15    16   ar
    16    16    17    1
    17    17    18   am
    18    18    19    2
    19    18    20    1
    20    20    21   ar
    21    21    22   ar
    22    22    23   ar
    23    23    24   ar
    24    24    25   ar
    25    25    26   ar
    26    26    27   ar
    27    27    28   ar
    28    16    29   ar
    29    29    30   ar
    30    12    31   ar
    31    31    32   ar
    32     4    33    1
    33    33    34    2
    34    33    35    1
    35    32     9   ar
    36    30    13   ar
    37    28    20   ar
    38    27    22   ar
    39     1    36    1
    40     1    37    1
    41     1    38    1
    42     2    39    1
    43     3    40    1
    44     3    41    1
    45     3    42    1
    46     4    43    1
    47     5    44    1
    48    10    45    1
    49    11    46    1
    50    14    47    1
    51    15    48    1
    52    17    49    1
    53    21    50    1
    54    23    51    1
    55    24    52    1
    56    25    53    1
    57    26    54    1
    58    29    55    1
    59    30    56    1
    60    31    57    1
    61    32    58    1
    62    35    59    1
