
     RDKit          3D

 56 60  0  0  0  0  0  0  0  0999 V2000
   -7.1304    2.5135   -1.3636 C   0  0  0  0  0  0  0  0  0  0  0  0
   -6.2980    3.0959   -0.3807 O   0  0  0  0  0  0  0  0  0  0  0  0
   -5.0120    2.6077   -0.2414 C   0  0  0  0  0  0  0  0  0  0  0  0
   -4.1996    3.1738    0.7151 C   0  0  0  0  0  0  0  0  0  0  0  0
   -2.9121    2.6851    0.8545 C   0  0  0  0  0  0  0  0  0  0  0  0
   -2.4225    1.6623    0.0764 C   0  0  0  0  0  0  0  0  0  0  0  0
   -1.0789    1.1567    0.2339 C   0  0  0  0  0  0  0  0  0  0  0  0
   -0.1791    1.6825   -0.4700 O   0  0  0  0  0  0  0  0  0  0  0  0
   -0.7187    0.1170    1.1246 N   0  0  0  0  0  0  0  0  0  0  0  0
   -1.6690   -0.5555    1.9786 C   0  0  0  0  0  0  0  0  0  0  0  0
   -1.4017   -2.0253    1.9219 C   0  0  0  0  0  0  0  0  0  0  0  0
   -0.1412   -2.3086    2.3869 O   0  0  0  0  0  0  0  0  0  0  0  0
    0.7207   -1.2322    2.4247 C   0  0  0  0  0  0  0  0  0  0  0  0
    0.6729   -0.3326    1.2324 C   0  0  1  0  0  0  0  0  0  0  0  0
    1.1642   -0.9642   -0.0013 C   0  0  0  0  0  0  0  0  0  0  0  0
    2.5689   -1.4059    0.1175 C   0  0  0  0  0  0  0  0  0  0  0  0
    3.5895   -0.5042   -0.2353 C   0  0  0  0  0  0  0  0  0  0  0  0
    4.9080   -0.8016   -0.1125 C   0  0  0  0  0  0  0  0  0  0  0  0
    5.9453    0.1302   -0.4759 N   0  0  0  0  0  0  0  0  0  0  0  0
    5.9746    0.9657   -1.4878 N   0  0  0  0  0  0  0  0  0  0  0  0
    7.1279    1.6636   -1.4726 C   0  0  0  0  0  0  0  0  0  0  0  0
    7.8397    1.2102   -0.3691 C   0  0  0  0  0  0  0  0  0  0  0  0
    7.0681    0.2702    0.2064 N   0  0  0  0  0  0  0  0  0  0  0  0
    5.2664   -2.0387    0.3783 C   0  0  0  0  0  0  0  0  0  0  0  0
    4.3158   -2.9480    0.7333 C   0  0  0  0  0  0  0  0  0  0  0  0
    2.9710   -2.6117    0.5939 C   0  0  0  0  0  0  0  0  0  0  0  0
    2.0688   -3.5829    0.9134 F   0  0  0  0  0  0  0  0  0  0  0  0
   -3.2395    1.1060   -0.8728 C   0  0  0  0  0  0  0  0  0  0  0  0
   -2.7323    0.0605   -1.6732 N   0  0  0  0  0  0  0  0  0  0  0  0
   -2.6865   -1.2015   -1.3074 N   0  0  0  0  0  0  0  0  0  0  0  0
   -2.1560   -1.9472   -2.2792 C   0  0  0  0  0  0  0  0  0  0  0  0
   -1.8539   -1.0896   -3.3141 C   0  0  0  0  0  0  0  0  0  0  0  0
   -2.2276    0.1231   -2.8877 N   0  0  0  0  0  0  0  0  0  0  0  0
   -4.5505    1.5819   -1.0364 C   0  0  0  0  0  0  0  0  0  0  0  0
   -8.1520    2.9262   -1.2066 H   0  0  0  0  0  0  0  0  0  0  0  0
   -7.2303    1.4138   -1.2151 H   0  0  0  0  0  0  0  0  0  0  0  0
   -6.7654    2.6588   -2.3902 H   0  0  0  0  0  0  0  0  0  0  0  0
   -4.5828    3.9752    1.3250 H   0  0  0  0  0  0  0  0  0  0  0  0
   -2.2916    3.1375    1.6051 H   0  0  0  0  0  0  0  0  0  0  0  0
   -1.4953   -0.2121    3.0298 H   0  0  0  0  0  0  0  0  0  0  0  0
   -2.7177   -0.3052    1.7282 H   0  0  0  0  0  0  0  0  0  0  0  0
   -1.4613   -2.4103    0.8835 H   0  0  0  0  0  0  0  0  0  0  0  0
   -2.1897   -2.6156    2.4807 H   0  0  0  0  0  0  0  0  0  0  0  0
    1.7529   -1.6062    2.5424 H   0  0  0  0  0  0  0  0  0  0  0  0
    0.5558   -0.6399    3.3799 H   0  0  0  0  0  0  0  0  0  0  0  0
    1.3174    0.5521    1.4952 H   0  0  0  0  0  0  0  0  0  0  0  0
    0.5458   -1.8477   -0.2876 H   0  0  0  0  0  0  0  0  0  0  0  0
    1.1372   -0.3019   -0.8979 H   0  0  0  0  0  0  0  0  0  0  0  0
    3.3030    0.4545   -0.6157 H   0  0  0  0  0  0  0  0  0  0  0  0
    7.4940    2.4266   -2.1379 H   0  0  0  0  0  0  0  0  0  0  0  0
    8.8203    1.5555   -0.0490 H   0  0  0  0  0  0  0  0  0  0  0  0
    6.3452   -2.2435    0.4645 H   0  0  0  0  0  0  0  0  0  0  0  0
    4.6097   -3.9068    1.1137 H   0  0  0  0  0  0  0  0  0  0  0  0
   -2.0088   -3.0171   -2.2245 H   0  0  0  0  0  0  0  0  0  0  0  0
   -1.4029   -1.3756   -4.2710 H   0  0  0  0  0  0  0  0  0  0  0  0
   -5.1754    1.1255   -1.7932 H   0  0  0  0  0  0  0  0  0  0  0  0
  1  2  1  0
  2  3  1  0
  3  4  2  0
  4  5  1  0
  5  6  2  0
  6  7  1  0
  7  8  2  0
  7  9  1  0
  9 10  1  0
 10 11  1  0
 11 12  1  0
 12 13  1  0
 13 14  1  0
 14 15  1  0
 15 16  1  0
 16 17  2  0
 17 18  1  0
 18 19  1  0
 19 20  1  0
 20 21  2  0
 21 22  1  0
 22 23  2  0
 18 24  2  0
 24 25  1  0
 25 26  2  0
 26 27  1  0
  6 28  1  0
 28 29  1  0
 29 30  1  0
 30 31  2  0
 31 32  1  0
 32 33  2  0
 28 34  2  0
 34  3  1  0
 14  9  1  0
 26 16  1  0
 33 29  1  0
 23 19  1  0
  1 35  1  0
  1 36  1  0
  1 37  1  0
  4 38  1  0
  5 39  1  0
 10 40  1  0
 10 41  1  0
 11 42  1  0
 11 43  1  0
 13 44  1  0
 13 45  1  0
 14 46  1  1
 15 47  1  0
 15 48  1  0
 17 49  1  0
 21 50  1  0
 22 51  1  0
 24 52  1  0
 25 53  1  0
 31 54  1  0
 32 55  1  0
 34 56  1  0
M  END
$$$$
