@<TRIPOS>MOLECULE
*****
 56 60 0 0 0
SMALL
GASTEIGER

@<TRIPOS>ATOM
      1 C          -7.1304    2.5135   -1.3636 C.3     1  UNL1        0.0788
      2 O          -6.2980    3.0959   -0.3807 O.3     1  UNL1       -0.4950
      3 C          -5.0120    2.6077   -0.2414 C.ar    1  UNL1        0.1222
      4 C          -4.1996    3.1738    0.7151 C.ar    1  UNL1       -0.0191
      5 C          -2.9121    2.6851    0.8545 C.ar    1  UNL1       -0.0441
      6 C          -2.4225    1.6623    0.0764 C.ar    1  UNL1        0.0642
      7 C          -1.0789    1.1567    0.2339 C.2     1  UNL1        0.2491
      8 O          -0.1791    1.6825   -0.4700 O.2     1  UNL1       -0.2699
      9 N          -0.7187    0.1170    1.1246 N.am    1  UNL1       -0.2897
     10 C          -1.6690   -0.5555    1.9786 C.3     1  UNL1        0.0388
     11 C          -1.4017   -2.0253    1.9219 C.3     1  UNL1        0.0635
     12 O          -0.1412   -2.3086    2.3869 O.3     1  UNL1       -0.3764
     13 C           0.7207   -1.2322    2.4247 C.3     1  UNL1        0.0666
     14 C           0.6729   -0.3326    1.2324 C.3     1  UNL1        0.0537
     15 C           1.1642   -0.9642   -0.0013 C.3     1  UNL1       -0.0040
     16 C           2.5689   -1.4059    0.1175 C.ar    1  UNL1       -0.0083
     17 C           3.5895   -0.5042   -0.2353 C.ar    1  UNL1       -0.0286
     18 C           4.9080   -0.8016   -0.1125 C.ar    1  UNL1        0.0866
     19 N           5.9453    0.1302   -0.4759 N.ar    1  UNL1       -0.1503
     20 N           5.9746    0.9657   -1.4878 N.ar    1  UNL1       -0.1556
     21 C           7.1279    1.6636   -1.4726 C.ar    1  UNL1        0.0697
     22 C           7.8397    1.2102   -0.3691 C.ar    1  UNL1        0.0697
     23 N           7.0681    0.2702    0.2064 N.ar    1  UNL1       -0.1556
     24 C           5.2664   -2.0387    0.3783 C.ar    1  UNL1       -0.0318
     25 C           4.3158   -2.9480    0.7333 C.ar    1  UNL1       -0.0241
     26 C           2.9710   -2.6117    0.5939 C.ar    1  UNL1        0.1267
     27 F           2.0688   -3.5829    0.9134 F       1  UNL1       -0.2052
     28 C          -3.2395    1.1060   -0.8728 C.ar    1  UNL1        0.1017
     29 N          -2.7323    0.0605   -1.6732 N.ar    1  UNL1       -0.1495
     30 N          -2.6865   -1.2015   -1.3074 N.ar    1  UNL1       -0.1556
     31 C          -2.1560   -1.9472   -2.2792 C.ar    1  UNL1        0.0697
     32 C          -1.8539   -1.0896   -3.3141 C.ar    1  UNL1        0.0697
     33 N          -2.2276    0.1231   -2.8877 N.ar    1  UNL1       -0.1556
     34 C          -4.5505    1.5819   -1.0364 C.ar    1  UNL1        0.0079
     35 H          -8.1520    2.9262   -1.2066 H       1  UNL1        0.0660
     36 H          -7.2303    1.4138   -1.2151 H       1  UNL1        0.0660
     37 H          -6.7654    2.6588   -2.3902 H       1  UNL1        0.0660
     38 H          -4.5828    3.9752    1.3250 H       1  UNL1        0.0654
     39 H          -2.2916    3.1375    1.6051 H       1  UNL1        0.0627
     40 H          -1.4953   -0.2121    3.0298 H       1  UNL1        0.0487
     41 H          -2.7177   -0.3052    1.7282 H       1  UNL1        0.0487
     42 H          -1.4613   -2.4103    0.8835 H       1  UNL1        0.0575
     43 H          -2.1897   -2.6156    2.4807 H       1  UNL1        0.0575
     44 H           1.7529   -1.6062    2.5424 H       1  UNL1        0.0578
     45 H           0.5558   -0.6399    3.3799 H       1  UNL1        0.0578
     46 H           1.3174    0.5521    1.4952 H       1  UNL1        0.0526
     47 H           0.5458   -1.8477   -0.2876 H       1  UNL1        0.0333
     48 H           1.1372   -0.3019   -0.8979 H       1  UNL1        0.0333
     49 H           3.3030    0.4545   -0.6157 H       1  UNL1        0.0643
     50 H           7.4940    2.4266   -2.1379 H       1  UNL1        0.0864
     51 H           8.8203    1.5555   -0.0490 H       1  UNL1        0.0864
     52 H           6.3452   -2.2435    0.4645 H       1  UNL1        0.0640
     53 H           4.6097   -3.9068    1.1137 H       1  UNL1        0.0647
     54 H          -2.0088   -3.0171   -2.2245 H       1  UNL1        0.0864
     55 H          -1.4029   -1.3756   -4.2710 H       1  UNL1        0.0864
     56 H          -5.1754    1.1255   -1.7932 H       1  UNL1        0.0676
@<TRIPOS>BOND
     1     1     2    1
     2     2     3    1
     3     3     4   ar
     4     4     5   ar
     5     5     6   ar
     6     6     7    1
     7     7     8    2
     8     7     9   am
     9     9    10    1
    10    10    11    1
    11    11    12    1
    12    12    13    1
    13    13    14    1
    14    14    15    1
    15    15    16    1
    16    16    17   ar
    17    17    18   ar
    18    18    19    1
    19    19    20   ar
    20    20    21   ar
    21    21    22   ar
    22    22    23   ar
    23    18    24   ar
    24    24    25   ar
    25    25    26   ar
    26    26    27    1
    27     6    28   ar
    28    28    29    1
    29    29    30   ar
    30    30    31   ar
    31    31    32   ar
    32    32    33   ar
    33    28    34   ar
    34    34     3   ar
    35    14     9    1
    36    26    16   ar
    37    33    29   ar
    38    23    19   ar
    39     1    35    1
    40     1    36    1
    41     1    37    1
    42     4    38    1
    43     5    39    1
    44    10    40    1
    45    10    41    1
    46    11    42    1
    47    11    43    1
    48    13    44    1
    49    13    45    1
    50    14    46    1
    51    15    47    1
    52    15    48    1
    53    17    49    1
    54    21    50    1
    55    22    51    1
    56    24    52    1
    57    25    53    1
    58    31    54    1
    59    32    55    1
    60    34    56    1
