
     RDKit          3D

 50 53  0  0  0  0  0  0  0  0999 V2000
   -5.4348   -3.1219   -1.6143 C   0  0  0  0  0  0  0  0  0  0  0  0
   -4.2221   -2.4534   -1.1683 N   0  0  0  0  0  0  0  0  0  0  0  0
   -3.1239   -3.0824   -0.7712 N   0  0  0  0  0  0  0  0  0  0  0  0
   -2.1832   -2.1970   -0.4233 C   0  0  0  0  0  0  0  0  0  0  0  0
   -0.8607   -2.5384    0.0699 C   0  0  0  0  0  0  0  0  0  0  0  0
   -0.5284   -3.8873    0.2499 C   0  0  0  0  0  0  0  0  0  0  0  0
    0.6429   -4.3077    0.7093 N   0  0  0  0  0  0  0  0  0  0  0  0
    1.5592   -3.3815    1.0174 C   0  0  0  0  0  0  0  0  0  0  0  0
    2.7951   -3.5789    1.4912 N   0  0  0  0  0  0  0  0  0  0  0  0
    3.3251   -2.3875    1.6413 C   0  0  0  0  0  0  0  0  0  0  0  0
    2.4176   -1.3793    1.2580 C   0  0  0  0  0  0  0  0  0  0  0  0
    2.6873    0.0483    1.2946 C   0  0  0  0  0  0  0  0  0  0  0  0
    2.7068    0.6973    2.3889 O   0  0  0  0  0  0  0  0  0  0  0  0
    2.9491    0.8016    0.1154 N   0  0  0  0  0  0  0  0  0  0  0  0
    3.2387    2.2003    0.1134 C   0  0  0  0  0  0  0  0  0  0  0  0
    2.1910    3.0818    0.7011 C   0  0  0  0  0  0  0  0  0  0  0  0
    4.5016    2.4028    0.9649 C   0  0  0  0  0  0  0  0  0  0  0  0
    3.5468    2.6364   -1.3108 C   0  0  0  0  0  0  0  0  0  0  0  0
    1.2876   -2.0313    0.8597 C   0  0  0  0  0  0  0  0  0  0  0  0
    0.0757   -1.6226    0.3859 N   0  0  0  0  0  0  0  0  0  0  0  0
   -2.7351   -0.9671   -0.6175 C   0  0  0  0  0  0  0  0  0  0  0  0
   -2.3016    0.3410   -0.4457 C   0  0  0  0  0  0  0  0  0  0  0  0
   -3.0539    1.4494   -0.7076 C   0  0  0  0  0  0  0  0  0  0  0  0
   -2.6313    2.7499   -0.5388 O   0  0  0  0  0  0  0  0  0  0  0  0
   -1.3965    3.1967   -0.0938 C   0  0  0  0  0  0  0  0  0  0  0  0
   -1.6348    3.8504    1.1279 F   0  0  0  0  0  0  0  0  0  0  0  0
   -0.9056    4.1189   -0.9947 F   0  0  0  0  0  0  0  0  0  0  0  0
   -4.3496    1.2519   -1.1818 C   0  0  0  0  0  0  0  0  0  0  0  0
   -4.8236   -0.0305   -1.3684 C   0  0  0  0  0  0  0  0  0  0  0  0
   -4.0476   -1.1308   -1.0972 C   0  0  0  0  0  0  0  0  0  0  0  0
   -5.1994   -3.8845   -2.3906 H   0  0  0  0  0  0  0  0  0  0  0  0
   -6.1434   -2.3881   -1.9899 H   0  0  0  0  0  0  0  0  0  0  0  0
   -5.9190   -3.6887   -0.7887 H   0  0  0  0  0  0  0  0  0  0  0  0
   -1.3031   -4.5987   -0.0152 H   0  0  0  0  0  0  0  0  0  0  0  0
    3.2594   -4.5026    1.7053 H   0  0  0  0  0  0  0  0  0  0  0  0
    4.3139   -2.1780    2.0049 H   0  0  0  0  0  0  0  0  0  0  0  0
    2.9231    0.2890   -0.7866 H   0  0  0  0  0  0  0  0  0  0  0  0
    1.4945    3.4165   -0.0904 H   0  0  0  0  0  0  0  0  0  0  0  0
    2.6217    3.9319    1.2724 H   0  0  0  0  0  0  0  0  0  0  0  0
    1.5993    2.4966    1.4317 H   0  0  0  0  0  0  0  0  0  0  0  0
    5.2135    3.0687    0.4069 H   0  0  0  0  0  0  0  0  0  0  0  0
    4.2554    2.8567    1.9432 H   0  0  0  0  0  0  0  0  0  0  0  0
    5.0244    1.4322    1.0687 H   0  0  0  0  0  0  0  0  0  0  0  0
    4.3302    3.4095   -1.2262 H   0  0  0  0  0  0  0  0  0  0  0  0
    2.6404    3.0300   -1.8187 H   0  0  0  0  0  0  0  0  0  0  0  0
    3.9633    1.7588   -1.8414 H   0  0  0  0  0  0  0  0  0  0  0  0
   -1.2950    0.4630   -0.0773 H   0  0  0  0  0  0  0  0  0  0  0  0
   -0.6553    2.4077    0.0755 H   0  0  0  0  0  0  0  0  0  0  0  0
   -4.9725    2.1084   -1.4000 H   0  0  0  0  0  0  0  0  0  0  0  0
   -5.8432   -0.1576   -1.7423 H   0  0  0  0  0  0  0  0  0  0  0  0
  1  2  1  0
  2  3  1  0
  3  4  2  0
  4  5  1  0
  5  6  2  0
  6  7  1  0
  7  8  2  0
  8  9  1  0
  9 10  1  0
 10 11  2  0
 11 12  1  0
 12 13  2  0
 12 14  1  0
 14 15  1  0
 15 16  1  0
 15 17  1  0
 15 18  1  0
 11 19  1  0
 19 20  2  0
  4 21  1  0
 21 22  2  0
 22 23  1  0
 23 24  1  0
 24 25  1  0
 25 26  1  0
 25 27  1  0
 23 28  2  0
 28 29  1  0
 29 30  2  0
 30  2  1  0
 20  5  1  0
 30 21  1  0
 19  8  1  0
  1 31  1  0
  1 32  1  0
  1 33  1  0
  6 34  1  0
  9 35  1  0
 10 36  1  0
 14 37  1  0
 16 38  1  0
 16 39  1  0
 16 40  1  0
 17 41  1  0
 17 42  1  0
 17 43  1  0
 18 44  1  0
 18 45  1  0
 18 46  1  0
 22 47  1  0
 25 48  1  0
 28 49  1  0
 29 50  1  0
M  END
$$$$
