@<TRIPOS>MOLECULE
*****
 50 53 0 0 0
SMALL
GASTEIGER

@<TRIPOS>ATOM
      1 C          -5.4348   -3.1219   -1.6143 C.3     1  UNL1        0.0309
      2 N          -4.2221   -2.4534   -1.1683 N.ar    1  UNL1       -0.2661
      3 N          -3.1239   -3.0824   -0.7712 N.ar    1  UNL1       -0.1687
      4 C          -2.1832   -2.1970   -0.4233 C.ar    1  UNL1        0.1202
      5 C          -0.8607   -2.5384    0.0699 C.ar    1  UNL1        0.1104
      6 C          -0.5284   -3.8873    0.2499 C.ar    1  UNL1        0.0575
      7 N           0.6429   -4.3077    0.7093 N.ar    1  UNL1       -0.2338
      8 C           1.5592   -3.3815    1.0174 C.ar    1  UNL1        0.1574
      9 N           2.7951   -3.5789    1.4912 N.ar    1  UNL1       -0.3438
     10 C           3.3251   -2.3875    1.6413 C.ar    1  UNL1        0.0178
     11 C           2.4176   -1.3793    1.2580 C.ar    1  UNL1        0.0815
     12 C           2.6873    0.0483    1.2946 C.2     1  UNL1        0.2480
     13 O           2.7068    0.6973    2.3889 O.2     1  UNL1       -0.2701
     14 N           2.9491    0.8016    0.1154 N.am    1  UNL1       -0.3065
     15 C           3.2387    2.2003    0.1134 C.3     1  UNL1        0.0265
     16 C           2.1910    3.0818    0.7011 C.3     1  UNL1       -0.0442
     17 C           4.5016    2.4028    0.9649 C.3     1  UNL1       -0.0442
     18 C           3.5468    2.6364   -1.3108 C.3     1  UNL1       -0.0442
     19 C           1.2876   -2.0313    0.8597 C.ar    1  UNL1        0.1202
     20 N           0.0757   -1.6226    0.3859 N.ar    1  UNL1       -0.2397
     21 C          -2.7351   -0.9671   -0.6175 C.ar    1  UNL1        0.0326
     22 C          -2.3016    0.3410   -0.4457 C.ar    1  UNL1       -0.0084
     23 C          -3.0539    1.4494   -0.7076 C.ar    1  UNL1        0.1276
     24 O          -2.6313    2.7499   -0.5388 O.3     1  UNL1       -0.4342
     25 C          -1.3965    3.1967   -0.0938 C.3     1  UNL1        0.3893
     26 F          -1.6348    3.8504    1.1279 F       1  UNL1       -0.1663
     27 F          -0.9056    4.1189   -0.9947 F       1  UNL1       -0.1663
     28 C          -4.3496    1.2519   -1.1818 C.ar    1  UNL1       -0.0177
     29 C          -4.8236   -0.0305   -1.3684 C.ar    1  UNL1       -0.0326
     30 C          -4.0476   -1.1308   -1.0972 C.ar    1  UNL1        0.0695
     31 H          -5.1994   -3.8845   -2.3906 H       1  UNL1        0.0473
     32 H          -6.1434   -2.3881   -1.9899 H       1  UNL1        0.0473
     33 H          -5.9190   -3.6887   -0.7887 H       1  UNL1        0.0473
     34 H          -1.3031   -4.5987   -0.0152 H       1  UNL1        0.0853
     35 H           3.2594   -4.5026    1.7053 H       1  UNL1        0.1668
     36 H           4.3139   -2.1780    2.0049 H       1  UNL1        0.0816
     37 H           2.9231    0.2890   -0.7866 H       1  UNL1        0.1495
     38 H           1.4945    3.4165   -0.0904 H       1  UNL1        0.0250
     39 H           2.6217    3.9319    1.2724 H       1  UNL1        0.0250
     40 H           1.5993    2.4966    1.4317 H       1  UNL1        0.0250
     41 H           5.2135    3.0687    0.4069 H       1  UNL1        0.0250
     42 H           4.2554    2.8567    1.9432 H       1  UNL1        0.0250
     43 H           5.0244    1.4322    1.0687 H       1  UNL1        0.0250
     44 H           4.3302    3.4095   -1.2262 H       1  UNL1        0.0250
     45 H           2.6404    3.0300   -1.8187 H       1  UNL1        0.0250
     46 H           3.9633    1.7588   -1.8414 H       1  UNL1        0.0250
     47 H          -1.2950    0.4630   -0.0773 H       1  UNL1        0.0661
     48 H          -0.6553    2.4077    0.0755 H       1  UNL1        0.1520
     49 H          -4.9725    2.1084   -1.4000 H       1  UNL1        0.0655
     50 H          -5.8432   -0.1576   -1.7423 H       1  UNL1        0.0640
@<TRIPOS>BOND
     1     1     2    1
     2     2     3   ar
     3     3     4   ar
     4     4     5    1
     5     5     6   ar
     6     6     7   ar
     7     7     8   ar
     8     8     9   ar
     9     9    10   ar
    10    10    11   ar
    11    11    12    1
    12    12    13    2
    13    12    14   am
    14    14    15    1
    15    15    16    1
    16    15    17    1
    17    15    18    1
    18    11    19   ar
    19    19    20   ar
    20     4    21   ar
    21    21    22   ar
    22    22    23   ar
    23    23    24    1
    24    24    25    1
    25    25    26    1
    26    25    27    1
    27    23    28   ar
    28    28    29   ar
    29    29    30   ar
    30    30     2   ar
    31    20     5   ar
    32    30    21   ar
    33    19     8   ar
    34     1    31    1
    35     1    32    1
    36     1    33    1
    37     6    34    1
    38     9    35    1
    39    10    36    1
    40    14    37    1
    41    16    38    1
    42    16    39    1
    43    16    40    1
    44    17    41    1
    45    17    42    1
    46    17    43    1
    47    18    44    1
    48    18    45    1
    49    18    46    1
    50    22    47    1
    51    25    48    1
    52    28    49    1
    53    29    50    1
