@<TRIPOS>MOLECULE
*****
 59 60 0 0 0
SMALL
GASTEIGER

@<TRIPOS>ATOM
      1 C          -1.4254    0.6259   -1.6168 C.3     1  UNL1       -0.0171
      2 C          -0.7371    1.9571   -2.0218 C.3     1  UNL1       -0.0603
      3 C          -0.7469   -0.4463   -2.4193 C.3     1  UNL1       -0.0512
      4 C          -1.3411   -1.7981   -2.1188 C.3     1  UNL1       -0.0650
      5 C          -1.2159    0.5383   -0.1380 C.3     1  UNL1        0.1022
      6 N           0.2187    0.5144    0.0820 N.am    1  UNL1       -0.3015
      7 C           0.8728    1.5875    0.7316 C.2     1  UNL1        0.2456
      8 O           0.3000    2.6181    1.1618 O.2     1  UNL1       -0.2728
      9 C           2.3274    1.6246    0.9853 C.3     1  UNL1        0.1698
     10 O           2.8421    0.4093    1.6082 O.3     1  UNL1       -0.3487
     11 C           3.2099    0.6956    0.2704 C.3     1  UNL1        0.1698
     12 C           4.6703    0.9655    0.1492 C.2     1  UNL1        0.2450
     13 O           5.1208    1.7932    1.0132 O.2     1  UNL1       -0.2729
     14 N           5.4267    0.3163   -0.8687 N.am    1  UNL1       -0.3131
     15 C           6.8143    0.6433   -0.8981 C.3     1  UNL1        0.0114
     16 C           7.5791    0.3256    0.3311 C.3     1  UNL1       -0.0402
     17 C           7.5369   -1.1581    0.6559 C.3     1  UNL1       -0.0639
     18 C          -1.8829   -0.5909    0.5373 C.2     1  UNL1        0.2368
     19 O          -1.6117   -1.6013    1.2536 O.2     1  UNL1       -0.2735
     20 N          -3.2343   -1.0033    0.6435 N.am    1  UNL1       -0.2865
     21 C          -3.3347   -2.2109    1.4451 C.3     1  UNL1        0.0157
     22 C          -4.8519   -2.4269    1.4437 C.3     1  UNL1       -0.0349
     23 C          -5.3540   -1.7442    0.1974 C.3     1  UNL1       -0.0225
     24 C          -4.4989   -0.4954    0.1417 C.3     1  UNL1        0.1230
     25 C          -5.1046    0.4969    1.0622 C.2     1  UNL1        0.3276
     26 O          -6.2224    1.0158    0.7289 O.2     1  UNL1       -0.2487
     27 O          -4.5825    0.9468    2.2898 O.3     1  UNL1       -0.4666
     28 C          -5.3102    1.9106    3.0417 C.3     1  UNL1        0.0817
     29 H          -2.4499    0.7371   -1.9589 H       1  UNL1        0.0321
     30 H           0.2854    1.9964   -1.6278 H       1  UNL1        0.0233
     31 H          -0.8430    2.1237   -3.0961 H       1  UNL1        0.0233
     32 H          -1.3226    2.7247   -1.4755 H       1  UNL1        0.0233
     33 H           0.3470   -0.4965   -2.2401 H       1  UNL1        0.0266
     34 H          -0.9670   -0.2513   -3.4955 H       1  UNL1        0.0266
     35 H          -0.8806   -2.3171   -1.2659 H       1  UNL1        0.0230
     36 H          -1.1649   -2.4855   -2.9962 H       1  UNL1        0.0230
     37 H          -2.4364   -1.7297   -1.9090 H       1  UNL1        0.0230
     38 H          -1.5673    1.5115    0.2941 H       1  UNL1        0.0597
     39 H           0.7524   -0.3166   -0.2513 H       1  UNL1        0.1495
     40 H           2.7518    2.5043    1.5127 H       1  UNL1        0.0725
     41 H           2.7434   -0.0116   -0.4430 H       1  UNL1        0.0725
     42 H           4.8896   -0.3447   -1.5044 H       1  UNL1        0.1488
     43 H           7.3276    0.1786   -1.7593 H       1  UNL1        0.0462
     44 H           6.8818    1.7414   -1.0678 H       1  UNL1        0.0462
     45 H           8.6635    0.5318    0.0851 H       1  UNL1        0.0278
     46 H           7.3782    0.9717    1.1992 H       1  UNL1        0.0278
     47 H           6.6482   -1.6710    0.2314 H       1  UNL1        0.0230
     48 H           8.4050   -1.7165    0.2027 H       1  UNL1        0.0230
     49 H           7.6363   -1.3570    1.7553 H       1  UNL1        0.0230
     50 H          -2.8122   -3.0786    1.0129 H       1  UNL1        0.0465
     51 H          -3.0483   -1.9656    2.4792 H       1  UNL1        0.0465
     52 H          -5.2921   -1.8664    2.3065 H       1  UNL1        0.0281
     53 H          -5.1223   -3.4964    1.4667 H       1  UNL1        0.0281
     54 H          -6.4176   -1.4990    0.2538 H       1  UNL1        0.0289
     55 H          -5.0836   -2.3619   -0.6845 H       1  UNL1        0.0289
     56 H          -4.4156   -0.0866   -0.8758 H       1  UNL1        0.0616
     57 H          -6.3936    1.7968    2.9901 H       1  UNL1        0.0661
     58 H          -4.9345    1.8292    4.0940 H       1  UNL1        0.0661
     59 H          -5.0232    2.8956    2.5967 H       1  UNL1        0.0661
@<TRIPOS>BOND
     1     1     2    1
     2     1     3    1
     3     3     4    1
     4     1     5    1
     5     5     6    1
     6     6     7   am
     7     7     8    2
     8     7     9    1
     9     9    10    1
    10    10    11    1
    11    11    12    1
    12    12    13    2
    13    12    14   am
    14    14    15    1
    15    15    16    1
    16    16    17    1
    17     5    18    1
    18    18    19    2
    19    18    20   am
    20    20    21    1
    21    21    22    1
    22    22    23    1
    23    23    24    1
    24    24    25    1
    25    25    26    2
    26    25    27    1
    27    27    28    1
    28    11     9    1
    29    24    20    1
    30     1    29    1
    31     2    30    1
    32     2    31    1
    33     2    32    1
    34     3    33    1
    35     3    34    1
    36     4    35    1
    37     4    36    1
    38     4    37    1
    39     5    38    1
    40     6    39    1
    41     9    40    1
    42    11    41    1
    43    14    42    1
    44    15    43    1
    45    15    44    1
    46    16    45    1
    47    16    46    1
    48    17    47    1
    49    17    48    1
    50    17    49    1
    51    21    50    1
    52    21    51    1
    53    22    52    1
    54    22    53    1
    55    23    54    1
    56    23    55    1
    57    24    56    1
    58    28    57    1
    59    28    58    1
    60    28    59    1
