@<TRIPOS>MOLECULE
*****
 60 64 0 0 0
SMALL
GASTEIGER

@<TRIPOS>ATOM
      1 C           2.0434    0.9893    0.0090 C.3     1  UNL1        0.0902
      2 C           0.8025    1.1544    0.8447 C.3     1  UNL1        0.0051
      3 C          -0.3741    0.3923    0.3344 C.3     1  UNL1        0.0912
      4 O          -1.3021    0.3323    1.3720 O.3     1  UNL1       -0.3672
      5 C          -2.6225    0.2919    0.8596 C.3     1  UNL1        0.0922
      6 C          -3.4746    1.1633    1.7369 C.3     1  UNL1       -0.0055
      7 C          -4.6180    1.7928    1.0225 C.2     1  UNL1       -0.0829
      8 C          -5.7945    1.3020    0.6512 C.2     1  UNL1       -0.0572
      9 C          -6.3057   -0.0838    0.8645 C.3     1  UNL1        0.1016
     10 O          -6.1626   -0.3735    2.2186 O.3     1  UNL1       -0.3851
     11 C          -5.3383   -0.9793    0.0684 C.3     1  UNL1        0.1118
     12 C          -5.0893   -0.3020   -1.2161 C.3     1  UNL1        0.0732
     13 O          -4.3351   -1.0391   -2.1278 O.3     1  UNL1       -0.3924
     14 O          -4.3957   -1.3752    0.8838 O.3     1  UNL1       -0.3616
     15 C          -3.1014   -1.1511    0.8630 C.3     1  UNL1        0.1038
     16 C          -2.2872   -1.9345   -0.1111 C.2     1  UNL1       -0.0546
     17 C          -1.0185   -1.8633   -0.4995 C.2     1  UNL1       -0.0546
     18 C           0.0765   -0.9723   -0.1090 C.3     1  UNL1        0.1036
     19 O           0.9220   -0.7641   -1.1974 O.3     1  UNL1       -0.3616
     20 C           2.1301   -0.3630   -0.6672 C.3     1  UNL1        0.1140
     21 C           3.2282   -0.2482   -1.6667 C.3     1  UNL1        0.1122
     22 O           3.4246   -1.4827   -2.3174 O.3     1  UNL1       -0.3865
     23 C           4.4972    0.0738   -0.9230 C.3     1  UNL1        0.1137
     24 O           5.3946    0.6116   -1.8486 O.3     1  UNL1       -0.3673
     25 C           6.6718    0.0754   -1.7108 C.3     1  UNL1        0.0664
     26 C           7.2121    0.1666   -0.3373 C.2     1  UNL1       -0.0625
     27 C           6.6932    0.3522    0.8502 C.2     1  UNL1       -0.0833
     28 C           5.3175    0.5520    1.3161 C.3     1  UNL1       -0.0057
     29 C           4.3636    1.0133    0.2101 C.3     1  UNL1        0.0911
     30 O           3.1394    1.1051    0.8211 O.3     1  UNL1       -0.3677
     31 H           2.0173    1.7894   -0.7845 H       1  UNL1        0.0624
     32 H           0.5346    2.2305    0.8979 H       1  UNL1        0.0317
     33 H           1.0350    0.7711    1.8744 H       1  UNL1        0.0317
     34 H          -0.8163    0.9252   -0.5556 H       1  UNL1        0.0626
     35 H          -2.5300    0.7229   -0.1575 H       1  UNL1        0.0628
     36 H          -3.8446    0.5667    2.5982 H       1  UNL1        0.0333
     37 H          -2.8243    1.9611    2.1598 H       1  UNL1        0.0333
     38 H          -4.5208    2.8479    0.7289 H       1  UNL1        0.0571
     39 H          -6.4595    1.9624    0.1417 H       1  UNL1        0.0595
     40 H          -7.3450   -0.1961    0.5122 H       1  UNL1        0.0664
     41 H          -6.3147    0.3882    2.8164 H       1  UNL1        0.2103
     42 H          -5.9948   -1.8702   -0.1787 H       1  UNL1        0.0648
     43 H          -6.0828   -0.1681   -1.7473 H       1  UNL1        0.0584
     44 H          -4.6804    0.7148   -1.1924 H       1  UNL1        0.0584
     45 H          -4.8136   -1.7722   -2.5524 H       1  UNL1        0.2095
     46 H          -2.7083   -1.5407    1.8590 H       1  UNL1        0.0667
     47 H          -2.8038   -2.7552   -0.6413 H       1  UNL1        0.0596
     48 H          -0.6920   -2.5981   -1.2578 H       1  UNL1        0.0596
     49 H           0.6950   -1.3749    0.7287 H       1  UNL1        0.0666
     50 H           2.4198   -1.1233    0.0846 H       1  UNL1        0.0649
     51 H           3.0345    0.5214   -2.4304 H       1  UNL1        0.0647
     52 H           3.5705   -1.3492   -3.3009 H       1  UNL1        0.2100
     53 H           4.9074   -0.9118   -0.5659 H       1  UNL1        0.0649
     54 H           6.7308   -0.9676   -2.1128 H       1  UNL1        0.0604
     55 H           7.3373    0.6676   -2.3724 H       1  UNL1        0.0604
     56 H           8.2904    0.0551   -0.2888 H       1  UNL1        0.0592
     57 H           7.3483    0.3767    1.7260 H       1  UNL1        0.0570
     58 H           4.8420   -0.3822    1.7161 H       1  UNL1        0.0333
     59 H           5.2478    1.2940    2.1537 H       1  UNL1        0.0333
     60 H           4.7228    2.0455   -0.0531 H       1  UNL1        0.0626
@<TRIPOS>BOND
     1     1     2    1
     2     2     3    1
     3     3     4    1
     4     4     5    1
     5     5     6    1
     6     6     7    1
     7     7     8    2
     8     8     9    1
     9     9    10    1
    10     9    11    1
    11    11    12    1
    12    12    13    1
    13    11    14    1
    14    14    15    1
    15    15    16    1
    16    16    17    2
    17    17    18    1
    18    18    19    1
    19    19    20    1
    20    20    21    1
    21    21    22    1
    22    21    23    1
    23    23    24    1
    24    24    25    1
    25    25    26    1
    26    26    27    2
    27    27    28    1
    28    28    29    1
    29    29    30    1
    30    20     1    1
    31    29    23    1
    32    30     1    1
    33    18     3    1
    34    15     5    1
    35     1    31    1
    36     2    32    1
    37     2    33    1
    38     3    34    1
    39     5    35    1
    40     6    36    1
    41     6    37    1
    42     7    38    1
    43     8    39    1
    44     9    40    1
    45    10    41    1
    46    11    42    1
    47    12    43    1
    48    12    44    1
    49    13    45    1
    50    15    46    1
    51    16    47    1
    52    17    48    1
    53    18    49    1
    54    20    50    1
    55    21    51    1
    56    22    52    1
    57    23    53    1
    58    25    54    1
    59    25    55    1
    60    26    56    1
    61    27    57    1
    62    28    58    1
    63    28    59    1
    64    29    60    1
