@<TRIPOS>MOLECULE
*****
 92 94 0 0 0
SMALL
GASTEIGER

@<TRIPOS>ATOM
      1 C           3.7260   -1.8286    0.8408 C.3     1  UNL1        0.1371
      2 O           3.1938   -1.6915    2.1130 O.3     1  UNL1       -0.3818
      3 C           4.7880   -2.8903    0.8015 C.2     1  UNL1        0.2127
      4 O           4.6778   -4.2419    1.0751 O.2     1  UNL1       -0.4939
      5 N           6.0385   -2.7405    0.4976 N.2     1  UNL1       -0.2521
      6 C           6.5210   -1.4221    0.1482 C.3     1  UNL1        0.0515
      7 C           8.0488   -1.4458    0.2257 C.3     1  UNL1        0.0426
      8 C           8.5096   -0.0614   -0.1420 C.2     1  UNL1        0.1842
      9 O           8.1055    0.2680   -1.4377 O.2     1  UNL1       -0.4956
     10 N           9.1739    0.8620    0.4530 N.2     1  UNL1       -0.2539
     11 C           9.6732    0.7090    1.7906 C.3     1  UNL1        0.0520
     12 C          11.1612    0.4923    1.8737 C.3     1  UNL1        0.0137
     13 S          12.0492    1.8893    1.1658 S.3     1  UNL1       -0.1510
     14 C          11.7667    2.0131   -0.6034 C.3     1  UNL1        0.0611
     15 C          12.5511    3.1981   -1.0936 C.2     1  UNL1        0.2451
     16 O          12.0206    4.2879   -1.1079 O.2     1  UNL1       -0.2871
     17 C          13.9485    3.0115   -1.5468 C.3     1  UNL1        0.4515
     18 F          14.0143    2.1393   -2.5978 F       1  UNL1       -0.1633
     19 F          14.4725    4.2412   -1.9313 F       1  UNL1       -0.1633
     20 F          14.6544    2.4747   -0.4934 F       1  UNL1       -0.1633
     21 C           2.6108   -2.1012   -0.1440 C.3     1  UNL1        0.0236
     22 C           3.1217   -2.2631   -1.5531 C.3     1  UNL1       -0.0549
     23 C           1.8554   -3.3378    0.2853 C.3     1  UNL1       -0.0549
     24 C           1.6461   -0.9172   -0.0492 C.3     1  UNL1        0.0670
     25 O           0.6040   -1.1422   -0.9486 O.3     1  UNL1       -0.2857
     26 P          -0.4790    0.1373   -0.8154 P.3     1  UNL1        0.4834
     27 O           0.3526    1.5590   -1.2739 O.3     1  UNL1       -0.3022
     28 O          -0.9012    0.3288    0.6259 O.2     1  UNL1       -0.2269
     29 O          -1.8256   -0.0222   -1.7875 O.3     1  UNL1       -0.1861
     30 P          -3.1143   -0.8195   -1.0530 P.3     1  UNL1        0.4835
     31 O          -3.2107   -2.3510   -1.8096 O.3     1  UNL1       -0.3022
     32 O          -2.8690   -1.0587    0.4066 O.2     1  UNL1       -0.2269
     33 O          -4.5449    0.0366   -1.3203 O.3     1  UNL1       -0.2837
     34 C          -5.1053    0.4450   -0.1215 C.3     1  UNL1        0.0879
     35 C          -6.3947    1.2021   -0.3445 C.3     1  UNL1        0.1142
     36 O          -7.2890    0.3586   -1.0030 O.3     1  UNL1       -0.3456
     37 C          -8.5381    0.8742   -0.6824 C.3     1  UNL1        0.1667
     38 N          -9.6165    0.0022   -1.0274 N.ar    1  UNL1       -0.2855
     39 C          -9.6140   -1.2229   -1.5747 C.ar    1  UNL1        0.1004
     40 N         -10.8746   -1.6513   -1.7150 N.ar    1  UNL1       -0.2306
     41 C         -11.6996   -0.6929   -1.2534 C.ar    1  UNL1        0.1473
     42 C         -13.0939   -0.6968   -1.1987 C.ar    1  UNL1        0.1472
     43 N         -13.8738   -1.7773   -1.6497 N.pl3   1  UNL1       -0.3413
     44 N         -13.6453    0.4252   -0.6753 N.ar    1  UNL1       -0.2188
     45 C         -12.9062    1.4614   -0.2424 C.ar    1  UNL1        0.1205
     46 N         -11.5631    1.4173   -0.3163 N.ar    1  UNL1       -0.2159
     47 C         -10.9032    0.3383   -0.8250 C.ar    1  UNL1        0.1674
     48 C          -8.4093    1.0423    0.8139 C.3     1  UNL1        0.1294
     49 O          -9.4196    1.7713    1.3897 O.3     1  UNL1       -0.3846
     50 C          -7.0368    1.5958    0.9435 C.3     1  UNL1        0.1283
     51 O          -6.9125    2.9040    1.2961 O.3     1  UNL1       -0.2780
     52 P          -6.0880    3.2616    2.6779 P.3     1  UNL1        0.4728
     53 O          -5.5890    1.7787    3.3442 O.3     1  UNL1       -0.3026
     54 O          -4.6429    4.1248    2.3841 O.3     1  UNL1       -0.3026
     55 O          -6.8389    3.9842    3.7383 O.2     1  UNL1       -0.2275
     56 H           4.2078   -0.8651    0.5927 H       1  UNL1        0.0697
     57 H           2.3254   -2.1427    2.1473 H       1  UNL1        0.2105
     58 H           5.2099   -4.6242    1.8439 H       1  UNL1        0.2935
     59 H           6.2053   -0.6442    0.8915 H       1  UNL1        0.0514
     60 H           6.1724   -1.1254   -0.8440 H       1  UNL1        0.0514
     61 H           8.3836   -1.6401    1.2486 H       1  UNL1        0.0377
     62 H           8.4755   -2.1636   -0.4758 H       1  UNL1        0.0377
     63 H           8.4935    1.0566   -1.9278 H       1  UNL1        0.2934
     64 H           9.2016   -0.1407    2.3437 H       1  UNL1        0.0517
     65 H           9.3710    1.6268    2.3436 H       1  UNL1        0.0517
     66 H          11.4270    0.3914    2.9414 H       1  UNL1        0.0394
     67 H          11.3745   -0.4623    1.3433 H       1  UNL1        0.0394
     68 H          12.1670    1.1275   -1.1528 H       1  UNL1        0.0457
     69 H          10.7055    2.1319   -0.8322 H       1  UNL1        0.0457
     70 H           3.9865   -1.5919   -1.7693 H       1  UNL1        0.0237
     71 H           3.4692   -3.3104   -1.7066 H       1  UNL1        0.0237
     72 H           2.3137   -2.0821   -2.2845 H       1  UNL1        0.0237
     73 H           0.8542   -3.0645    0.7064 H       1  UNL1        0.0237
     74 H           2.3834   -3.8728    1.0792 H       1  UNL1        0.0237
     75 H           1.7396   -4.0067   -0.5975 H       1  UNL1        0.0237
     76 H           1.3013   -0.8099    0.9977 H       1  UNL1        0.0572
     77 H           2.1994    0.0210   -0.2973 H       1  UNL1        0.0572
     78 H          -0.0201    2.3619   -0.8562 H       1  UNL1        0.2220
     79 H          -3.7597   -2.9887   -1.3091 H       1  UNL1        0.2220
     80 H          -5.3783   -0.5017    0.4242 H       1  UNL1        0.0592
     81 H          -4.3724    1.0264    0.4625 H       1  UNL1        0.0592
     82 H          -6.1969    2.0443   -1.0288 H       1  UNL1        0.0647
     83 H          -8.6576    1.8218   -1.2198 H       1  UNL1        0.0866
     84 H          -8.6995   -1.7426   -1.8445 H       1  UNL1        0.1030
     85 H         -13.6951   -2.7712   -1.3735 H       1  UNL1        0.1438
     86 H         -14.6539   -1.4717   -2.2940 H       1  UNL1        0.1438
     87 H         -13.3474    2.3527    0.1743 H       1  UNL1        0.1048
     88 H          -8.4907   -0.0017    1.2228 H       1  UNL1        0.0666
     89 H          -9.7684    1.4127    2.2485 H       1  UNL1        0.2101
     90 H          -6.5135    1.0243    1.7490 H       1  UNL1        0.0656
     91 H          -6.3062    1.3427    3.8602 H       1  UNL1        0.2220
     92 H          -4.3943    4.0232    1.4107 H       1  UNL1        0.2220
@<TRIPOS>BOND
     1     1     2    1
     2     1     3    1
     3     3     4    1
     4     3     5    2
     5     5     6    1
     6     6     7    1
     7     7     8    1
     8     8     9    1
     9     8    10    2
    10    10    11    1
    11    11    12    1
    12    12    13    1
    13    13    14    1
    14    14    15    1
    15    15    16    2
    16    15    17    1
    17    17    18    1
    18    17    19    1
    19    17    20    1
    20     1    21    1
    21    21    22    1
    22    21    23    1
    23    21    24    1
    24    24    25    1
    25    25    26    1
    26    26    27    1
    27    26    28    2
    28    26    29    1
    29    29    30    1
    30    30    31    1
    31    30    32    2
    32    30    33    1
    33    33    34    1
    34    34    35    1
    35    35    36    1
    36    36    37    1
    37    37    38    1
    38    38    39   ar
    39    39    40   ar
    40    40    41   ar
    41    41    42   ar
    42    42    43    1
    43    42    44   ar
    44    44    45   ar
    45    45    46   ar
    46    46    47   ar
    47    37    48    1
    48    48    49    1
    49    48    50    1
    50    50    51    1
    51    51    52    1
    52    52    53    1
    53    52    54    1
    54    52    55    2
    55    50    35    1
    56    47    38   ar
    57    47    41   ar
    58     1    56    1
    59     2    57    1
    60     4    58    1
    61     6    59    1
    62     6    60    1
    63     7    61    1
    64     7    62    1
    65     9    63    1
    66    11    64    1
    67    11    65    1
    68    12    66    1
    69    12    67    1
    70    14    68    1
    71    14    69    1
    72    22    70    1
    73    22    71    1
    74    22    72    1
    75    23    73    1
    76    23    74    1
    77    23    75    1
    78    24    76    1
    79    24    77    1
    80    27    78    1
    81    31    79    1
    82    34    80    1
    83    34    81    1
    84    35    82    1
    85    37    83    1
    86    39    84    1
    87    43    85    1
    88    43    86    1
    89    45    87    1
    90    48    88    1
    91    49    89    1
    92    50    90    1
    93    53    91    1
    94    54    92    1
