@<TRIPOS>MOLECULE
*****
 39 42 0 0 0
SMALL
GASTEIGER

@<TRIPOS>ATOM
      1 O           7.1523   -0.0530   -0.5119 O.3     1  UNL1       -0.5068
      2 C           5.7744   -0.0984   -0.4288 C.ar    1  UNL1        0.1169
      3 C           5.0891    1.0199   -0.0468 C.ar    1  UNL1       -0.0195
      4 C           3.7094    0.9878    0.0403 C.ar    1  UNL1       -0.0477
      5 C           2.9620   -0.1352   -0.2426 C.ar    1  UNL1        0.0175
      6 C           1.5124   -0.1347   -0.1408 C.ar    1  UNL1        0.1393
      7 N           0.7842    0.9151    0.2236 N.ar    1  UNL1       -0.2271
      8 C          -0.5328    0.5485    0.2069 C.ar    1  UNL1        0.0971
      9 C          -1.6442    1.4364    0.5495 C.ar    1  UNL1        0.0026
     10 C          -2.4813    1.1908    1.6147 C.ar    1  UNL1       -0.0498
     11 C          -3.5324    2.0208    1.9476 C.ar    1  UNL1       -0.0258
     12 C          -3.7508    3.1484    1.1738 C.ar    1  UNL1        0.1234
     13 F          -4.7834    4.0066    1.4627 F       1  UNL1       -0.2055
     14 C          -2.9384    3.4336    0.0987 C.ar    1  UNL1       -0.0258
     15 C          -1.8991    2.5765   -0.1982 C.ar    1  UNL1       -0.0498
     16 C          -0.6028   -0.7521   -0.1762 C.ar    1  UNL1        0.0744
     17 C          -1.7963   -1.5614   -0.3328 C.ar    1  UNL1        0.0033
     18 C          -1.9721   -2.7107    0.4444 C.ar    1  UNL1       -0.0344
     19 C          -3.0839   -3.5028    0.3287 C.ar    1  UNL1        0.0282
     20 N          -4.0439   -3.1807   -0.5527 N.ar    1  UNL1       -0.2632
     21 C          -3.9322   -2.0774   -1.3364 C.ar    1  UNL1        0.0282
     22 C          -2.8134   -1.2820   -1.2187 C.ar    1  UNL1       -0.0344
     23 N           0.6825   -1.1498   -0.3852 N.ar    1  UNL1       -0.3374
     24 C           3.6686   -1.2721   -0.6317 C.ar    1  UNL1       -0.0477
     25 C           5.0435   -1.2304   -0.7156 C.ar    1  UNL1       -0.0195
     26 H           7.6691    0.6759   -0.0581 H       1  UNL1        0.2921
     27 H           5.5590    1.9644    0.2023 H       1  UNL1        0.0654
     28 H           3.1418    1.8678    0.3430 H       1  UNL1        0.0626
     29 H          -2.2945    0.3116    2.2010 H       1  UNL1        0.0625
     30 H          -4.1901    1.8255    2.7866 H       1  UNL1        0.0646
     31 H          -3.1475    4.3350   -0.4847 H       1  UNL1        0.0646
     32 H          -1.2666    2.7853   -1.0235 H       1  UNL1        0.0625
     33 H          -1.1821   -2.9508    1.1502 H       1  UNL1        0.0639
     34 H          -3.2164   -4.3889    0.9299 H       1  UNL1        0.0830
     35 H          -4.6799   -1.7862   -2.0543 H       1  UNL1        0.0830
     36 H          -2.7155   -0.4028   -1.8373 H       1  UNL1        0.0639
     37 H           1.0006   -2.0994   -0.6908 H       1  UNL1        0.1674
     38 H           3.1416   -2.1668   -0.8620 H       1  UNL1        0.0626
     39 H           5.6091   -2.1138   -1.0191 H       1  UNL1        0.0654
@<TRIPOS>BOND
     1     1     2    1
     2     2     3   ar
     3     3     4   ar
     4     4     5   ar
     5     5     6    1
     6     6     7   ar
     7     7     8   ar
     8     8     9    1
     9     9    10   ar
    10    10    11   ar
    11    11    12   ar
    12    12    13    1
    13    12    14   ar
    14    14    15   ar
    15     8    16   ar
    16    16    17    1
    17    17    18   ar
    18    18    19   ar
    19    19    20   ar
    20    20    21   ar
    21    21    22   ar
    22    16    23   ar
    23     5    24   ar
    24    24    25   ar
    25    25     2   ar
    26    23     6   ar
    27    15     9   ar
    28    22    17   ar
    29     1    26    1
    30     3    27    1
    31     4    28    1
    32    10    29    1
    33    11    30    1
    34    14    31    1
    35    15    32    1
    36    18    33    1
    37    19    34    1
    38    21    35    1
    39    22    36    1
    40    23    37    1
    41    24    38    1
    42    25    39    1
