
     RDKit          3D

 39 42  0  0  0  0  0  0  0  0999 V2000
    7.1523   -0.0530   -0.5119 O   0  0  0  0  0  0  0  0  0  0  0  0
    5.7744   -0.0984   -0.4288 C   0  0  0  0  0  0  0  0  0  0  0  0
    5.0891    1.0199   -0.0468 C   0  0  0  0  0  0  0  0  0  0  0  0
    3.7094    0.9878    0.0403 C   0  0  0  0  0  0  0  0  0  0  0  0
    2.9620   -0.1352   -0.2426 C   0  0  0  0  0  0  0  0  0  0  0  0
    1.5124   -0.1347   -0.1408 C   0  0  0  0  0  0  0  0  0  0  0  0
    0.7842    0.9151    0.2236 N   0  0  0  0  0  0  0  0  0  0  0  0
   -0.5328    0.5485    0.2069 C   0  0  0  0  0  0  0  0  0  0  0  0
   -1.6442    1.4364    0.5495 C   0  0  0  0  0  0  0  0  0  0  0  0
   -2.4813    1.1908    1.6147 C   0  0  0  0  0  0  0  0  0  0  0  0
   -3.5324    2.0208    1.9476 C   0  0  0  0  0  0  0  0  0  0  0  0
   -3.7508    3.1484    1.1738 C   0  0  0  0  0  0  0  0  0  0  0  0
   -4.7834    4.0066    1.4627 F   0  0  0  0  0  0  0  0  0  0  0  0
   -2.9384    3.4336    0.0987 C   0  0  0  0  0  0  0  0  0  0  0  0
   -1.8991    2.5765   -0.1982 C   0  0  0  0  0  0  0  0  0  0  0  0
   -0.6028   -0.7521   -0.1762 C   0  0  0  0  0  0  0  0  0  0  0  0
   -1.7963   -1.5614   -0.3328 C   0  0  0  0  0  0  0  0  0  0  0  0
   -1.9721   -2.7107    0.4444 C   0  0  0  0  0  0  0  0  0  0  0  0
   -3.0839   -3.5028    0.3287 C   0  0  0  0  0  0  0  0  0  0  0  0
   -4.0439   -3.1807   -0.5527 N   0  0  0  0  0  0  0  0  0  0  0  0
   -3.9322   -2.0774   -1.3364 C   0  0  0  0  0  0  0  0  0  0  0  0
   -2.8134   -1.2820   -1.2187 C   0  0  0  0  0  0  0  0  0  0  0  0
    0.6825   -1.1498   -0.3852 N   0  0  0  0  0  0  0  0  0  0  0  0
    3.6686   -1.2721   -0.6317 C   0  0  0  0  0  0  0  0  0  0  0  0
    5.0435   -1.2304   -0.7156 C   0  0  0  0  0  0  0  0  0  0  0  0
    7.6691    0.6759   -0.0581 H   0  0  0  0  0  0  0  0  0  0  0  0
    5.5590    1.9644    0.2023 H   0  0  0  0  0  0  0  0  0  0  0  0
    3.1418    1.8678    0.3430 H   0  0  0  0  0  0  0  0  0  0  0  0
   -2.2945    0.3116    2.2010 H   0  0  0  0  0  0  0  0  0  0  0  0
   -4.1901    1.8255    2.7866 H   0  0  0  0  0  0  0  0  0  0  0  0
   -3.1475    4.3350   -0.4847 H   0  0  0  0  0  0  0  0  0  0  0  0
   -1.2666    2.7853   -1.0235 H   0  0  0  0  0  0  0  0  0  0  0  0
   -1.1821   -2.9508    1.1502 H   0  0  0  0  0  0  0  0  0  0  0  0
   -3.2164   -4.3889    0.9299 H   0  0  0  0  0  0  0  0  0  0  0  0
   -4.6799   -1.7862   -2.0543 H   0  0  0  0  0  0  0  0  0  0  0  0
   -2.7155   -0.4028   -1.8373 H   0  0  0  0  0  0  0  0  0  0  0  0
    1.0006   -2.0994   -0.6908 H   0  0  0  0  0  0  0  0  0  0  0  0
    3.1416   -2.1668   -0.8620 H   0  0  0  0  0  0  0  0  0  0  0  0
    5.6091   -2.1138   -1.0191 H   0  0  0  0  0  0  0  0  0  0  0  0
  1  2  1  0
  2  3  2  0
  3  4  1  0
  4  5  2  0
  5  6  1  0
  6  7  2  0
  7  8  1  0
  8  9  1  0
  9 10  2  0
 10 11  1  0
 11 12  2  0
 12 13  1  0
 12 14  1  0
 14 15  2  0
  8 16  2  0
 16 17  1  0
 17 18  2  0
 18 19  1  0
 19 20  2  0
 20 21  1  0
 21 22  2  0
 16 23  1  0
  5 24  1  0
 24 25  2  0
 25  2  1  0
 23  6  1  0
 15  9  1  0
 22 17  1  0
  1 26  1  0
  3 27  1  0
  4 28  1  0
 10 29  1  0
 11 30  1  0
 14 31  1  0
 15 32  1  0
 18 33  1  0
 19 34  1  0
 21 35  1  0
 22 36  1  0
 23 37  1  0
 24 38  1  0
 25 39  1  0
M  END
$$$$
