@<TRIPOS>MOLECULE
*****
 18 19 0 0 0
SMALL
GASTEIGER

@<TRIPOS>ATOM
      1 O           3.9113    0.6350   -0.2276 O.3     1  UNL1       -0.4750
      2 C           3.1124   -0.4992   -0.1671 C.2     1  UNL1        0.3726
      3 O           3.7609   -1.5513   -0.1761 O.2     1  UNL1       -0.2417
      4 C           1.6505   -0.3618   -0.1016 C.ar    1  UNL1        0.2176
      5 N           0.7851   -1.3823   -0.0404 N.ar    1  UNL1       -0.2219
      6 C          -0.4796   -0.9323    0.0096 C.ar    1  UNL1        0.0897
      7 C          -1.7710   -1.4322    0.0802 C.ar    1  UNL1       -0.0342
      8 C          -2.8639   -0.5865    0.1141 C.ar    1  UNL1       -0.0596
      9 C          -2.7199    0.7857    0.0794 C.ar    1  UNL1       -0.0597
     10 C          -1.4424    1.3171    0.0089 C.ar    1  UNL1       -0.0362
     11 C          -0.3748    0.4439   -0.0233 C.ar    1  UNL1        0.0666
     12 N           0.9152    0.7828   -0.0905 N.ar    1  UNL1       -0.3326
     13 H           4.7736    0.7057    0.3025 H       1  UNL1        0.2955
     14 H          -1.8619   -2.5095    0.1063 H       1  UNL1        0.0639
     15 H          -3.8704   -0.9878    0.1693 H       1  UNL1        0.0618
     16 H          -3.5551    1.4769    0.1044 H       1  UNL1        0.0618
     17 H          -1.3348    2.3873   -0.0179 H       1  UNL1        0.0639
     18 H           1.3649    1.7087   -0.1303 H       1  UNL1        0.1676
@<TRIPOS>BOND
     1     1     2    1
     2     2     3    2
     3     2     4    1
     4     4     5   ar
     5     5     6   ar
     6     6     7   ar
     7     7     8   ar
     8     8     9   ar
     9     9    10   ar
    10    10    11   ar
    11    11    12   ar
    12    12     4   ar
    13    11     6   ar
    14     1    13    1
    15     7    14    1
    16     8    15    1
    17     9    16    1
    18    10    17    1
    19    12    18    1
