
     RDKit          3D

 39 41  0  0  0  0  0  0  0  0999 V2000
    2.4955    0.8315    2.7197 C   0  0  0  0  0  0  0  0  0  0  0  0
    2.6472    0.1019    1.4211 C   0  0  1  0  0  0  0  0  0  0  0  0
    1.3363   -0.3138    0.8802 N   0  0  0  0  0  0  0  0  0  0  0  0
    1.0698   -1.6475    0.5367 C   0  0  0  0  0  0  0  0  0  0  0  0
    2.0788   -2.4388    0.7452 O   0  0  0  0  0  0  0  0  0  0  0  0
   -0.1501   -2.2040    0.0016 C   0  0  0  0  0  0  0  0  0  0  0  0
   -0.2407   -3.5728   -0.2864 C   0  0  0  0  0  0  0  0  0  0  0  0
   -1.3792   -4.1512   -0.7968 C   0  0  0  0  0  0  0  0  0  0  0  0
   -2.4761   -3.3466   -1.0338 C   0  0  0  0  0  0  0  0  0  0  0  0
   -2.4017   -2.0382   -0.7629 N   0  0  0  0  0  0  0  0  0  0  0  0
   -1.2612   -1.4627   -0.2523 C   0  0  0  0  0  0  0  0  0  0  0  0
   -1.3200   -0.1245   -0.0229 O   0  0  0  0  0  0  0  0  0  0  0  0
   -2.4598    0.5998   -0.2902 C   0  0  0  0  0  0  0  0  0  0  0  0
   -3.4587    0.7929    0.6383 C   0  0  0  0  0  0  0  0  0  0  0  0
   -4.5998    1.5181    0.3704 C   0  0  0  0  0  0  0  0  0  0  0  0
   -4.7499    2.0690   -0.8638 C   0  0  0  0  0  0  0  0  0  0  0  0
   -5.8757    2.7802   -1.1169 F   0  0  0  0  0  0  0  0  0  0  0  0
   -3.7715    1.9003   -1.8269 C   0  0  0  0  0  0  0  0  0  0  0  0
   -2.6284    1.1711   -1.5514 C   0  0  0  0  0  0  0  0  0  0  0  0
    3.2748    0.9854    0.3741 C   0  0  0  0  0  0  0  0  0  0  0  0
    4.5269    0.9986   -0.1063 C   0  0  0  0  0  0  0  0  0  0  0  0
    4.8962    1.8686   -1.0443 C   0  0  0  0  0  0  0  0  0  0  0  0
    3.9346    2.7554   -1.5001 C   0  0  0  0  0  0  0  0  0  0  0  0
    2.4851    2.2721   -0.5137 S   0  0  0  0  0  0  0  0  0  0  0  0
    1.5158    1.2965    2.8706 H   0  0  0  0  0  0  0  0  0  0  0  0
    3.2723    1.6503    2.7579 H   0  0  0  0  0  0  0  0  0  0  0  0
    2.7828    0.1376    3.5573 H   0  0  0  0  0  0  0  0  0  0  0  0
    3.3197   -0.7766    1.4944 H   0  0  0  0  0  0  0  0  0  0  0  0
    0.5984    0.3968    0.7523 H   0  0  0  0  0  0  0  0  0  0  0  0
    0.6399   -4.1695   -0.0868 H   0  0  0  0  0  0  0  0  0  0  0  0
   -1.4345   -5.2182   -1.0158 H   0  0  0  0  0  0  0  0  0  0  0  0
   -3.3841   -3.7910   -1.4377 H   0  0  0  0  0  0  0  0  0  0  0  0
   -3.3036    0.3375    1.6138 H   0  0  0  0  0  0  0  0  0  0  0  0
   -5.3528    1.6384    1.1369 H   0  0  0  0  0  0  0  0  0  0  0  0
   -3.9139    2.3451   -2.7930 H   0  0  0  0  0  0  0  0  0  0  0  0
   -1.8708    1.0464   -2.3128 H   0  0  0  0  0  0  0  0  0  0  0  0
    5.2722    0.2540    0.2997 H   0  0  0  0  0  0  0  0  0  0  0  0
    5.9313    1.9250   -1.4832 H   0  0  0  0  0  0  0  0  0  0  0  0
    3.9550    3.5827   -2.2683 H   0  0  0  0  0  0  0  0  0  0  0  0
  1  2  1  0
  2  3  1  0
  3  4  1  0
  4  5  2  0
  4  6  1  0
  6  7  2  0
  7  8  1  0
  8  9  2  0
  9 10  1  0
 10 11  2  0
 11 12  1  0
 12 13  1  0
 13 14  2  0
 14 15  1  0
 15 16  2  0
 16 17  1  0
 16 18  1  0
 18 19  2  0
  2 20  1  0
 20 21  2  0
 21 22  1  0
 22 23  2  0
 23 24  1  0
 11  6  1  0
 19 13  1  0
 24 20  1  0
  1 25  1  0
  1 26  1  0
  1 27  1  0
  2 28  1  1
  3 29  1  0
  7 30  1  0
  8 31  1  0
  9 32  1  0
 14 33  1  0
 15 34  1  0
 18 35  1  0
 19 36  1  0
 21 37  1  0
 22 38  1  0
 23 39  1  0
M  END
$$$$
